@<TRIPOS>MOLECULE
NAQQAX
    75    76     1     0     0
SMALL
NO_CHARGES
****
Generated from the CSD

@<TRIPOS>ATOM
     1 Fe1      2.3703  10.0034   9.1236   Fe        1 RES1   0.0000
     2 Cl1      4.2724   8.5328   9.1313   Cl        1 RES1   0.0000
     3 C1       1.6819   7.1718   7.1919   C.3       1 RES1   0.0000
     4 H1       2.5868   6.9164   7.5040   H         1 RES1   0.0000
     5 H2       1.0317   6.7572   7.8126   H         1 RES1   0.0000
     6 C2       1.4723   6.5540   5.8131   C.3       1 RES1   0.0000
     7 H3       0.5438   6.6858   5.5330   H         1 RES1   0.0000
     8 H4       1.6669   5.5930   5.8541   H         1 RES1   0.0000
     9 H5       2.0731   6.9796   5.1674   H         1 RES1   0.0000
    10 C3      -0.2461   9.2036   6.8762   C.3       1 RES1   0.0000
    11 H6      -0.4084   8.6846   6.0503   H         1 RES1   0.0000
    12 H7      -0.8039   8.8055   7.5896   H         1 RES1   0.0000
    13 C4      -0.7297  10.6286   6.6389   C.3       1 RES1   0.0000
    14 H8      -1.7013  10.6259   6.5141   H         1 RES1   0.0000
    15 H9      -0.2977  10.9910   5.8363   H         1 RES1   0.0000
    16 H10     -0.5008  11.1860   7.4113   H         1 RES1   0.0000
    17 P1       1.5279   8.9922   7.3492   P.3       1 RES1   0.0000
    18 C5       2.4310   9.5935   5.8416   C.3       1 RES1   0.0000
    19 H11      3.2789   9.0938   5.7346   H         1 RES1   0.0000
    20 H12      1.8775   9.4452   5.0354   H         1 RES1   0.0000
    21 C6       2.7244  11.0789   6.0022   C.3       1 RES1   0.0000
    22 H13      1.9044  11.6061   5.8256   H         1 RES1   0.0000
    23 H14      3.4165  11.3590   5.3511   H         1 RES1   0.0000
    24 P2       3.3161  11.3996   7.7156   P.3       1 RES1   0.0000
    25 C7       3.0822  13.2288   7.8090   C.3       1 RES1   0.0000
    26 H15      3.4992  13.5528   8.6456   H         1 RES1   0.0000
    27 H16      3.5691  13.6434   7.0527   H         1 RES1   0.0000
    28 C8       1.6292  13.7120   7.7734   C.3       1 RES1   0.0000
    29 H17      1.2574  13.5638   6.8779   H         1 RES1   0.0000
    30 H18      1.5981  14.6675   7.9856   H         1 RES1   0.0000
    31 H19      1.1026  13.2123   8.4315   H         1 RES1   0.0000
    32 C9       5.1704  11.3452   7.5772   C.3       1 RES1   0.0000
    33 H20      5.5369  11.9246   8.2906   H         1 RES1   0.0000
    34 H21      5.4552  10.4199   7.7823   H         1 RES1   0.0000
    35 C10      5.8345  11.7434   6.2911   C.3       1 RES1   0.0000
    36 H22      5.7292  11.0267   5.6329   H         1 RES1   0.0000
    37 H23      6.7889  11.9026   6.4516   H         1 RES1   0.0000
    38 H24      5.4208  12.5643   5.9504   H         1 RES1   0.0000
    39 C11     -0.5202   8.4211  10.4899   C.3       1 RES1   0.0000
    40 H25     -0.7243   7.8472   9.7087   H         1 RES1   0.0000
    41 H26     -0.7985   7.9268  11.3033   H         1 RES1   0.0000
    42 C12     -1.3541   9.7006  10.3883   C.3       1 RES1   0.0000
    43 H27     -1.3015  10.1948  11.2337   H         1 RES1   0.0000
    44 H28     -2.2880   9.4699  10.2045   H         1 RES1   0.0000
    45 H29     -1.0070  10.2607   9.6623   H         1 RES1   0.0000
    46 C13      1.9355   6.9713  10.7950   C.3       1 RES1   0.0000
    47 H30      1.9817   6.5457   9.9031   H         1 RES1   0.0000
    48 H31      2.8641   7.0400  11.1339   H         1 RES1   0.0000
    49 C14      1.1618   6.0268  11.7278   C.3       1 RES1   0.0000
    50 H32      1.6808   5.2086  11.8652   H         1 RES1   0.0000
    51 H33      0.2988   5.8044  11.3229   H         1 RES1   0.0000
    52 H34      1.0134   6.4689  12.5894   H         1 RES1   0.0000
    53 P3       1.2992   8.6899  10.5622   P.3       1 RES1   0.0000
    54 C15      1.4885   9.3573  12.2790   C.3       1 RES1   0.0000
    55 H35      0.7695  10.0108  12.4698   H         1 RES1   0.0000
    56 H36      1.4261   8.6215  12.9390   H         1 RES1   0.0000
    57 C16      2.8426  10.0300  12.3753   C.3       1 RES1   0.0000
    58 H37      3.5637   9.3519  12.3735   H         1 RES1   0.0000
    59 H38      2.9060  10.5572  13.2119   H         1 RES1   0.0000
    60 P4       2.9950  11.1302  10.9134   P.3       1 RES1   0.0000
    61 C17      1.8936  12.5561  11.3497   C.3       1 RES1   0.0000
    62 H39      2.1107  13.3029  10.7379   H         1 RES1   0.0000
    63 H40      0.9597  12.2843  11.1588   H         1 RES1   0.0000
    64 C18      1.9420  13.0997  12.7909   C.3       1 RES1   0.0000
    65 H41      1.3627  13.8850  12.8623   H         1 RES1   0.0000
    66 H42      2.8619  13.3496  13.0139   H         1 RES1   0.0000
    67 H43      1.6314  12.4078  13.4116   H         1 RES1   0.0000
    68 C19      4.6492  11.8971  11.1927   C.3       1 RES1   0.0000
    69 H44      4.8157  12.5533  10.4703   H         1 RES1   0.0000
    70 H45      4.6212  12.3968  12.0471   H         1 RES1   0.0000
    71 C20      5.8227  10.9279  11.2427   C.3       1 RES1   0.0000
    72 H46      6.6567  11.4303  11.3568   H         1 RES1   0.0000
    73 H47      5.8603  10.4199  10.4061   H         1 RES1   0.0000
    74 H48      5.7067  10.3128  11.9954   H         1 RES1   0.0000
    75 H49      1.1875  10.8538   9.0755   H         1 RES1   0.0000
@<TRIPOS>BOND
     1     1     2    1
     2     3     4    1
     3     5     3    1
     4     6     3    1
     5     7     6    1
     6     8     6    1
     7     9     6    1
     8    10    11    1
     9    12    10    1
    10    13    10    1
    11    14    13    1
    12    15    13    1
    13    16    13    1
    14    17     1    1
    15    18    17    1
    16    19    18    1
    17    20    18    1
    18    21    18    1
    19    22    21    1
    20    23    21    1
    21    24     1    1
    22    25    24    1
    23    26    25    1
    24    27    25    1
    25    28    25    1
    26    29    28    1
    27    30    28    1
    28    31    28    1
    29    32    24    1
    30    33    32    1
    31    34    32    1
    32    35    32    1
    33    36    35    1
    34    37    35    1
    35    38    35    1
    36    39    40    1
    37    41    39    1
    38    42    39    1
    39    43    42    1
    40    44    42    1
    41    45    42    1
    42    46    47    1
    43    48    46    1
    44    49    46    1
    45    50    49    1
    46    51    49    1
    47    52    49    1
    48    53     1    1
    49    54    53    1
    50    55    54    1
    51    56    54    1
    52    57    54    1
    53    58    57    1
    54    59    57    1
    55    60     1    1
    56    61    60    1
    57    62    61    1
    58    63    61    1
    59    64    61    1
    60    65    64    1
    61    66    64    1
    62    67    64    1
    63    68    60    1
    64    69    68    1
    65    70    68    1
    66    71    68    1
    67    72    71    1
    68    73    71    1
    69    74    71    1
    70    75     1    1
    71     3    17    1
    72    10    17    1
    73    21    24    1
    74    39    53    1
    75    46    53    1
    76    57    60    1
@<TRIPOS>SUBSTRUCTURE
     1 RES1        1 GROUP             0 ****  ****    0  
@<TRIPOS>CRYSIN
   10.7470   27.4570   17.8370   90.0000   90.0000   90.0000    60     1
