@<TRIPOS>MOLECULE
NASHIY
   127   135     2     0     0
SMALL
USER_CHARGES
****
Generated from the CSD

@<TRIPOS>ATOM
     1 Fe1      0.4364   3.9005  10.1806   Fe        1 RES1   1.0000
     2 Cl1      1.4243   5.6566  11.4021   Cl        1 RES1   0.0000
     3 P1       0.6211   2.8580  12.1116   P.3       1 RES1   0.0000
     4 P2       2.6635   3.3197   9.9633   P.3       1 RES1   0.0000
     5 P3      -0.2897   1.9171   9.4522   P.3       1 RES1   0.0000
     6 P4      -1.5400   4.6862  11.0853   P.3       1 RES1   0.0000
     7 P5       0.2730   5.2131   8.2246   P.3       1 RES1   0.0000
     8 C1       2.3238   2.8920  12.7606   C.3       1 RES1   0.0000
     9 C2       3.2299   2.5828  11.5865   C.3       1 RES1   0.0000
    10 C3       3.8800   4.6623   9.6381   C.3       1 RES1   0.0000
    11 C4       3.3455   2.0492   8.8454   C.3       1 RES1   0.0000
    12 C5       0.1705   1.1065  11.9962   C.3       1 RES1   0.0000
    13 C6       0.4011   0.6457  10.5813   C.3       1 RES1   0.0000
    14 C7       0.0794   1.2307   7.8065   C.3       1 RES1   0.0000
    15 C8      -2.0468   1.3944   9.5860   C.3       1 RES1   0.0000
    16 C9      -0.5050   3.5407  13.3759   C.3       1 RES1   0.0000
    17 C10     -1.8448   3.7983  12.6719   C.3       1 RES1   0.0000
    18 C11     -3.2159   4.6138  10.3659   C.3       1 RES1   0.0000
    19 C12     -1.5740   6.3872  11.6668   C.3       1 RES1   0.0000
    20 C13     -0.1579   6.9662   8.5146   C.ar      1 RES1   0.0000
    21 C14     -1.4140   7.5027   8.1120   C.ar      1 RES1   0.0000
    22 C15     -1.7399   8.8183   8.3865   C.ar      1 RES1   0.0000
    23 C16     -0.8049   9.6399   9.0468   C.ar      1 RES1   0.0000
    24 C17      0.3821   9.1427   9.4438   C.ar      1 RES1   0.0000
    25 C18      0.6993   7.8210   9.2002   C.ar      1 RES1   0.0000
    26 C19     -0.9697   4.7714   6.9209   C.ar      1 RES1   0.0000
    27 C20     -2.0483   3.9984   7.2250   C.ar      1 RES1   0.0000
    28 C21     -3.0140   3.7044   6.2987   C.ar      1 RES1   0.0000
    29 C22     -2.9211   4.2500   5.0415   C.ar      1 RES1   0.0000
    30 C23     -1.8678   5.0837   4.7036   C.ar      1 RES1   0.0000
    31 C24     -0.8833   5.3262   5.6285   C.ar      1 RES1   0.0000
    32 C25      1.7371   5.3595   7.1166   C.ar      1 RES1   0.0000
    33 C26      2.1502   4.2046   6.4859   C.ar      1 RES1   0.0000
    34 C27      3.2658   4.1833   5.6609   C.ar      1 RES1   0.0000
    35 C28      4.0053   5.3292   5.4737   C.ar      1 RES1   0.0000
    36 C29      3.5767   6.5054   6.0607   C.ar      1 RES1   0.0000
    37 C30      2.4329   6.5327   6.8745   C.ar      1 RES1   0.0000
    38 H1       2.5296   3.7680  13.1225   H         1 RES1   0.0000
    39 H2       2.4323   2.2220  13.4547   H         1 RES1   0.0000
    40 H3       3.2765   1.6218  11.4823   H         1 RES1   0.0000
    41 H4       4.1132   2.9283  11.7864   H         1 RES1   0.0000
    42 H5       4.7714   4.3531   9.8647   H         1 RES1   0.0000
    43 H6       3.8508   4.9018   8.6976   H         1 RES1   0.0000
    44 H7       3.6581   5.4353  10.1773   H         1 RES1   0.0000
    45 H8       2.9355   1.1944   9.0411   H         1 RES1   0.0000
    46 H9       3.1615   2.2948   7.9247   H         1 RES1   0.0000
    47 H10      4.3057   1.9856   8.9764   H         1 RES1   0.0000
    48 H11      0.7210   0.5881  12.6030   H         1 RES1   0.0000
    49 H12     -0.7644   0.9943  12.2285   H         1 RES1   0.0000
    50 H13     -0.0446  -0.2031  10.4335   H         1 RES1   0.0000
    51 H14      1.3532   0.5426  10.4180   H         1 RES1   0.0000
    52 H15     -0.4854   1.6612   7.1434   H         1 RES1   0.0000
    53 H16      1.0111   1.3944   7.5911   H         1 RES1   0.0000
    54 H17     -0.0907   0.2789   7.8093   H         1 RES1   0.0000
    55 H18     -2.5603   1.8007   8.8694   H         1 RES1   0.0000
    56 H19     -2.1024   0.4274   9.5170   H         1 RES1   0.0000
    57 H20     -2.4043   1.6794  10.4433   H         1 RES1   0.0000
    58 H21     -0.6234   2.9071  14.0995   H         1 RES1   0.0000
    59 H22     -0.1482   4.3713  13.7306   H         1 RES1   0.0000
    60 H23     -2.4120   4.3410  13.2435   H         1 RES1   0.0000
    61 H24     -2.2839   2.9526  12.4903   H         1 RES1   0.0000
    62 H25     -3.8719   4.8139  11.0543   H         1 RES1   0.0000
    63 H26     -3.2896   5.2625   9.6493   H         1 RES1   0.0000
    64 H27     -3.3785   3.7256  10.0139   H         1 RES1   0.0000
    65 H28     -0.8613   6.5236  12.3115   H         1 RES1   0.0000
    66 H29     -1.4502   6.9874  10.9150   H         1 RES1   0.0000
    67 H30     -2.4291   6.5690  12.0891   H         1 RES1   0.0000
    68 H31     -2.0476   6.9389   7.6403   H         1 RES1   0.0000
    69 H32     -2.6047   9.1730   8.1246   H         1 RES1   0.0000
    70 H33     -1.0259  10.5705   9.2171   H         1 RES1   0.0000
    71 H34      1.0174   9.7156   9.8999   H         1 RES1   0.0000
    72 H35      1.5477   7.4785   9.5198   H         1 RES1   0.0000
    73 H36     -2.1358   3.6437   8.1246   H         1 RES1   0.0000
    74 H37     -3.7521   3.1193   6.5267   H         1 RES1   0.0000
    75 H38     -3.6015   4.0500   4.3798   H         1 RES1   0.0000
    76 H39     -1.8265   5.4929   3.8237   H         1 RES1   0.0000
    77 H40     -0.1237   5.8809   5.3920   H         1 RES1   0.0000
    78 H41      1.6484   3.3861   6.6225   H         1 RES1   0.0000
    79 H42      3.5254   3.3618   5.2146   H         1 RES1   0.0000
    80 H43      4.8158   5.3080   4.9387   H         1 RES1   0.0000
    81 H44      4.0750   7.3239   5.9087   H         1 RES1   0.0000
    82 H45      2.1312   7.3663   7.2644   H         1 RES1   0.0000
    83 C31      4.4576   1.2702   2.9987   C.ar      2 RES2   0.0000
    84 C32      5.7303   1.1186   3.5421   C.ar      2 RES2   0.0000
    85 C33      6.6712   2.1644   3.5604   C.ar      2 RES2   0.0000
    86 C34      6.3721   3.3891   3.0100   C.ar      2 RES2   0.0000
    87 C35      5.1315   3.5710   2.4510   C.ar      2 RES2   0.0000
    88 C36      4.2238   2.5282   2.4595   C.ar      2 RES2   0.0000
    89 C37      1.8684   0.7124   2.8664   C.ar      2 RES2   0.0000
    90 C38      1.3109   1.4066   3.9434   C.ar      2 RES2   0.0000
    91 C39      0.0899   2.0674   3.8870   C.ar      2 RES2   0.0000
    92 C40     -0.6419   2.0492   2.7368   C.ar      2 RES2   0.0000
    93 C41     -0.1381   1.3823   1.6289   C.ar      2 RES2   0.0000
    94 C42      1.1009   0.7397   1.7021   C.ar      2 RES2   0.0000
    95 C43      3.4849  -0.8852   4.3122   C.ar      2 RES2   0.0000
    96 C44      3.7075  -0.2850   5.5750   C.ar      2 RES2   0.0000
    97 C45      3.7963  -1.0276   6.7492   C.ar      2 RES2   0.0000
    98 C46      3.6479  -2.4160   6.6943   C.ar      2 RES2   0.0000
    99 C47      3.4259  -3.0375   5.4765   C.ar      2 RES2   0.0000
   100 C48      3.3643  -2.2645   4.3263   C.ar      2 RES2   0.0000
   101 C49      3.6535  -0.8700   1.6120   C.ar      2 RES2   0.0000
   102 C50      4.7766  -0.7366   0.8095   C.ar      2 RES2   0.0000
   103 C51      5.0163  -1.5824  -0.2886   C.ar      2 RES2   0.0000
   104 C52      4.1394  -2.5888  -0.6180   C.ar      2 RES2   0.0000
   105 C53      3.0154  -2.7646   0.1478   C.ar      2 RES2   0.0000
   106 C54      2.7857  -1.8946   1.2150   C.ar      2 RES2   0.0000
   107 B1       3.3651   0.0667   2.9283   B         2 RES2  -1.0000
   108 H46      5.9775   0.2607   3.9222   H         2 RES2   0.0000
   109 H47      7.5417   2.0189   3.9645   H         2 RES2   0.0000
   110 H48      7.0235   4.1075   3.0184   H         2 RES2   0.0000
   111 H49      4.8926   4.4228   2.0554   H         2 RES2   0.0000
   112 H50      3.3558   2.6889   2.0569   H         2 RES2   0.0000
   113 H51      1.8039   1.4278   4.7796   H         2 RES2   0.0000
   114 H52     -0.2418   2.5433   4.6656   H         2 RES2   0.0000
   115 H53     -1.5025   2.4948   2.6932   H         2 RES2   0.0000
   116 H54     -0.6462   1.3641   0.8025   H         2 RES2   0.0000
   117 H55      1.4403   0.2910   0.9109   H         2 RES2   0.0000
   118 H56      3.8027   0.6790   5.6243   H         2 RES2   0.0000
   119 H57      3.9596  -0.5851   7.5981   H         2 RES2   0.0000
   120 H58      3.7002  -2.9405   7.5080   H         2 RES2   0.0000
   121 H59      3.3159  -3.9984   5.4286   H         2 RES2   0.0000
   122 H60      3.2285  -2.7192   3.4788   H         2 RES2   0.0000
   123 H61      5.4170  -0.0394   1.0122   H         2 RES2   0.0000
   124 H62      5.8139  -1.4520  -0.8250   H         2 RES2   0.0000
   125 H63      4.3139  -3.1648  -1.3783   H         2 RES2   0.0000
   126 H64      2.3911  -3.4800  -0.0493   H         2 RES2   0.0000
   127 H65      1.9639  -2.0068   1.7190   H         2 RES2   0.0000
@<TRIPOS>BOND
     1     1     2    1
     2     3     1    1
     3     4     1    1
     4     5     1    1
     5     6     1    1
     6     7     1    1
     7     8     3    1
     8     9     4    1
     9    10     4    1
    10    11     4    1
    11    12     3    1
    12    13     5    1
    13    14     5    1
    14    15     5    1
    15    16     3    1
    16    17     6    1
    17    18     6    1
    18    19     6    1
    19    20     7    1
    20    21    20   ar
    21    22    21   ar
    22    23    22   ar
    23    24    23   ar
    24    25    20   ar
    25    26     7    1
    26    27    26   ar
    27    28    27   ar
    28    29    28   ar
    29    30    29   ar
    30    31    26   ar
    31    32     7    1
    32    33    32   ar
    33    34    33   ar
    34    35    34   ar
    35    36    35   ar
    36    37    32   ar
    37    38     8    1
    38    39     8    1
    39    40     9    1
    40    41     9    1
    41    42    10    1
    42    43    10    1
    43    44    10    1
    44    45    11    1
    45    46    11    1
    46    47    11    1
    47    48    12    1
    48    49    12    1
    49    50    13    1
    50    51    13    1
    51    52    14    1
    52    53    14    1
    53    54    14    1
    54    55    15    1
    55    56    15    1
    56    57    15    1
    57    58    16    1
    58    59    16    1
    59    60    17    1
    60    61    17    1
    61    62    18    1
    62    63    18    1
    63    64    18    1
    64    65    19    1
    65    66    19    1
    66    67    19    1
    67    68    21    1
    68    69    22    1
    69    70    23    1
    70    71    24    1
    71    72    25    1
    72    73    27    1
    73    74    28    1
    74    75    29    1
    75    76    30    1
    76    77    31    1
    77    78    33    1
    78    79    34    1
    79    80    35    1
    80    81    36    1
    81    82    37    1
    82     8     9    1
    83    12    13    1
    84    16    17    1
    85    24    25   ar
    86    30    31   ar
    87    36    37   ar
    88    83    84   ar
    89    84    85   ar
    90    85    86   ar
    91    86    87   ar
    92    87    88   ar
    93    88    83   ar
    94    89    90   ar
    95    90    91   ar
    96    91    92   ar
    97    92    93   ar
    98    93    94   ar
    99    94    89   ar
   100    95    96   ar
   101    96    97   ar
   102    97    98   ar
   103    98    99   ar
   104    99   100   ar
   105   100    95   ar
   106   101   102   ar
   107   102   103   ar
   108   103   104   ar
   109   104   105   ar
   110   105   106   ar
   111   106   101   ar
   112   107    83    1
   113   108    84    1
   114   109    85    1
   115   110    86    1
   116   111    87    1
   117   112    88    1
   118   113    90    1
   119   114    91    1
   120   115    92    1
   121   116    93    1
   122   117    94    1
   123   118    96    1
   124   119    97    1
   125   120    98    1
   126   121    99    1
   127   122   100    1
   128   123   102    1
   129   124   103    1
   130   125   104    1
   131   126   105    1
   132   127   106    1
   133    89   107    1
   134    95   107    1
   135   101   107    1
@<TRIPOS>SUBSTRUCTURE
     1 RES1        1 GROUP             0 ****  ****    0  
     2 RES2       83 GROUP             0 ****  ****    0  
@<TRIPOS>CRYSIN
   13.2460   30.3140   14.3380   90.0000  100.9200   90.0000    14     1
