@<TRIPOS>MOLECULE
NASTOS02
   177   192     1     0     0
SMALL
NO_CHARGES
****
Generated from the CSD

@<TRIPOS>ATOM
     1 Fe1      0.0000   0.0000   0.0000   Fe        1 RES1   0.0000
     2 S1      -3.3543  -1.7813   2.8652   S.2       1 RES1   0.0000
     3 N1      -1.4095  -0.6347   1.1853   N.2       1 RES1   0.0000
     4 N2      -1.3804  -1.4911   6.3636   N.pl3     1 RES1   0.0000
     5 C1      -2.2107  -1.1217   1.8941   C.1       1 RES1   0.0000
     6 C2       3.2922  -0.3921   3.4831   C.ar      1 RES1   0.0000
     7 H1       3.9455  -0.4816   4.1663   H         1 RES1   0.0000
     8 N3      -0.6376  -0.1610   4.6467   N.ar      1 RES1   0.0000
     9 C3       2.1236   0.2876   3.7095   C.ar      1 RES1   0.0000
    10 H2       1.9462   0.6671   4.5621   H         1 RES1   0.0000
    11 C4      -5.8267   1.9733   1.0849   C.ar      1 RES1   0.0000
    12 H3      -5.7064   1.2704   0.4568   H         1 RES1   0.0000
    13 N4      -3.9246   2.1478   5.0405   N.pl3     1 RES1   0.0000
    14 N5       0.0075   1.1839   2.8491   N.pl3     1 RES1   0.0000
    15 C5      -0.1871  -2.3107   6.1510   C.3       1 RES1   0.0000
    16 H4      -0.0768  -2.4588   5.1783   H         1 RES1   0.0000
    17 H5      -0.3351  -3.1948   6.5724   H         1 RES1   0.0000
    18 N6      -1.9895   1.6700   3.9162   N.ar      1 RES1   0.0000
    19 C6      -4.1160   3.3672   4.2155   C.3       1 RES1   0.0000
    20 H6      -3.2434   3.6406   3.8355   H         1 RES1   0.0000
    21 H7      -4.4388   4.1023   4.7944   H         1 RES1   0.0000
    22 N7      -0.2692   1.8868   0.6064   N.ar      1 RES1   0.0000
    23 N8      -2.6812   0.3373   5.7966   N.ar      1 RES1   0.0000
    24 C7      -1.5861  -0.3933   5.5800   C.ar      1 RES1   0.0000
    25 C8       1.1182  -1.7266   6.7023   C.ar      1 RES1   0.0000
    26 C9      -5.1062   3.1536   3.0834   C.ar      1 RES1   0.0000
    27 N9       1.3376  -0.1465   1.4432   N.ar      1 RES1   0.0000
    28 C10     -4.9418   2.1210   2.1442   C.ar      1 RES1   0.0000
    29 H8      -4.2160   1.5150   2.2367   H         1 RES1   0.0000
    30 C11      2.5260  -0.7843   1.2444   C.ar      1 RES1   0.0000
    31 H9       2.6965  -1.1343   0.3761   H         1 RES1   0.0000
    32 C12      3.4972  -0.9572   2.1993   C.ar      1 RES1   0.0000
    33 H10      4.2881  -1.4461   2.0064   H         1 RES1   0.0000
    34 C13      1.2037  -0.5159   7.3737   C.ar      1 RES1   0.0000
    35 H11      0.4182  -0.0017   7.5115   H         1 RES1   0.0000
    36 C14     -2.8416   1.3647   4.9165   C.ar      1 RES1   0.0000
    37 C15      2.4105  -0.0472   7.8404   C.ar      1 RES1   0.0000
    38 H12      2.4486   0.7881   8.2912   H         1 RES1   0.0000
    39 C16      1.1884   0.4148   2.6620   C.ar      1 RES1   0.0000
    40 C17     -4.7397   2.8231   7.3048   C.ar      1 RES1   0.0000
    41 C18     -4.9532   1.9314   6.0742   C.3       1 RES1   0.0000
    42 H13     -4.9383   0.9821   6.3538   H         1 RES1   0.0000
    43 H14     -5.8459   2.1197   5.6883   H         1 RES1   0.0000
    44 C19     -0.9274   0.8944   3.8710   C.ar      1 RES1   0.0000
    45 C20      2.2798  -2.4645   6.4995   C.ar      1 RES1   0.0000
    46 H15      2.2498  -3.2955   6.0407   H         1 RES1   0.0000
    47 C21     -0.2911   2.2044   1.8961   C.ar      1 RES1   0.0000
    48 C22     -6.1805   4.0377   2.9200   C.ar      1 RES1   0.0000
    49 H16     -6.3026   4.7558   3.5303   H         1 RES1   0.0000
    50 C23     -2.3034  -1.8606   7.4466   C.3       1 RES1   0.0000
    51 H17     -2.9469  -1.1211   7.5844   H         1 RES1   0.0000
    52 H18     -1.7858  -1.9680   8.2834   H         1 RES1   0.0000
    53 C24     -3.0723  -3.1367   7.1788   C.ar      1 RES1   0.0000
    54 C25     -0.7697   4.5086   1.3881   C.ar      1 RES1   0.0000
    55 H19     -0.9691   5.3975   1.6559   H         1 RES1   0.0000
    56 C26     -5.8548   3.2782   8.0156   C.ar      1 RES1   0.0000
    57 H20     -6.7330   3.0615   7.7262   H         1 RES1   0.0000
    58 C27     -0.5154   3.5079   2.3371   C.ar      1 RES1   0.0000
    59 H21     -0.4974   3.7138   3.2645   H         1 RES1   0.0000
    60 C28     -0.7192   4.1616   0.0433   C.ar      1 RES1   0.0000
    61 H22     -0.8651   4.8201  -0.6261   H         1 RES1   0.0000
    62 C29     -3.8348  -4.9257   5.7336   C.ar      1 RES1   0.0000
    63 H23     -3.8511  -5.3332   4.8751   H         1 RES1   0.0000
    64 C30     -7.0691   3.8637   1.8607   C.ar      1 RES1   0.0000
    65 H24     -7.8116   4.4507   1.7721   H         1 RES1   0.0000
    66 C31     -3.1390  -3.7456   5.9147   C.ar      1 RES1   0.0000
    67 H25     -2.7006  -3.3406   5.1744   H         1 RES1   0.0000
    68 C32     -5.6550   4.0533   9.1536   C.ar      1 RES1   0.0000
    69 H26     -6.4115   4.3538   9.6439   H         1 RES1   0.0000
    70 C33     -6.8916   2.8601   0.9451   C.ar      1 RES1   0.0000
    71 H27     -7.4941   2.7693   0.2166   H         1 RES1   0.0000
    72 C34     -0.4609   2.8725  -0.3072   C.ar      1 RES1   0.0000
    73 H28     -0.4134   2.6530  -1.2306   H         1 RES1   0.0000
    74 C35     -4.4073   4.3948   9.5868   C.ar      1 RES1   0.0000
    75 H29     -4.2940   4.9203  10.3705   H         1 RES1   0.0000
    76 C36      3.5749  -0.7865   7.6592   C.ar      1 RES1   0.0000
    77 H30      4.4057  -0.4758   7.9979   H         1 RES1   0.0000
    78 C37     -3.3139   3.9650   8.8721   C.ar      1 RES1   0.0000
    79 H31     -2.4468   4.2249   9.1497   H         1 RES1   0.0000
    80 C38     -3.4631   3.1503   7.7419   C.ar      1 RES1   0.0000
    81 H32     -2.6991   2.8272   7.2792   H         1 RES1   0.0000
    82 C39      3.4902  -1.9665   6.9839   C.ar      1 RES1   0.0000
    83 H33      4.2833  -2.4682   6.8382   H         1 RES1   0.0000
    84 C40     -3.7620  -3.7527   8.2440   C.ar      1 RES1   0.0000
    85 H34     -3.7348  -3.3650   9.1103   H         1 RES1   0.0000
    86 C41     -4.4724  -4.9102   8.0353   C.ar      1 RES1   0.0000
    87 H35     -4.9505  -5.3050   8.7559   H         1 RES1   0.0000
    88 C42     -4.4996  -5.5146   6.7712   C.ar      1 RES1   0.0000
    89 H36     -4.9753  -6.3258   6.6373   H         1 RES1   0.0000
    90 S1A      3.3543   1.7813  -2.8652   S.2       1 RES1   0.0000
    91 N1A      1.4095   0.6347  -1.1853   N.2       1 RES1   0.0000
    92 N2A      1.3804   1.4911  -6.3636   N.pl3     1 RES1   0.0000
    93 C1A      2.2107   1.1217  -1.8941   C.1       1 RES1   0.0000
    94 C2A     -3.2922   0.3921  -3.4831   C.ar      1 RES1   0.0000
    95 H1A     -3.9455   0.4816  -4.1663   H         1 RES1   0.0000
    96 N3A      0.6376   0.1610  -4.6467   N.ar      1 RES1   0.0000
    97 C3A     -2.1236  -0.2876  -3.7095   C.ar      1 RES1   0.0000
    98 H2A     -1.9462  -0.6671  -4.5621   H         1 RES1   0.0000
    99 C4A      5.8267  -1.9733  -1.0849   C.ar      1 RES1   0.0000
   100 H3A      5.7064  -1.2704  -0.4568   H         1 RES1   0.0000
   101 N4A      3.9246  -2.1478  -5.0405   N.pl3     1 RES1   0.0000
   102 N5A     -0.0075  -1.1839  -2.8491   N.pl3     1 RES1   0.0000
   103 C5A      0.1871   2.3107  -6.1510   C.3       1 RES1   0.0000
   104 H4A      0.0768   2.4588  -5.1783   H         1 RES1   0.0000
   105 H5A      0.3351   3.1948  -6.5724   H         1 RES1   0.0000
   106 N6A      1.9895  -1.6700  -3.9162   N.ar      1 RES1   0.0000
   107 C6A      4.1160  -3.3672  -4.2155   C.3       1 RES1   0.0000
   108 H6A      3.2434  -3.6406  -3.8355   H         1 RES1   0.0000
   109 H7A      4.4388  -4.1023  -4.7944   H         1 RES1   0.0000
   110 N7A      0.2692  -1.8868  -0.6064   N.ar      1 RES1   0.0000
   111 N8A      2.6812  -0.3373  -5.7966   N.ar      1 RES1   0.0000
   112 C7A      1.5861   0.3933  -5.5800   C.ar      1 RES1   0.0000
   113 C8A     -1.1182   1.7266  -6.7023   C.ar      1 RES1   0.0000
   114 C9A      5.1062  -3.1536  -3.0834   C.ar      1 RES1   0.0000
   115 N9A     -1.3376   0.1465  -1.4432   N.ar      1 RES1   0.0000
   116 C10A     4.9418  -2.1210  -2.1442   C.ar      1 RES1   0.0000
   117 H8A      4.2160  -1.5150  -2.2367   H         1 RES1   0.0000
   118 C11A    -2.5260   0.7843  -1.2444   C.ar      1 RES1   0.0000
   119 H9A     -2.6965   1.1343  -0.3761   H         1 RES1   0.0000
   120 C12A    -3.4972   0.9572  -2.1993   C.ar      1 RES1   0.0000
   121 H10A    -4.2881   1.4461  -2.0064   H         1 RES1   0.0000
   122 C13A    -1.2037   0.5159  -7.3737   C.ar      1 RES1   0.0000
   123 H11A    -0.4182   0.0017  -7.5115   H         1 RES1   0.0000
   124 C14A     2.8416  -1.3647  -4.9165   C.ar      1 RES1   0.0000
   125 C15A    -2.4105   0.0472  -7.8404   C.ar      1 RES1   0.0000
   126 H12A    -2.4486  -0.7881  -8.2912   H         1 RES1   0.0000
   127 C16A    -1.1884  -0.4148  -2.6620   C.ar      1 RES1   0.0000
   128 C17A     4.7397  -2.8231  -7.3048   C.ar      1 RES1   0.0000
   129 C18A     4.9532  -1.9314  -6.0742   C.3       1 RES1   0.0000
   130 H13A     4.9383  -0.9821  -6.3538   H         1 RES1   0.0000
   131 H14A     5.8459  -2.1197  -5.6883   H         1 RES1   0.0000
   132 C19A     0.9274  -0.8944  -3.8710   C.ar      1 RES1   0.0000
   133 C20A    -2.2798   2.4645  -6.4995   C.ar      1 RES1   0.0000
   134 H15A    -2.2498   3.2955  -6.0407   H         1 RES1   0.0000
   135 C21A     0.2911  -2.2044  -1.8961   C.ar      1 RES1   0.0000
   136 C22A     6.1805  -4.0377  -2.9200   C.ar      1 RES1   0.0000
   137 H16A     6.3026  -4.7558  -3.5303   H         1 RES1   0.0000
   138 C23A     2.3034   1.8606  -7.4466   C.3       1 RES1   0.0000
   139 H17A     2.9469   1.1211  -7.5844   H         1 RES1   0.0000
   140 H18A     1.7858   1.9680  -8.2834   H         1 RES1   0.0000
   141 C24A     3.0723   3.1367  -7.1788   C.ar      1 RES1   0.0000
   142 C25A     0.7697  -4.5086  -1.3881   C.ar      1 RES1   0.0000
   143 H19A     0.9691  -5.3975  -1.6559   H         1 RES1   0.0000
   144 C26A     5.8548  -3.2782  -8.0156   C.ar      1 RES1   0.0000
   145 H20A     6.7330  -3.0615  -7.7262   H         1 RES1   0.0000
   146 C27A     0.5154  -3.5079  -2.3371   C.ar      1 RES1   0.0000
   147 H21A     0.4974  -3.7138  -3.2645   H         1 RES1   0.0000
   148 C28A     0.7192  -4.1616  -0.0433   C.ar      1 RES1   0.0000
   149 H22A     0.8651  -4.8201   0.6261   H         1 RES1   0.0000
   150 C29A     3.8348   4.9257  -5.7336   C.ar      1 RES1   0.0000
   151 H23A     3.8511   5.3332  -4.8751   H         1 RES1   0.0000
   152 C30A     7.0691  -3.8637  -1.8607   C.ar      1 RES1   0.0000
   153 H24A     7.8116  -4.4507  -1.7721   H         1 RES1   0.0000
   154 C31A     3.1390   3.7456  -5.9147   C.ar      1 RES1   0.0000
   155 H25A     2.7006   3.3406  -5.1744   H         1 RES1   0.0000
   156 C32A     5.6550  -4.0533  -9.1536   C.ar      1 RES1   0.0000
   157 H26A     6.4115  -4.3538  -9.6439   H         1 RES1   0.0000
   158 C33A     6.8916  -2.8601  -0.9451   C.ar      1 RES1   0.0000
   159 H27A     7.4941  -2.7693  -0.2166   H         1 RES1   0.0000
   160 C34A     0.4609  -2.8725   0.3072   C.ar      1 RES1   0.0000
   161 H28A     0.4134  -2.6530   1.2306   H         1 RES1   0.0000
   162 C35A     4.4073  -4.3948  -9.5868   C.ar      1 RES1   0.0000
   163 H29A     4.2940  -4.9203 -10.3705   H         1 RES1   0.0000
   164 C36A    -3.5749   0.7865  -7.6592   C.ar      1 RES1   0.0000
   165 H30A    -4.4057   0.4758  -7.9979   H         1 RES1   0.0000
   166 C37A     3.3139  -3.9650  -8.8721   C.ar      1 RES1   0.0000
   167 H31A     2.4468  -4.2249  -9.1497   H         1 RES1   0.0000
   168 C38A     3.4631  -3.1503  -7.7419   C.ar      1 RES1   0.0000
   169 H32A     2.6991  -2.8272  -7.2792   H         1 RES1   0.0000
   170 C39A    -3.4902   1.9665  -6.9839   C.ar      1 RES1   0.0000
   171 H33A    -4.2833   2.4682  -6.8382   H         1 RES1   0.0000
   172 C40A     3.7620   3.7527  -8.2440   C.ar      1 RES1   0.0000
   173 H34A     3.7348   3.3650  -9.1103   H         1 RES1   0.0000
   174 C41A     4.4724   4.9102  -8.0353   C.ar      1 RES1   0.0000
   175 H35A     4.9505   5.3050  -8.7559   H         1 RES1   0.0000
   176 C42A     4.4996   5.5146  -6.7712   C.ar      1 RES1   0.0000
   177 H36A     4.9753   6.3258  -6.6373   H         1 RES1   0.0000
@<TRIPOS>BOND
     1     1     3    1
     2     2     5    2
     3     3     5    2
     4     4    15    1
     5     6     7    1
     6     8    24   ar
     7     9     6   ar
     8    10     9    1
     9    11    12    1
    10    13    19    1
    11    14    39    1
    12    15    16    1
    13    17    15    1
    14    18    36   ar
    15    19    20    1
    16    21    19    1
    17    22     1    1
    18    23    24   ar
    19    24     4    1
    20    25    15    1
    21    26    19    1
    22    27     1    1
    23    28    11   ar
    24    29    28    1
    25    30    27   ar
    26    31    30    1
    27    32     6   ar
    28    33    32    1
    29    34    25   ar
    30    35    34    1
    31    36    13    1
    32    37    34   ar
    33    38    37    1
    34    39     9   ar
    35    40    41    1
    36    41    13    1
    37    42    41    1
    38    43    41    1
    39    44     8   ar
    40    45    25   ar
    41    46    45    1
    42    47    14    1
    43    48    26   ar
    44    49    48    1
    45    50     4    1
    46    51    50    1
    47    52    50    1
    48    53    50    1
    49    54    55    1
    50    56    40   ar
    51    57    56    1
    52    58    47   ar
    53    59    58    1
    54    60    54   ar
    55    61    60    1
    56    62    63    1
    57    64    48   ar
    58    65    64    1
    59    66    53   ar
    60    67    66    1
    61    68    56   ar
    62    69    68    1
    63    70    11   ar
    64    71    70    1
    65    72    22   ar
    66    73    72    1
    67    74    68   ar
    68    75    74    1
    69    76    37   ar
    70    77    76    1
    71    78    74   ar
    72    79    78    1
    73    80    40   ar
    74    81    80    1
    75    82    45   ar
    76    83    82    1
    77    84    53   ar
    78    85    84    1
    79    86    84   ar
    80    87    86    1
    81    88    62   ar
    82    89    88    1
    83    90    93    2
    84    91     1    1
    85    92   103    1
    86    93    91    2
    87    94    95    1
    88    96   112   ar
    89    97    94   ar
    90    98    97    1
    91    99   100    1
    92   101   107    1
    93   102   127    1
    94   103   104    1
    95   105   103    1
    96   106   124   ar
    97   107   108    1
    98   109   107    1
    99   110     1    1
   100   111   112   ar
   101   112    92    1
   102   113   103    1
   103   114   107    1
   104   115     1    1
   105   116    99   ar
   106   117   116    1
   107   118   115   ar
   108   119   118    1
   109   120    94   ar
   110   121   120    1
   111   122   113   ar
   112   123   122    1
   113   124   101    1
   114   125   122   ar
   115   126   125    1
   116   127    97   ar
   117   128   129    1
   118   129   101    1
   119   130   129    1
   120   131   129    1
   121   132    96   ar
   122   133   113   ar
   123   134   133    1
   124   135   102    1
   125   136   114   ar
   126   137   136    1
   127   138    92    1
   128   139   138    1
   129   140   138    1
   130   141   138    1
   131   142   143    1
   132   144   128   ar
   133   145   144    1
   134   146   135   ar
   135   147   146    1
   136   148   142   ar
   137   149   148    1
   138   150   151    1
   139   152   136   ar
   140   153   152    1
   141   154   141   ar
   142   155   154    1
   143   156   144   ar
   144   157   156    1
   145   158    99   ar
   146   159   158    1
   147   160   110   ar
   148   161   160    1
   149   162   156   ar
   150   163   162    1
   151   164   125   ar
   152   165   164    1
   153   166   162   ar
   154   167   166    1
   155   168   128   ar
   156   169   168    1
   157   170   133   ar
   158   171   170    1
   159   172   141   ar
   160   173   172    1
   161   174   172   ar
   162   175   174    1
   163   176   150   ar
   164   177   176    1
   165    14    44    1
   166    18    44   ar
   167    22    47   ar
   168    23    36   ar
   169    26    28   ar
   170    27    39   ar
   171    30    32   ar
   172    54    58   ar
   173    60    72   ar
   174    62    66   ar
   175    64    70   ar
   176    76    82   ar
   177    78    80   ar
   178    86    88   ar
   179   102   132    1
   180   106   132   ar
   181   110   135   ar
   182   111   124   ar
   183   114   116   ar
   184   115   127   ar
   185   118   120   ar
   186   142   146   ar
   187   148   160   ar
   188   150   154   ar
   189   152   158   ar
   190   164   170   ar
   191   166   168   ar
   192   174   176   ar
@<TRIPOS>SUBSTRUCTURE
     1 RES1        1 GROUP             0 ****  ****    0  
@<TRIPOS>CRYSIN
   10.2520   10.4040   20.0700   98.4390   92.2440  119.1200     2     1
