@<TRIPOS>MOLECULE
NASTOS
   177   192     1     0     0
SMALL
NO_CHARGES
****
Generated from the CSD

@<TRIPOS>ATOM
     1 Fe1      0.0000  11.6700   0.0000   Fe        1 RES1   0.0000
     2 S1       1.5163  13.7214   4.0006   S.2       1 RES1   0.0000
     3 N1       4.1320  11.9102   1.7934   N.ar      1 RES1   0.0000
     4 N2       3.0175  12.2624  -0.1923   N.pl3     1 RES1   0.0000
     5 N3       4.6407  15.8994   2.1503   N.pl3     1 RES1   0.0000
     6 N4       1.5350  10.4267  -0.2645   N.ar      1 RES1   0.0000
     7 N5       4.9620  13.7923   3.0308   N.ar      1 RES1   0.0000
     8 N6       0.9863  12.9413  -1.1812   N.ar      1 RES1   0.0000
     9 C1       3.7342  12.7924   0.8863   C.ar      1 RES1   0.0000
    10 N7       3.8993  14.1135   0.8988   N.ar      1 RES1   0.0000
    11 N8       5.1701  11.6322   3.8318   N.pl3     1 RES1   0.0000
    12 C2       4.4887  14.5492   2.0301   C.ar      1 RES1   0.0000
    13 C3       5.0662  10.1793   3.6986   C.3       1 RES1   0.0000
    14 H1       5.9632   9.7795   3.8214   H         1 RES1   0.0000
    15 H2       4.7582   9.9592   2.7851   H         1 RES1   0.0000
    16 N9       0.7902  12.4582   1.6024   N.2       1 RES1   0.0000
    17 C4       1.0988  12.9852   2.6002   C.1       1 RES1   0.0000
    18 C5       4.7397  12.4687   2.8624   C.ar      1 RES1   0.0000
    19 C6       7.3344  11.8553   4.9770   C.ar      1 RES1   0.0000
    20 C7       4.1129   9.5706   4.7017   C.ar      1 RES1   0.0000
    21 C8       0.3322  13.6537  -2.1359   C.ar      1 RES1   0.0000
    22 H3      -0.6029  13.5185  -2.2413   H         1 RES1   0.0000
    23 C9       5.8501  12.0983   5.0433   C.3       1 RES1   0.0000
    24 H4       5.4776  11.6280   5.8292   H         1 RES1   0.0000
    25 H5       5.6833  13.0681   5.1599   H         1 RES1   0.0000
    26 C10      2.8071  10.8573  -0.2782   C.ar      1 RES1   0.0000
    27 C11      1.3332   9.0921  -0.4678   C.ar      1 RES1   0.0000
    28 H6       0.4408   8.7712  -0.5141   H         1 RES1   0.0000
    29 C12      3.0152  13.9977  -1.9130   C.ar      1 RES1   0.0000
    30 H7       3.9573  14.0904  -1.8257   H         1 RES1   0.0000
    31 C13      2.3225  13.1024  -1.1055   C.ar      1 RES1   0.0000
    32 C14      7.9741  11.0492   5.9115   C.ar      1 RES1   0.0000
    33 H8       7.4671  10.6197   6.5916   H         1 RES1   0.0000
    34 C15      2.3270  14.7471  -2.8390   C.ar      1 RES1   0.0000
    35 H9       2.7793  15.3787  -3.3869   H         1 RES1   0.0000
    36 C16      1.9042  16.7684   1.8041   C.ar      1 RES1   0.0000
    37 H10      2.1231  16.0953   2.4383   H         1 RES1   0.0000
    38 C17      2.8907  17.2868   0.9823   C.ar      1 RES1   0.0000
    39 C18      3.8998  10.0049  -0.4259   C.ar      1 RES1   0.0000
    40 H11      4.7854  10.3490  -0.4237   H         1 RES1   0.0000
    41 C19      4.5313   8.5683   5.5674   C.ar      1 RES1   0.0000
    42 H12      5.4400   8.2927   5.5607   H         1 RES1   0.0000
    43 C20      2.3604   8.1930  -0.6087   C.ar      1 RES1   0.0000
    44 H13      2.1781   7.2681  -0.7287   H         1 RES1   0.0000
    45 C21      0.9573  14.5607  -2.9551   C.ar      1 RES1   0.0000
    46 H14      0.4577  15.0543  -3.5947   H         1 RES1   0.0000
    47 C22      4.8893  16.5184   3.4543   C.3       1 RES1   0.0000
    48 H15      4.6598  15.8665   4.1628   H         1 RES1   0.0000
    49 H16      4.2837  17.2949   3.5569   H         1 RES1   0.0000
    50 C23      8.0929  12.4545   3.9725   C.ar      1 RES1   0.0000
    51 H17      7.6616  12.9770   3.3059   H         1 RES1   0.0000
    52 C24      6.3155  16.9873   3.6731   C.ar      1 RES1   0.0000
    53 C25      4.3262  16.7824   1.0296   C.3       1 RES1   0.0000
    54 H18      4.5172  16.2983   0.1876   H         1 RES1   0.0000
    55 H19      4.9323  17.5657   1.0687   H         1 RES1   0.0000
    56 C26      3.6417   7.9680   6.4405   C.ar      1 RES1   0.0000
    57 H20      3.9386   7.2751   7.0180   H         1 RES1   0.0000
    58 C27      7.3662  16.0752   3.6311   C.ar      1 RES1   0.0000
    59 H21      7.1859  15.1640   3.4287   H         1 RES1   0.0000
    60 C28      2.7842   9.9958   4.7524   C.ar      1 RES1   0.0000
    61 H22      2.4872  10.6967   4.1843   H         1 RES1   0.0000
    62 C29      1.9010   9.3941   5.6295   C.ar      1 RES1   0.0000
    63 H23      0.9955   9.6814   5.6551   H         1 RES1   0.0000
    64 C30      9.3493  10.8680   5.8589   C.ar      1 RES1   0.0000
    65 H24      9.7785  10.3023   6.4904   H         1 RES1   0.0000
    66 C31      2.3200   8.3760   6.4729   C.ar      1 RES1   0.0000
    67 H25      1.7056   7.9636   7.0679   H         1 RES1   0.0000
    68 C32      9.4640  12.2992   3.9334   C.ar      1 RES1   0.0000
    69 H26      9.9718  12.7296   3.2560   H         1 RES1   0.0000
    70 C33      6.5998  18.3179   3.9509   C.ar      1 RES1   0.0000
    71 H27      5.8985  18.9567   3.9846   H         1 RES1   0.0000
    72 C34      2.5549  18.2771   0.0607   C.ar      1 RES1   0.0000
    73 H28      3.2269  18.6487  -0.4993   H         1 RES1   0.0000
    74 C35      3.6694   8.6552  -0.5735   C.ar      1 RES1   0.0000
    75 H29      4.3963   8.0476  -0.6517   H         1 RES1   0.0000
    76 C36     10.0993  11.5139   4.8833   C.ar      1 RES1   0.0000
    77 H30     11.0451  11.4179   4.8671   H         1 RES1   0.0000
    78 C37      0.2687  18.2010   0.7691   C.ar      1 RES1   0.0000
    79 H31     -0.6275  18.5063   0.6922   H         1 RES1   0.0000
    80 C38      7.9205  18.7124   4.1816   C.ar      1 RES1   0.0000
    81 H32      8.1122  19.6243   4.3598   H         1 RES1   0.0000
    82 C39      0.5946  17.2254   1.7042   C.ar      1 RES1   0.0000
    83 H33     -0.0776  16.8702   2.2750   H         1 RES1   0.0000
    84 C40      1.2472  18.7245  -0.0445   C.ar      1 RES1   0.0000
    85 H34      1.0262  19.3955  -0.6801   H         1 RES1   0.0000
    86 C41      8.9442  17.7972   4.1520   C.ar      1 RES1   0.0000
    87 H35      9.8379  18.0745   4.3166   H         1 RES1   0.0000
    88 C42      8.6671  16.4722   3.8807   C.ar      1 RES1   0.0000
    89 H36      9.3706  15.8339   3.8646   H         1 RES1   0.0000
    90 S1B     -1.5163   9.6186  -4.0006   S.2       1 RES1   0.0000
    91 N1B     -4.1320  11.4298  -1.7934   N.ar      1 RES1   0.0000
    92 N2B     -3.0175  11.0776   0.1923   N.pl3     1 RES1   0.0000
    93 N3B     -4.6407   7.4406  -2.1503   N.pl3     1 RES1   0.0000
    94 N4B     -1.5350  12.9133   0.2645   N.ar      1 RES1   0.0000
    95 N5B     -4.9620   9.5477  -3.0308   N.ar      1 RES1   0.0000
    96 N6B     -0.9863  10.3987   1.1812   N.ar      1 RES1   0.0000
    97 C1B     -3.7342  10.5476  -0.8863   C.ar      1 RES1   0.0000
    98 N7B     -3.8993   9.2265  -0.8988   N.ar      1 RES1   0.0000
    99 N8B     -5.1701  11.7078  -3.8318   N.pl3     1 RES1   0.0000
   100 C2B     -4.4887   8.7908  -2.0301   C.ar      1 RES1   0.0000
   101 C3B     -5.0662  13.1607  -3.6986   C.3       1 RES1   0.0000
   102 H1B     -5.9632  13.5605  -3.8214   H         1 RES1   0.0000
   103 H2B     -4.7582  13.3808  -2.7851   H         1 RES1   0.0000
   104 N9B     -0.7902  10.8818  -1.6024   N.2       1 RES1   0.0000
   105 C4B     -1.0988  10.3548  -2.6002   C.1       1 RES1   0.0000
   106 C5B     -4.7397  10.8713  -2.8624   C.ar      1 RES1   0.0000
   107 C6B     -7.3344  11.4847  -4.9770   C.ar      1 RES1   0.0000
   108 C7B     -4.1129  13.7694  -4.7017   C.ar      1 RES1   0.0000
   109 C8B     -0.3322   9.6863   2.1359   C.ar      1 RES1   0.0000
   110 H3B      0.6029   9.8215   2.2413   H         1 RES1   0.0000
   111 C9B     -5.8501  11.2417  -5.0433   C.3       1 RES1   0.0000
   112 H4B     -5.4776  11.7120  -5.8292   H         1 RES1   0.0000
   113 H5B     -5.6833  10.2719  -5.1599   H         1 RES1   0.0000
   114 C10B    -2.8071  12.4827   0.2782   C.ar      1 RES1   0.0000
   115 C11B    -1.3332  14.2479   0.4678   C.ar      1 RES1   0.0000
   116 H6B     -0.4408  14.5688   0.5141   H         1 RES1   0.0000
   117 C12B    -3.0152   9.3423   1.9130   C.ar      1 RES1   0.0000
   118 H7B     -3.9573   9.2496   1.8257   H         1 RES1   0.0000
   119 C13B    -2.3225  10.2376   1.1055   C.ar      1 RES1   0.0000
   120 C14B    -7.9741  12.2908  -5.9115   C.ar      1 RES1   0.0000
   121 H8B     -7.4671  12.7203  -6.5916   H         1 RES1   0.0000
   122 C15B    -2.3270   8.5929   2.8390   C.ar      1 RES1   0.0000
   123 H9B     -2.7793   7.9613   3.3869   H         1 RES1   0.0000
   124 C16B    -1.9042   6.5716  -1.8041   C.ar      1 RES1   0.0000
   125 H10B    -2.1231   7.2447  -2.4383   H         1 RES1   0.0000
   126 C17B    -2.8907   6.0532  -0.9823   C.ar      1 RES1   0.0000
   127 C18B    -3.8998  13.3351   0.4259   C.ar      1 RES1   0.0000
   128 H11B    -4.7854  12.9910   0.4237   H         1 RES1   0.0000
   129 C19B    -4.5313  14.7717  -5.5674   C.ar      1 RES1   0.0000
   130 H12B    -5.4400  15.0473  -5.5607   H         1 RES1   0.0000
   131 C20B    -2.3604  15.1470   0.6087   C.ar      1 RES1   0.0000
   132 H13B    -2.1781  16.0719   0.7287   H         1 RES1   0.0000
   133 C21B    -0.9573   8.7793   2.9551   C.ar      1 RES1   0.0000
   134 H14B    -0.4577   8.2857   3.5947   H         1 RES1   0.0000
   135 C22B    -4.8893   6.8216  -3.4543   C.3       1 RES1   0.0000
   136 H15B    -4.6598   7.4735  -4.1628   H         1 RES1   0.0000
   137 H16B    -4.2837   6.0451  -3.5569   H         1 RES1   0.0000
   138 C23B    -8.0929  10.8855  -3.9725   C.ar      1 RES1   0.0000
   139 H17B    -7.6616  10.3630  -3.3059   H         1 RES1   0.0000
   140 C24B    -6.3155   6.3527  -3.6731   C.ar      1 RES1   0.0000
   141 C25B    -4.3262   6.5576  -1.0296   C.3       1 RES1   0.0000
   142 H18B    -4.5172   7.0417  -0.1876   H         1 RES1   0.0000
   143 H19B    -4.9323   5.7743  -1.0687   H         1 RES1   0.0000
   144 C26B    -3.6417  15.3720  -6.4405   C.ar      1 RES1   0.0000
   145 H20B    -3.9386  16.0649  -7.0180   H         1 RES1   0.0000
   146 C27B    -7.3662   7.2648  -3.6311   C.ar      1 RES1   0.0000
   147 H21B    -7.1859   8.1760  -3.4287   H         1 RES1   0.0000
   148 C28B    -2.7842  13.3442  -4.7524   C.ar      1 RES1   0.0000
   149 H22B    -2.4872  12.6433  -4.1843   H         1 RES1   0.0000
   150 C29B    -1.9010  13.9459  -5.6295   C.ar      1 RES1   0.0000
   151 H23B    -0.9955  13.6586  -5.6551   H         1 RES1   0.0000
   152 C30B    -9.3493  12.4720  -5.8589   C.ar      1 RES1   0.0000
   153 H24B    -9.7785  13.0377  -6.4904   H         1 RES1   0.0000
   154 C31B    -2.3200  14.9640  -6.4729   C.ar      1 RES1   0.0000
   155 H25B    -1.7056  15.3764  -7.0679   H         1 RES1   0.0000
   156 C32B    -9.4640  11.0408  -3.9334   C.ar      1 RES1   0.0000
   157 H26B    -9.9718  10.6104  -3.2560   H         1 RES1   0.0000
   158 C33B    -6.5998   5.0221  -3.9509   C.ar      1 RES1   0.0000
   159 H27B    -5.8985   4.3833  -3.9846   H         1 RES1   0.0000
   160 C34B    -2.5549   5.0629  -0.0607   C.ar      1 RES1   0.0000
   161 H28B    -3.2269   4.6913   0.4993   H         1 RES1   0.0000
   162 C35B    -3.6694  14.6848   0.5735   C.ar      1 RES1   0.0000
   163 H29B    -4.3963  15.2924   0.6517   H         1 RES1   0.0000
   164 C36B   -10.0993  11.8261  -4.8833   C.ar      1 RES1   0.0000
   165 H30B   -11.0451  11.9221  -4.8671   H         1 RES1   0.0000
   166 C37B    -0.2687   5.1390  -0.7691   C.ar      1 RES1   0.0000
   167 H31B     0.6275   4.8337  -0.6922   H         1 RES1   0.0000
   168 C38B    -7.9205   4.6276  -4.1816   C.ar      1 RES1   0.0000
   169 H32B    -8.1122   3.7157  -4.3598   H         1 RES1   0.0000
   170 C39B    -0.5946   6.1146  -1.7042   C.ar      1 RES1   0.0000
   171 H33B     0.0776   6.4698  -2.2750   H         1 RES1   0.0000
   172 C40B    -1.2472   4.6155   0.0445   C.ar      1 RES1   0.0000
   173 H34B    -1.0262   3.9445   0.6801   H         1 RES1   0.0000
   174 C41B    -8.9442   5.5428  -4.1520   C.ar      1 RES1   0.0000
   175 H35B    -9.8379   5.2655  -4.3166   H         1 RES1   0.0000
   176 C42B    -8.6671   6.8678  -3.8807   C.ar      1 RES1   0.0000
   177 H36B    -9.3706   7.5061  -3.8646   H         1 RES1   0.0000
@<TRIPOS>BOND
     1     1     6    1
     2     2    17    2
     3     3     9   ar
     4     4     9    1
     5     5    12    1
     6     6    26   ar
     7     7    12   ar
     8     8     1    1
     9     9    10   ar
    10    10    12   ar
    11    11    13    1
    12    13    14    1
    13    15    13    1
    14    16     1    1
    15    17    16    2
    16    18     3   ar
    17    19    23    1
    18    20    13    1
    19    21     8   ar
    20    22    21    1
    21    23    11    1
    22    24    23    1
    23    25    23    1
    24    26     4    1
    25    27     6   ar
    26    28    27    1
    27    29    30    1
    28    31     4    1
    29    32    19   ar
    30    33    32    1
    31    34    29   ar
    32    35    34    1
    33    36    37    1
    34    38    36   ar
    35    39    26   ar
    36    40    39    1
    37    41    20   ar
    38    42    41    1
    39    43    27   ar
    40    44    43    1
    41    45    21   ar
    42    46    45    1
    43    47     5    1
    44    48    47    1
    45    49    47    1
    46    50    19   ar
    47    51    50    1
    48    52    47    1
    49    53     5    1
    50    54    53    1
    51    55    53    1
    52    56    41   ar
    53    57    56    1
    54    58    52   ar
    55    59    58    1
    56    60    20   ar
    57    61    60    1
    58    62    60   ar
    59    63    62    1
    60    64    32   ar
    61    65    64    1
    62    66    56   ar
    63    67    66    1
    64    68    50   ar
    65    69    68    1
    66    70    52   ar
    67    71    70    1
    68    72    38   ar
    69    73    72    1
    70    74    39   ar
    71    75    74    1
    72    76    64   ar
    73    77    76    1
    74    78    79    1
    75    80    70   ar
    76    81    80    1
    77    82    36   ar
    78    83    82    1
    79    84    72   ar
    80    85    84    1
    81    86    80   ar
    82    87    86    1
    83    88    58   ar
    84    89    88    1
    85    90   105    2
    86    91    97   ar
    87    92    97    1
    88    93   100    1
    89    94     1    1
    90    95   100   ar
    91    96     1    1
    92    97    98   ar
    93    98   100   ar
    94    99   101    1
    95   101   102    1
    96   103   101    1
    97   104     1    1
    98   105   104    2
    99   106    91   ar
   100   107   111    1
   101   108   101    1
   102   109    96   ar
   103   110   109    1
   104   111    99    1
   105   112   111    1
   106   113   111    1
   107   114    92    1
   108   115    94   ar
   109   116   115    1
   110   117   118    1
   111   119    92    1
   112   120   107   ar
   113   121   120    1
   114   122   117   ar
   115   123   122    1
   116   124   125    1
   117   126   124   ar
   118   127   114   ar
   119   128   127    1
   120   129   108   ar
   121   130   129    1
   122   131   115   ar
   123   132   131    1
   124   133   109   ar
   125   134   133    1
   126   135    93    1
   127   136   135    1
   128   137   135    1
   129   138   107   ar
   130   139   138    1
   131   140   135    1
   132   141    93    1
   133   142   141    1
   134   143   141    1
   135   144   129   ar
   136   145   144    1
   137   146   140   ar
   138   147   146    1
   139   148   108   ar
   140   149   148    1
   141   150   148   ar
   142   151   150    1
   143   152   120   ar
   144   153   152    1
   145   154   144   ar
   146   155   154    1
   147   156   138   ar
   148   157   156    1
   149   158   140   ar
   150   159   158    1
   151   160   126   ar
   152   161   160    1
   153   162   127   ar
   154   163   162    1
   155   164   152   ar
   156   165   164    1
   157   166   167    1
   158   168   158   ar
   159   169   168    1
   160   170   124   ar
   161   171   170    1
   162   172   160   ar
   163   173   172    1
   164   174   168   ar
   165   175   174    1
   166   176   146   ar
   167   177   176    1
   168     7    18   ar
   169     8    31   ar
   170    11    18    1
   171    29    31   ar
   172    34    45   ar
   173    38    53    1
   174    43    74   ar
   175    62    66   ar
   176    68    76   ar
   177    78    82   ar
   178    78    84   ar
   179    86    88   ar
   180    94   114   ar
   181    95   106   ar
   182    96   119   ar
   183    99   106    1
   184   117   119   ar
   185   122   133   ar
   186   126   141    1
   187   131   162   ar
   188   150   154   ar
   189   156   164   ar
   190   166   170   ar
   191   166   172   ar
   192   174   176   ar
@<TRIPOS>SUBSTRUCTURE
     1 RES1        1 GROUP             0 ****  ****    0  
@<TRIPOS>CRYSIN
   11.5350   23.3400   13.6160   90.0000   97.6900   90.0000    14     1
