@<TRIPOS>MOLECULE
NASVUA
   139   149     2     0     0
SMALL
NO_CHARGES
****
Generated from the CSD

@<TRIPOS>ATOM
     1 Fe1      8.9577   1.3516   7.5597   Fe        1 RES1   0.0000
     2 Se1      6.9285  -0.7253  11.4959   Se        1 RES1   0.0000
     3 N1       8.2666   0.4973   9.1602   N.2       1 RES1   0.0000
     4 C1       7.7381   0.0210  10.0773   C.1       1 RES1   0.0000
     5 C2       6.8712   5.0521   7.9024   C.ar      1 RES1   0.0000
     6 H1       6.3092   5.5651   7.3329   H         1 RES1   0.0000
     7 N2       8.1927   3.0677   8.2316   N.ar      1 RES1   0.0000
     8 C3       8.4304   3.4895   9.4983   C.ar      1 RES1   0.0000
     9 H2       8.9447   2.9356  10.0740   H         1 RES1   0.0000
    10 C4       7.9576   4.6890   9.9863   C.ar      1 RES1   0.0000
    11 H3       8.1626   4.9607  10.8738   H         1 RES1   0.0000
    12 C5       7.3994   3.8381   7.4723   C.ar      1 RES1   0.0000
    13 Cl1      8.6054   7.4694   4.0842   Cl        1 RES1   0.0000
    14 N3       7.0515   3.3188   6.1970   N.pl3     1 RES1   0.0000
    15 N4       7.1914   1.0282   6.7257   N.ar      1 RES1   0.0000
    16 C6       7.1791   5.4957   9.1696   C.ar      1 RES1   0.0000
    17 H4       6.8646   6.3377   9.4783   H         1 RES1   0.0000
    18 C7       6.6091  -0.1932   6.7833   C.ar      1 RES1   0.0000
    19 H5       7.0805  -0.8975   7.2119   H         1 RES1   0.0000
    20 N5       7.8023   5.2665   5.1787   N.ar      1 RES1   0.0000
    21 N6       7.0484   3.3929   3.8966   N.ar      1 RES1   0.0000
    22 C8       6.4813   2.0171   6.1613   C.ar      1 RES1   0.0000
    23 C9       5.2155   1.8290   5.6257   C.ar      1 RES1   0.0000
    24 H6       4.7406   2.5573   5.2434   H         1 RES1   0.0000
    25 C10      7.2980   4.0271   5.0303   C.ar      1 RES1   0.0000
    26 C11      7.4013   4.0692   2.7789   C.ar      1 RES1   0.0000
    27 C12      5.3709  -0.4662   6.2527   C.ar      1 RES1   0.0000
    28 H7       5.0102  -1.3444   6.2927   H         1 RES1   0.0000
    29 C13      4.6577   0.5678   5.6567   C.ar      1 RES1   0.0000
    30 H8       3.8014   0.4090   5.2782   H         1 RES1   0.0000
    31 N7       7.8638   5.3525   2.7901   N.ar      1 RES1   0.0000
    32 N8       7.2922   3.4462   1.5924   N.pl3     1 RES1   0.0000
    33 C14      8.0221   5.8249   3.9992   C.ar      1 RES1   0.0000
    34 C15      7.0351   1.9881   1.5033   C.3       1 RES1   0.0000
    35 H10      7.1524   1.7530   0.5382   H         1 RES1   0.0000
    36 C16      7.7411   4.1250   0.3579   C.3       1 RES1   0.0000
    37 H11      7.7832   5.1031   0.5609   H         1 RES1   0.0000
    38 C17      9.1481   3.6883  -0.0313   C.3       1 RES1   0.0000
    39 H12      9.1514   2.7193  -0.2328   H         1 RES1   0.0000
    40 H13      9.7665   3.8468   0.7257   H         1 RES1   0.0000
    41 C18      8.6753   4.2725  -2.4263   C.3       1 RES1   0.0000
    42 H14      8.9854   4.8100  -3.1977   H         1 RES1   0.0000
    43 H15      8.6726   3.3203  -2.6958   H         1 RES1   0.0000
    44 C19      9.6264   4.4674  -1.2554   C.3       1 RES1   0.0000
    45 H16      9.6817   5.4302  -1.0326   H         1 RES1   0.0000
    46 H17     10.5317   4.1588  -1.5104   H         1 RES1   0.0000
    47 C20      8.0652   1.1441   2.2623   C.3       1 RES1   0.0000
    48 H18      8.9800   1.3989   1.9806   H         1 RES1   0.0000
    49 H19      7.9838   1.3113   3.2340   H         1 RES1   0.0000
    50 C21      6.7622   3.9501  -0.8065   C.3       1 RES1   0.0000
    51 H20      5.8734   4.3008  -0.5473   H         1 RES1   0.0000
    52 H21      6.6643   2.9873  -1.0160   H         1 RES1   0.0000
    53 C22      7.2676   4.6962  -2.0459   C.3       1 RES1   0.0000
    54 H22      6.6579   4.5193  -2.8046   H         1 RES1   0.0000
    55 H23      7.2573   5.6700  -1.8672   H         1 RES1   0.0000
    56 C23      7.8297  -0.3385   1.9719   C.3       1 RES1   0.0000
    57 H24      7.9834  -0.5144   1.0100   H         1 RES1   0.0000
    58 H25      8.4747  -0.8831   2.4902   H         1 RES1   0.0000
    59 C24      5.6045   1.6036   1.8468   C.3       1 RES1   0.0000
    60 H26      4.9763   2.1203   1.2821   H         1 RES1   0.0000
    61 H27      5.4195   1.8212   2.7941   H         1 RES1   0.0000
    62 C25      5.3941   0.0998   1.6116   C.3       1 RES1   0.0000
    63 H28      4.4884  -0.1533   1.9202   H         1 RES1   0.0000
    64 H29      5.4476  -0.0883   0.6411   H         1 RES1   0.0000
    65 C26      6.4214  -0.7420   2.3391   C.3       1 RES1   0.0000
    66 H30      6.2954  -0.6414   3.3157   H         1 RES1   0.0000
    67 H31      6.2834  -1.6964   2.1107   H         1 RES1   0.0000
    68 Se1A    10.9870   3.4285   3.6234   Se        1 RES1   0.0000
    69 N1A      9.6489   2.2059   5.9591   N.2       1 RES1   0.0000
    70 C1A     10.1774   2.6822   5.0420   C.1       1 RES1   0.0000
    71 C2A     11.0443  -2.3488   7.2169   C.ar      1 RES1   0.0000
    72 H1A     11.6063  -2.8619   7.7865   H         1 RES1   0.0000
    73 N2A      9.7228  -0.3644   6.8878   N.ar      1 RES1   0.0000
    74 C3A      9.4851  -0.7863   5.6211   C.ar      1 RES1   0.0000
    75 H2A      8.9708  -0.2323   5.0453   H         1 RES1   0.0000
    76 C4A      9.9579  -1.9858   5.1330   C.ar      1 RES1   0.0000
    77 H3A      9.7529  -2.2574   4.2455   H         1 RES1   0.0000
    78 C5A     10.5161  -1.1348   7.6471   C.ar      1 RES1   0.0000
    79 Cl1A     9.3101  -4.7662  11.0351   Cl        1 RES1   0.0000
    80 N3A     10.8640  -0.6156   8.9224   N.pl3     1 RES1   0.0000
    81 N4A     10.7241   1.6750   8.3936   N.ar      1 RES1   0.0000
    82 C6A     10.7364  -2.7924   5.9498   C.ar      1 RES1   0.0000
    83 H4A     11.0509  -3.6344   5.6410   H         1 RES1   0.0000
    84 C7A     11.3064   2.8964   8.3360   C.ar      1 RES1   0.0000
    85 H5A     10.8350   3.6008   7.9074   H         1 RES1   0.0000
    86 N5A     10.1132  -2.5632   9.9407   N.ar      1 RES1   0.0000
    87 N6A     10.8671  -0.6897  11.2228   N.ar      1 RES1   0.0000
    88 C8A     11.4342   0.6862   8.9580   C.ar      1 RES1   0.0000
    89 C9A     12.7000   0.8743   9.4936   C.ar      1 RES1   0.0000
    90 H6A     13.1749   0.1460   9.8759   H         1 RES1   0.0000
    91 C10A    10.6175  -1.3238  10.0890   C.ar      1 RES1   0.0000
    92 C11A    10.5142  -1.3660  12.3404   C.ar      1 RES1   0.0000
    93 C12A    12.5446   3.1694   8.8666   C.ar      1 RES1   0.0000
    94 H7A     12.9053   4.0476   8.8267   H         1 RES1   0.0000
    95 C13A    13.2578   2.1354   9.4626   C.ar      1 RES1   0.0000
    96 H8A     14.1141   2.2942   9.8412   H         1 RES1   0.0000
    97 N7A     10.0517  -2.6492  12.3292   N.ar      1 RES1   0.0000
    98 N8A     10.6233  -0.7430  13.5270   N.pl3     1 RES1   0.0000
    99 C14A     9.8934  -3.1217  11.1201   C.ar      1 RES1   0.0000
   100 C15A    10.8804   0.7151  13.6160   C.3       1 RES1   0.0000
   101 H10A    10.7630   0.9502  14.5811   H         1 RES1   0.0000
   102 C16A    10.1744  -1.4217  14.7614   C.3       1 RES1   0.0000
   103 H11A    10.1323  -2.3999  14.5584   H         1 RES1   0.0000
   104 C17A     8.7674  -0.9851  15.1506   C.3       1 RES1   0.0000
   105 H12A     8.7641  -0.0160  15.3522   H         1 RES1   0.0000
   106 H13A     8.1489  -1.1436  14.3936   H         1 RES1   0.0000
   107 C18A     9.2402  -1.5693  17.5457   C.3       1 RES1   0.0000
   108 H14A     8.9301  -2.1067  18.3171   H         1 RES1   0.0000
   109 H15A     9.2429  -0.6171  17.8151   H         1 RES1   0.0000
   110 C19A     8.2891  -1.7642  16.3747   C.3       1 RES1   0.0000
   111 H16A     8.2338  -2.7270  16.1520   H         1 RES1   0.0000
   112 H17A     7.3838  -1.4556  16.6297   H         1 RES1   0.0000
   113 C20A     9.8503   1.5591  12.8570   C.3       1 RES1   0.0000
   114 H18A     8.9355   1.3044  13.1387   H         1 RES1   0.0000
   115 H19A     9.9317   1.3919  11.8853   H         1 RES1   0.0000
   116 C21A    11.1533  -1.2469  15.9258   C.3       1 RES1   0.0000
   117 H20A    12.0421  -1.5975  15.6666   H         1 RES1   0.0000
   118 H21A    11.2512  -0.2840  16.1353   H         1 RES1   0.0000
   119 C22A    10.6479  -1.9930  17.1653   C.3       1 RES1   0.0000
   120 H22A    11.2576  -1.8161  17.9240   H         1 RES1   0.0000
   121 H23A    10.6582  -2.9668  16.9866   H         1 RES1   0.0000
   122 C23A    10.0858   3.0417  13.1475   C.3       1 RES1   0.0000
   123 H24A     9.9321   3.2177  14.1094   H         1 RES1   0.0000
   124 H25A     9.4408   3.5863  12.6292   H         1 RES1   0.0000
   125 C24A    12.3110   1.0996  13.2725   C.3       1 RES1   0.0000
   126 H26A    12.9392   0.5829  13.8372   H         1 RES1   0.0000
   127 H27A    12.4960   0.8821  12.3253   H         1 RES1   0.0000
   128 C25A    12.5214   2.6034  13.5078   C.3       1 RES1   0.0000
   129 H28A    13.4271   2.8565  13.1992   H         1 RES1   0.0000
   130 H29A    12.4678   2.7915  14.4783   H         1 RES1   0.0000
   131 C26A    11.4941   3.4452  12.7802   C.3       1 RES1   0.0000
   132 H30A    11.6201   3.3446  11.8037   H         1 RES1   0.0000
   133 H31A    11.6321   4.3996  13.0087   H         1 RES1   0.0000
   134 O1       4.2066   5.3685   5.8488   O.3       2 RES2   0.0000
   135 H9       3.9009   4.8977   5.2237   H         2 RES2   0.0000
   136 C27      3.1624   6.1174   6.4280   C.3       2 RES2   0.0000
   137 H32      3.4133   6.3777   7.3389   H         2 RES2   0.0000
   138 H33      2.3476   5.5731   6.4560   H         2 RES2   0.0000
   139 H34      2.9993   6.9203   5.8905   H         2 RES2   0.0000
@<TRIPOS>BOND
     1     1     3    1
     2     2     4    2
     3     3     4    2
     4     5     6    1
     5     7     1    1
     6     8     7   ar
     7     9     8    1
     8    10     8   ar
     9    11    10    1
    10    12     5   ar
    11    13    33    1
    12    14    12    1
    13    15     1    1
    14    16     5   ar
    15    17    16    1
    16    18    15   ar
    17    19    18    1
    18    20    25   ar
    19    21    25   ar
    20    22    14    1
    21    23    22   ar
    22    24    23    1
    23    25    14    1
    24    26    21   ar
    25    27    18   ar
    26    28    27    1
    27    29    23   ar
    28    30    29    1
    29    31    26   ar
    30    32    26    1
    31    33    20   ar
    32    34    32    1
    33    35    34    1
    34    36    32    1
    35    37    36    1
    36    38    36    1
    37    39    38    1
    38    40    38    1
    39    41    42    1
    40    43    41    1
    41    44    38    1
    42    45    44    1
    43    46    44    1
    44    47    34    1
    45    48    47    1
    46    49    47    1
    47    50    36    1
    48    51    50    1
    49    52    50    1
    50    53    41    1
    51    54    53    1
    52    55    53    1
    53    56    47    1
    54    57    56    1
    55    58    56    1
    56    59    34    1
    57    60    59    1
    58    61    59    1
    59    62    59    1
    60    63    62    1
    61    64    62    1
    62    65    56    1
    63    66    65    1
    64    67    65    1
    65    68    70    2
    66    69     1    1
    67    70    69    2
    68    71    72    1
    69    73     1    1
    70    74    73   ar
    71    75    74    1
    72    76    74   ar
    73    77    76    1
    74    78    71   ar
    75    79    99    1
    76    80    78    1
    77    81     1    1
    78    82    71   ar
    79    83    82    1
    80    84    81   ar
    81    85    84    1
    82    86    91   ar
    83    87    91   ar
    84    88    80    1
    85    89    88   ar
    86    90    89    1
    87    91    80    1
    88    92    87   ar
    89    93    84   ar
    90    94    93    1
    91    95    89   ar
    92    96    95    1
    93    97    92   ar
    94    98    92    1
    95    99    86   ar
    96   100    98    1
    97   101   100    1
    98   102    98    1
    99   103   102    1
   100   104   102    1
   101   105   104    1
   102   106   104    1
   103   107   108    1
   104   109   107    1
   105   110   104    1
   106   111   110    1
   107   112   110    1
   108   113   100    1
   109   114   113    1
   110   115   113    1
   111   116   102    1
   112   117   116    1
   113   118   116    1
   114   119   107    1
   115   120   119    1
   116   121   119    1
   117   122   113    1
   118   123   122    1
   119   124   122    1
   120   125   100    1
   121   126   125    1
   122   127   125    1
   123   128   125    1
   124   129   128    1
   125   130   128    1
   126   131   122    1
   127   132   131    1
   128   133   131    1
   129     7    12   ar
   130    10    16   ar
   131    15    22   ar
   132    27    29   ar
   133    31    33   ar
   134    41    44    1
   135    50    53    1
   136    62    65    1
   137    73    78   ar
   138    76    82   ar
   139    81    88   ar
   140    93    95   ar
   141    97    99   ar
   142   107   110    1
   143   116   119    1
   144   128   131    1
   145   134   135    1
   146   136   134    1
   147   137   136    1
   148   138   136    1
   149   139   136    1
@<TRIPOS>SUBSTRUCTURE
     1 RES1        1 GROUP             0 ****  ****    0  
     2 RES2      134 GROUP             0 ****  ****    0  
@<TRIPOS>CRYSIN
    8.5210   11.7421   15.3839   79.3590   86.7450   72.6780     2     1
