@<TRIPOS>MOLECULE
NASWEL
   163   176     3     0     0
SMALL
NO_CHARGES
****
Generated from the CSD

@<TRIPOS>ATOM
     1 Fe1      7.2346   6.4465   9.3161   Fe        1 RES1   0.0000
     2 Se1      6.5108   2.9064   5.8798   Se        1 RES1   0.0000
     3 N1      10.1514   3.5969   6.6899   N.ar      1 RES1   0.0000
     4 N2       6.8281   5.0002   7.9274   N.2       1 RES1   0.0000
     5 C1       6.6939   4.1856   7.1249   C.1       1 RES1   0.0000
     6 N3       9.9095   2.9589   4.4000   N.ar      1 RES1   0.0000
     7 N4       9.3013   5.1688   5.1054   N.ar      1 RES1   0.0000
     8 N5       9.6112   5.7388   7.3375   N.pl3     1 RES1   0.0000
     9 C2       9.4101   4.1932   4.1866   C.ar      1 RES1   0.0000
    10 C3      10.2333   2.7260   5.6660   C.ar      1 RES1   0.0000
    11 C4       9.8615   7.8262   6.1039   C.ar      1 RES1   0.0000
    12 H1      10.5030   7.4208   5.5338   H         1 RES1   0.0000
    13 N6       8.9901   4.4602   2.9267   N.pl3     1 RES1   0.0000
    14 C5      11.9734   0.3588   9.3273   C.ar      1 RES1   0.0000
    15 H2      11.7364  -0.2581  10.0111   H         1 RES1   0.0000
    16 C6      11.2959   4.9138   8.8838   C.ar      1 RES1   0.0000
    17 H3      11.8993   4.7764   8.1628   H         1 RES1   0.0000
    18 C7      10.5119   0.3215   5.1965   C.ar      1 RES1   0.0000
    19 N7       9.1409   5.6352   9.6444   N.ar      1 RES1   0.0000
    20 N8       8.2680   7.5796   7.8801   N.ar      1 RES1   0.0000
    21 C8       8.0129   8.9072   7.7566   C.ar      1 RES1   0.0000
    22 H4       7.3730   9.2947   8.3416   H         1 RES1   0.0000
    23 C9      11.6717   4.6197  10.1806   C.ar      1 RES1   0.0000
    24 H5      12.5277   4.2490  10.3576   H         1 RES1   0.0000
    25 C10      9.5647   5.3819  10.9110   C.ar      1 RES1   0.0000
    26 H6       8.9712   5.5740  11.6283   H         1 RES1   0.0000
    27 C11      9.5594   9.1646   5.9809   C.ar      1 RES1   0.0000
    28 H7       9.9855   9.7002   5.3232   H         1 RES1   0.0000
    29 C12     11.5359   1.3615   7.1939   C.ar      1 RES1   0.0000
    30 C13      7.3378   5.8623   1.8185   C.ar      1 RES1   0.0000
    31 H8       6.8187   5.0858   1.6508   H         1 RES1   0.0000
    32 C14      8.6176   9.7151   6.8436   C.ar      1 RES1   0.0000
    33 H9       8.3990  10.6380   6.7970   H         1 RES1   0.0000
    34 N9      10.7263   1.4789   6.0051   N.pl3     1 RES1   0.0000
    35 C15     12.6739   2.1431   7.3299   C.ar      1 RES1   0.0000
    36 H10     12.9291   2.7407   6.6386   H         1 RES1   0.0000
    37 C16     11.1956   0.4461   8.1777   C.ar      1 RES1   0.0000
    38 H11     10.4377  -0.1167   8.0677   H         1 RES1   0.0000
    39 C17      9.3124   6.8986   2.7296   C.ar      1 RES1   0.0000
    40 H12     10.1503   6.8296   3.1712   H         1 RES1   0.0000
    41 C18      9.7109   4.7884   6.3070   C.ar      1 RES1   0.0000
    42 C19      6.8964   7.1101   1.3900   C.ar      1 RES1   0.0000
    43 H13      6.0776   7.1871   0.9148   H         1 RES1   0.0000
    44 C20     13.4330   2.0452   8.4814   C.ar      1 RES1   0.0000
    45 H14     14.2030   2.5931   8.5838   H         1 RES1   0.0000
    46 C21      9.1456  -0.9841   3.7153   C.ar      1 RES1   0.0000
    47 H15      8.3378  -1.0961   3.2290   H         1 RES1   0.0000
    48 C22     10.1395  -1.9484   3.6240   C.ar      1 RES1   0.0000
    49 H16     10.0118  -2.7186   3.0818   H         1 RES1   0.0000
    50 C23      8.5447   5.7639   2.4967   C.ar      1 RES1   0.0000
    51 C24     10.0280   5.4127   8.6565   C.ar      1 RES1   0.0000
    52 C25     11.3089  -1.7790   4.3227   C.ar      1 RES1   0.0000
    53 H17     11.9908  -2.4374   4.2649   H         1 RES1   0.0000
    54 C26     13.0844   1.1601   9.4856   C.ar      1 RES1   0.0000
    55 H18     13.6066   1.1046  10.2756   H         1 RES1   0.0000
    56 C27      9.3159   0.1335   4.5053   C.ar      1 RES1   0.0000
    57 H19      8.6197   0.7752   4.5779   H         1 RES1   0.0000
    58 C28     11.5007  -0.6539   5.1127   C.ar      1 RES1   0.0000
    59 H20     12.3108  -0.5494   5.5990   H         1 RES1   0.0000
    60 C29     10.7904   4.8690  11.2147   C.ar      1 RES1   0.0000
    61 H21     11.0333   4.6877  12.1146   H         1 RES1   0.0000
    62 C30      8.8412   8.1293   2.3123   C.ar      1 RES1   0.0000
    63 H22      9.3543   8.9099   2.4874   H         1 RES1   0.0000
    64 C31      7.6497   8.2406   1.6527   C.ar      1 RES1   0.0000
    65 H23      7.3389   9.0942   1.3751   H         1 RES1   0.0000
    66 C32      9.2140   7.0811   7.0765   C.ar      1 RES1   0.0000
    67 C33      8.8523   3.3775   1.9676   C.ar      1 RES1   0.0000
    68 C34      7.8204   2.4761   2.1185   C.ar      1 RES1   0.0000
    69 H24      7.2252   2.5420   2.8563   H         1 RES1   0.0000
    70 C35      9.7156   3.3095   0.9055   C.ar      1 RES1   0.0000
    71 H25     10.4153   3.9457   0.8142   H         1 RES1   0.0000
    72 C36      7.6684   1.4714   1.1720   C.ar      1 RES1   0.0000
    73 H26      6.9649   0.8385   1.2633   H         1 RES1   0.0000
    74 C37      9.5532   2.2982  -0.0335   C.ar      1 RES1   0.0000
    75 H27     10.1509   2.2368  -0.7695   H         1 RES1   0.0000
    76 C40      8.5339   1.3882   0.0988   C.ar      1 RES1   0.0000
    77 H32      8.4245   0.7004  -0.5459   H         1 RES1   0.0000
    78 Se1A     7.9584   9.9865  12.7524   Se        1 RES1   0.0000
    79 N1A      4.3178   9.2960  11.9423   N.ar      1 RES1   0.0000
    80 N2A      7.6411   7.8927  10.7047   N.2       1 RES1   0.0000
    81 C1A      7.7753   8.7073  11.5072   C.1       1 RES1   0.0000
    82 N3A      4.5597   9.9341  14.2322   N.ar      1 RES1   0.0000
    83 N4A      5.1679   7.7241  13.5268   N.ar      1 RES1   0.0000
    84 N5A      4.8581   7.1541  11.2946   N.pl3     1 RES1   0.0000
    85 C2A      5.0591   8.6997  14.4455   C.ar      1 RES1   0.0000
    86 C3A      4.2360  10.1669  12.9661   C.ar      1 RES1   0.0000
    87 C4A      4.6077   5.0668  12.5283   C.ar      1 RES1   0.0000
    88 H1A      3.9662   5.4721  13.0984   H         1 RES1   0.0000
    89 N6A      5.4791   8.4328  15.7054   N.pl3     1 RES1   0.0000
    90 C5A      2.4959  12.5342   9.3049   C.ar      1 RES1   0.0000
    91 H2A      2.7328  13.1510   8.6211   H         1 RES1   0.0000
    92 C6A      3.1733   7.9791   9.7484   C.ar      1 RES1   0.0000
    93 H3A      2.5700   8.1165  10.4694   H         1 RES1   0.0000
    94 C7A      3.9573  12.5714  13.4357   C.ar      1 RES1   0.0000
    95 N7A      5.3283   7.2577   8.9878   N.ar      1 RES1   0.0000
    96 N8A      6.2012   5.3133  10.7521   N.ar      1 RES1   0.0000
    97 C8A      6.4563   3.9858  10.8756   C.ar      1 RES1   0.0000
    98 H4A      7.0963   3.5982  10.2905   H         1 RES1   0.0000
    99 C9A      2.7976   8.2732   8.4516   C.ar      1 RES1   0.0000
   100 H5A      1.9416   8.6440   8.2745   H         1 RES1   0.0000
   101 C10A     4.9045   7.5110   7.7212   C.ar      1 RES1   0.0000
   102 H6A      5.4980   7.3189   7.0038   H         1 RES1   0.0000
   103 C11A     4.9098   3.7284  12.6512   C.ar      1 RES1   0.0000
   104 H7A      4.4837   3.1928  13.3090   H         1 RES1   0.0000
   105 C12A     2.9333  11.5314  11.4383   C.ar      1 RES1   0.0000
   106 C13A     7.1314   7.0306  16.8137   C.ar      1 RES1   0.0000
   107 H8A      7.6505   7.8071  16.9814   H         1 RES1   0.0000
   108 C14A     5.8517   3.1778  11.7886   C.ar      1 RES1   0.0000
   109 H9A      6.0702   2.2550  11.8352   H         1 RES1   0.0000
   110 N9A      3.7429  11.4140  12.6270   N.pl3     1 RES1   0.0000
   111 C15A     1.7954  10.7499  11.3023   C.ar      1 RES1   0.0000
   112 H10A     1.5401  10.1522  11.9935   H         1 RES1   0.0000
   113 C16A     3.2736  12.4469  10.4545   C.ar      1 RES1   0.0000
   114 H11A     4.0316  13.0097  10.5644   H         1 RES1   0.0000
   115 C17A     5.1569   5.9944  15.9026   C.ar      1 RES1   0.0000
   116 H12A     4.3189   6.0633  15.4610   H         1 RES1   0.0000
   117 C18A     4.7583   8.1045  12.3252   C.ar      1 RES1   0.0000
   118 C19A     7.5728   5.7828  17.2422   C.ar      1 RES1   0.0000
   119 H13A     8.3916   5.7058  17.7173   H         1 RES1   0.0000
   120 C20A     1.0362  10.8477  10.1508   C.ar      1 RES1   0.0000
   121 H14A     0.2662  10.2998  10.0483   H         1 RES1   0.0000
   122 C21A     5.3237  13.8770  14.9169   C.ar      1 RES1   0.0000
   123 H15A     6.1315  13.9891  15.4032   H         1 RES1   0.0000
   124 C22A     4.3297  14.8414  15.0082   C.ar      1 RES1   0.0000
   125 H16A     4.4574  15.6115  15.5504   H         1 RES1   0.0000
   126 C23A     5.9245   7.1290  16.1355   C.ar      1 RES1   0.0000
   127 C24A     4.4412   7.4803   9.9757   C.ar      1 RES1   0.0000
   128 C25A     3.1603  14.6719  14.3095   C.ar      1 RES1   0.0000
   129 H17A     2.4785  15.3303  14.3673   H         1 RES1   0.0000
   130 C26A     1.3849  11.7328   9.1465   C.ar      1 RES1   0.0000
   131 H18A     0.8626  11.7883   8.3565   H         1 RES1   0.0000
   132 C27A     5.1534  12.7595  14.1269   C.ar      1 RES1   0.0000
   133 H19A     5.8495  12.1178  14.0542   H         1 RES1   0.0000
   134 C28A     2.9686  13.5468  13.5195   C.ar      1 RES1   0.0000
   135 H20A     2.1584  13.4423  13.0332   H         1 RES1   0.0000
   136 C29A     3.6788   8.0239   7.4175   C.ar      1 RES1   0.0000
   137 H21A     3.4359   8.2052   6.5175   H         1 RES1   0.0000
   138 C30A     5.6281   4.7636  16.3199   C.ar      1 RES1   0.0000
   139 H22A     5.1150   3.9830  16.1448   H         1 RES1   0.0000
   140 C31A     6.8196   4.6524  16.9795   C.ar      1 RES1   0.0000
   141 H23A     7.1303   3.7987  17.2571   H         1 RES1   0.0000
   142 C32A     5.2552   5.8118  11.5557   C.ar      1 RES1   0.0000
   143 C33A     5.6169   9.5154  16.6646   C.ar      1 RES1   0.0000
   144 C34A     6.6488  10.4168  16.5137   C.ar      1 RES1   0.0000
   145 H24A     7.2440  10.3509  15.7759   H         1 RES1   0.0000
   146 C35A     4.7536   9.5834  17.7266   C.ar      1 RES1   0.0000
   147 H25A     4.0539   8.9472  17.8179   H         1 RES1   0.0000
   148 C36A     6.8009  11.4215  17.4602   C.ar      1 RES1   0.0000
   149 H26A     7.5043  12.0544  17.3689   H         1 RES1   0.0000
   150 C37A     4.9160  10.5947  18.6657   C.ar      1 RES1   0.0000
   151 H27A     4.3184  10.6561  19.4017   H         1 RES1   0.0000
   152 C40A     5.9354  11.5047  18.5334   C.ar      1 RES1   0.0000
   153 H32A     6.0447  12.1925  19.1781   H         1 RES1   0.0000
   154 Cl1     10.9784  11.4763  17.7643   Cl        2 RES2   0.0000
   155 Cl3     10.3139  11.3803  14.9434   Cl        2 RES2   0.0000
   156 C39     11.5912  11.6155  16.1280   C.3       2 RES2   0.0000
   157 H30     12.2996  10.9389  15.9845   H         2 RES2   0.0000
   158 H31     11.9934  12.5113  16.0032   H         2 RES2   0.0000
   159 Cl2     11.2124   7.5015  13.6387   Cl        3 RES3   0.0000
   160 Cl4     10.8149   7.7716  16.5085   Cl        3 RES3   0.0000
   161 C38     10.0579   7.7690  14.9300   C.3       3 RES3   0.0000
   162 H28      9.6054   8.6376  14.7846   H         3 RES3   0.0000
   163 H29      9.3684   7.0599  14.9001   H         3 RES3   0.0000
@<TRIPOS>BOND
     1     1     4    1
     2     2     5    2
     3     3    10   ar
     4     4     5    2
     5     6     9   ar
     6     7     9   ar
     7     8    41    1
     8     9    13    1
     9    10     6   ar
    10    11    12    1
    11    13    50    1
    12    14    15    1
    13    16    17    1
    14    18    34    1
    15    19     1    1
    16    20     1    1
    17    21    20   ar
    18    22    21    1
    19    23    16   ar
    20    24    23    1
    21    25    19   ar
    22    26    25    1
    23    27    11   ar
    24    28    27    1
    25    29    34    1
    26    30    31    1
    27    32    21   ar
    28    33    32    1
    29    34    10    1
    30    35    29   ar
    31    36    35    1
    32    37    14   ar
    33    38    37    1
    34    39    40    1
    35    41     3   ar
    36    42    30   ar
    37    43    42    1
    38    44    35   ar
    39    45    44    1
    40    46    47    1
    41    48    46   ar
    42    49    48    1
    43    50    30   ar
    44    51     8    1
    45    52    48   ar
    46    53    52    1
    47    54    14   ar
    48    55    54    1
    49    56    18   ar
    50    57    56    1
    51    58    18   ar
    52    59    58    1
    53    60    23   ar
    54    61    60    1
    55    62    39   ar
    56    63    62    1
    57    64    42   ar
    58    65    64    1
    59    66     8    1
    60    67    13    1
    61    68    67   ar
    62    69    68    1
    63    70    67   ar
    64    71    70    1
    65    72    68   ar
    66    73    72    1
    67    74    70   ar
    68    75    74    1
    69    76    72   ar
    70    77    76    1
    71    78    81    2
    72    79    86   ar
    73    80     1    1
    74    81    80    2
    75    82    85   ar
    76    83    85   ar
    77    84   117    1
    78    85    89    1
    79    86    82   ar
    80    87    88    1
    81    89   126    1
    82    90    91    1
    83    92    93    1
    84    94   110    1
    85    95     1    1
    86    96     1    1
    87    97    96   ar
    88    98    97    1
    89    99    92   ar
    90   100    99    1
    91   101    95   ar
    92   102   101    1
    93   103    87   ar
    94   104   103    1
    95   105   110    1
    96   106   107    1
    97   108    97   ar
    98   109   108    1
    99   110    86    1
   100   111   105   ar
   101   112   111    1
   102   113    90   ar
   103   114   113    1
   104   115   116    1
   105   117    79   ar
   106   118   106   ar
   107   119   118    1
   108   120   111   ar
   109   121   120    1
   110   122   123    1
   111   124   122   ar
   112   125   124    1
   113   126   106   ar
   114   127    84    1
   115   128   124   ar
   116   129   128    1
   117   130    90   ar
   118   131   130    1
   119   132    94   ar
   120   133   132    1
   121   134    94   ar
   122   135   134    1
   123   136    99   ar
   124   137   136    1
   125   138   115   ar
   126   139   138    1
   127   140   118   ar
   128   141   140    1
   129   142    84    1
   130   143    89    1
   131   144   143   ar
   132   145   144    1
   133   146   143   ar
   134   147   146    1
   135   148   144   ar
   136   149   148    1
   137   150   146   ar
   138   151   150    1
   139   152   148   ar
   140   153   152    1
   141     7    41   ar
   142    11    66   ar
   143    16    51   ar
   144    19    51   ar
   145    20    66   ar
   146    25    60   ar
   147    27    32   ar
   148    29    37   ar
   149    39    50   ar
   150    44    54   ar
   151    46    56   ar
   152    52    58   ar
   153    62    64   ar
   154    74    76   ar
   155    83   117   ar
   156    87   142   ar
   157    92   127   ar
   158    95   127   ar
   159    96   142   ar
   160   101   136   ar
   161   103   108   ar
   162   105   113   ar
   163   115   126   ar
   164   120   130   ar
   165   122   132   ar
   166   128   134   ar
   167   138   140   ar
   168   150   152   ar
   169   154   156    1
   170   155   156    1
   171   156   157    1
   172   158   156    1
   173   159   161    1
   174   160   161    1
   175   161   162    1
   176   163   161    1
@<TRIPOS>SUBSTRUCTURE
     1 RES1        1 GROUP             0 ****  ****    0  
     2 RES2      154 GROUP             0 ****  ****    0  
     3 RES3      159 GROUP             0 ****  ****    0  
@<TRIPOS>CRYSIN
    9.5165   11.3385   18.8082   82.5090   85.5000   72.1420     2     1
