@<TRIPOS>MOLECULE
NEBHUX
   106   111     4     0     0
SMALL
USER_CHARGES
****
Generated from the CSD

@<TRIPOS>ATOM
     1 Fe1      6.7530   1.8298  -1.8125   Fe        1 RES1   1.0000
     2 N1       7.1493   2.1667  -4.0359   N.3       1 RES1   0.0000
     3 N2       5.2598   5.2342  -3.6807   N.pl3     1 RES1   0.0000
     4 H1       4.7708   5.6647  -3.0914   H         1 RES1   0.0000
     5 H2       5.2368   5.4712  -4.5279   H         1 RES1   0.0000
     6 N3       4.8383   1.3422  -2.7967   N.ar      1 RES1   0.0000
     7 N4       8.8072   2.5290  -1.9443   N.ar      1 RES1   0.0000
     8 O1       6.0890   3.8730  -2.1232   O.3       1 RES1   0.0000
     9 O2       5.8978   1.8661   0.0237   O.co2     1 RES1   0.0000
    10 O3       7.7756   1.0634   0.8445   O.co2     1 RES1   0.0000
    11 O4       7.4458  -0.1725  -2.0285   O.3       1 RES1   0.0000
    12 H3       8.1796  -0.2906  -1.3760   H         1 RES1   0.0000
    13 C1       6.8613   3.5652  -4.3700   C.3       1 RES1   0.0000
    14 H4       6.3810   3.6024  -5.2330   H         1 RES1   0.0000
    15 H5       7.7157   4.0573  -4.4752   H         1 RES1   0.0000
    16 C2       6.0222   4.2426  -3.2992   C.2       1 RES1   0.0000
    17 C3       6.2310   1.2459  -4.7383   C.3       1 RES1   0.0000
    18 H6       6.5732   0.3196  -4.6673   H         1 RES1   0.0000
    19 H7       6.1915   1.4856  -5.6986   H         1 RES1   0.0000
    20 C4       4.8490   1.3176  -4.1464   C.ar      1 RES1   0.0000
    21 C5       3.7104   1.3649  -4.8830   C.ar      1 RES1   0.0000
    22 H8       3.7526   1.3385  -5.8302   H         1 RES1   0.0000
    23 C6       2.4877   1.4520  -4.2385   C.ar      1 RES1   0.0000
    24 H9       1.6824   1.5201  -4.7383   H         1 RES1   0.0000
    25 C7       2.4615   1.4393  -2.8651   C.ar      1 RES1   0.0000
    26 H10      1.6359   1.4647  -2.3968   H         1 RES1   0.0000
    27 C8       3.6507   1.3876  -2.1837   C.ar      1 RES1   0.0000
    28 H11      3.6288   1.3839  -1.2339   H         1 RES1   0.0000
    29 C9       8.5772   1.8461  -4.2516   C.3       1 RES1   0.0000
    30 H12      8.8715   2.1840  -5.1356   H         1 RES1   0.0000
    31 H13      8.7097   0.8654  -4.2332   H         1 RES1   0.0000
    32 C10      9.3861   2.4936  -3.1598   C.ar      1 RES1   0.0000
    33 C11     10.6542   3.0385  -3.3650   C.ar      1 RES1   0.0000
    34 H14     11.0639   2.9822  -4.2200   H         1 RES1   0.0000
    35 C12     11.3107   3.6605  -2.3258   C.ar      1 RES1   0.0000
    36 H15     12.1669   4.0510  -2.4494   H         1 RES1   0.0000
    37 C13     10.6836   3.6968  -1.0997   C.ar      1 RES1   0.0000
    38 H16     11.1111   4.1191  -0.3631   H         1 RES1   0.0000
    39 C14      9.4424   3.1247  -0.9340   C.ar      1 RES1   0.0000
    40 H17      9.0275   3.1556  -0.0789   H         1 RES1   0.0000
    41 C15      6.6045   1.4021   0.9971   C.2       1 RES1   0.0000
    42 C16      5.9231   1.3095   2.3337   C.3       1 RES1   0.0000
    43 H18      4.9983   1.6237   2.2521   H         1 RES1   0.0000
    44 H19      6.4016   1.8652   2.9835   H         1 RES1   0.0000
    45 H20      5.9256   0.3778   2.6362   H         1 RES1   0.0000
    46 C17      6.5776  -1.2731  -1.8627   C.3       1 RES1   0.0000
    47 H21      7.0629  -2.1031  -2.0548   H         1 RES1   0.0000
    48 H22      5.8202  -1.1887  -2.4757   H         1 RES1   0.0000
    49 H23      6.2494  -1.2931  -0.9392   H         1 RES1   0.0000
    50 B1      -2.3196   2.0695  -5.1514   B         2 RES2  -1.0000
    51 C18     -2.1752   1.4302  -3.6491   C.ar      2 RES2   0.0000
    52 C19     -3.2319   1.6273  -2.7257   C.ar      2 RES2   0.0000
    53 H24     -4.0094   2.0895  -3.0177   H         2 RES2   0.0000
    54 C20     -3.1902   1.1796  -1.4128   C.ar      2 RES2   0.0000
    55 H25     -3.9119   1.3712  -0.8261   H         2 RES2   0.0000
    56 C21     -2.1124   0.4622  -0.9577   C.ar      2 RES2   0.0000
    57 H26     -2.0955   0.1190  -0.0710   H         2 RES2   0.0000
    58 C22     -1.0536   0.2515  -1.8154   C.ar      2 RES2   0.0000
    59 H27     -0.2808  -0.2116  -1.5128   H         2 RES2   0.0000
    60 C23     -1.1112   0.7183  -3.1335   C.ar      2 RES2   0.0000
    61 H28     -0.3776   0.5349  -3.7070   H         2 RES2   0.0000
    62 C24     -2.4086   3.7059  -4.9251   C.ar      2 RES2   0.0000
    63 C25     -3.5767   4.4832  -5.1251   C.ar      2 RES2   0.0000
    64 H29     -4.3617   4.0555  -5.4461   H         2 RES2   0.0000
    65 C26     -3.6137   5.8499  -4.8673   C.ar      2 RES2   0.0000
    66 H30     -4.4204   6.3312  -5.0146   H         2 RES2   0.0000
    67 C27     -2.5061   6.5146  -4.4068   C.ar      2 RES2   0.0000
    68 H31     -2.5400   7.4518  -4.2516   H         2 RES2   0.0000
    69 C28     -1.3396   5.8100  -4.1648   C.ar      2 RES2   0.0000
    70 H32     -0.5656   6.2522  -3.8359   H         2 RES2   0.0000
    71 C29     -1.3250   4.4297  -4.4174   C.ar      2 RES2   0.0000
    72 H33     -0.5243   3.9547  -4.2306   H         2 RES2   0.0000
    73 C30     -3.6500   1.5746  -5.9670   C.ar      2 RES2   0.0000
    74 C31     -4.5827   0.6329  -5.4961   C.ar      2 RES2   0.0000
    75 H34     -4.4195   0.1898  -4.6699   H         2 RES2   0.0000
    76 C32     -5.7449   0.3342  -6.2169   C.ar      2 RES2   0.0000
    77 H35     -6.3540  -0.3088  -5.8723   H         2 RES2   0.0000
    78 C33     -6.0198   0.9526  -7.4088   C.ar      2 RES2   0.0000
    79 H36     -6.8230   0.7573  -7.8797   H         2 RES2   0.0000
    80 C34     -5.1200   1.8607  -7.9113   C.ar      2 RES2   0.0000
    81 H37     -5.2954   2.2947  -8.7374   H         2 RES2   0.0000
    82 C35     -3.9517   2.1458  -7.2114   C.ar      2 RES2   0.0000
    83 H38     -3.3297   2.7524  -7.5955   H         2 RES2   0.0000
    84 C36     -1.0197   1.7036  -6.0906   C.ar      2 RES2   0.0000
    85 C37     -0.2925   2.6371  -6.8431   C.ar      2 RES2   0.0000
    86 H39     -0.5691   3.5452  -6.8142   H         2 RES2   0.0000
    87 C38      0.8055   2.3111  -7.6245   C.ar      2 RES2   0.0000
    88 H40      1.2487   2.9849  -8.1270   H         2 RES2   0.0000
    89 C39      1.2575   0.9925  -7.6692   C.ar      2 RES2   0.0000
    90 H41      2.0239   0.7519  -8.1744   H         2 RES2   0.0000
    91 C40      0.5495   0.0545  -6.9536   C.ar      2 RES2   0.0000
    92 H42      0.8418  -0.8500  -6.9641   H         2 RES2   0.0000
    93 C41     -0.5631   0.3823  -6.2248   C.ar      2 RES2   0.0000
    94 H43     -1.0454  -0.3124  -5.7933   H         2 RES2   0.0000
    95 O5       3.8657   3.9674   0.1579   O.3       3 RES3   0.0000
    96 H44      4.4208   3.3400   0.1000   H         3 RES3   0.0000
    97 C42      2.8358   3.5979   1.0182   C.3       3 RES3   0.0000
    98 H45      3.1743   2.9549   1.6759   H         3 RES3   0.0000
    99 H46      2.1099   3.1883   0.5025   H         3 RES3   0.0000
   100 H47      2.4980   4.3924   1.4812   H         3 RES3   0.0000
   101 O6       3.5255   6.0697  -1.5865   O.3       4 RES4   0.0000
   102 H48      3.7276   5.3378  -1.2260   H         4 RES4   0.0000
   103 C43      2.1241   6.1287  -1.7812   C.3       4 RES4   0.0000
   104 H49      1.8385   5.3677  -2.3310   H         4 RES4   0.0000
   105 H50      1.8916   6.9651  -2.2363   H         4 RES4   0.0000
   106 H51      1.6706   6.0933  -0.9129   H         4 RES4   0.0000
@<TRIPOS>BOND
     1     1     2    1
     2     2    13    1
     3     3     4    1
     4     5     3    1
     5     6     1    1
     6     7     1    1
     7     8     1    1
     8     9     1    1
     9    10    41    2
    10    11     1    1
    11    12    11    1
    12    13    14    1
    13    15    13    1
    14    16     3    2
    15    17     2    1
    16    18    17    1
    17    19    17    1
    18    20     6   ar
    19    21    20   ar
    20    22    21    1
    21    23    21   ar
    22    24    23    1
    23    25    23   ar
    24    26    25    1
    25    27     6   ar
    26    28    27    1
    27    29     2    1
    28    30    29    1
    29    31    29    1
    30    32     7   ar
    31    33    32   ar
    32    34    33    1
    33    35    33   ar
    34    36    35    1
    35    37    35   ar
    36    38    37    1
    37    39     7   ar
    38    40    39    1
    39    41     9    1
    40    42    41    1
    41    43    42    1
    42    44    42    1
    43    45    42    1
    44    46    11    1
    45    47    46    1
    46    48    46    1
    47    49    46    1
    48     8    16    1
    49    13    16    1
    50    17    20    1
    51    25    27   ar
    52    29    32    1
    53    37    39   ar
    54    50    51    1
    55    51    52   ar
    56    52    53    1
    57    54    52   ar
    58    55    54    1
    59    56    54   ar
    60    57    56    1
    61    58    56   ar
    62    59    58    1
    63    60    51   ar
    64    61    60    1
    65    62    50    1
    66    63    62   ar
    67    64    63    1
    68    65    63   ar
    69    66    65    1
    70    67    65   ar
    71    68    67    1
    72    69    67   ar
    73    70    69    1
    74    71    62   ar
    75    72    71    1
    76    73    50    1
    77    74    73   ar
    78    75    74    1
    79    76    74   ar
    80    77    76    1
    81    78    76   ar
    82    79    78    1
    83    80    78   ar
    84    81    80    1
    85    82    73   ar
    86    83    82    1
    87    84    50    1
    88    85    84   ar
    89    86    85    1
    90    87    85   ar
    91    88    87    1
    92    89    87   ar
    93    90    89    1
    94    91    89   ar
    95    92    91    1
    96    93    84   ar
    97    94    93    1
    98    58    60   ar
    99    69    71   ar
   100    80    82   ar
   101    91    93   ar
   102    95    96    1
   103    97    95    1
   104    98    97    1
   105    99    97    1
   106   100    97    1
   107   101   102    1
   108   103   101    1
   109   104   103    1
   110   105   103    1
   111   106   103    1
@<TRIPOS>SUBSTRUCTURE
     1 RES1        1 GROUP             0 ****  ****    0  
     2 RES2       50 GROUP             0 ****  ****    0  
     3 RES3       95 GROUP             0 ****  ****    0  
     4 RES4      101 GROUP             0 ****  ****    0  
@<TRIPOS>CRYSIN
   17.4278    9.0809   27.3610   90.0000  105.9360   90.0000    14     1
