@<TRIPOS>MOLECULE
NEBYOL
    80    87     2     0     0
SMALL
NO_CHARGES
****
Generated from the CSD

@<TRIPOS>ATOM
     1 Fe1      3.3919   9.4418   6.6665   Fe        1 RES1   0.0000
     2 S1       4.6939  10.1496   3.5000   S.o2      1 RES1   0.0000
     3 S2       2.0370  12.3430   7.9636   S.o2      1 RES1   0.0000
     4 F1       5.1950  12.6495   4.0056   F         1 RES1   0.0000
     5 F2       3.3135  12.3047   3.0433   F         1 RES1   0.0000
     6 F3       5.1196  12.1534   1.9198   F         1 RES1   0.0000
     7 F4       1.3403  13.1824   5.6046   F         1 RES1   0.0000
     8 F5       1.9538  14.7207   6.9523   F         1 RES1   0.0000
     9 F6       3.4281  13.4253   6.0613   F         1 RES1   0.0000
    10 O1       4.0943  10.1547   4.8374   O.3       1 RES1   0.0000
    11 O2       6.0774   9.8884   3.4991   O.2       1 RES1   0.0000
    12 O3       3.9035   9.4660   2.5228   O.2       1 RES1   0.0000
    13 O4       2.2063  11.0373   7.3518   O.3       1 RES1   0.0000
    14 O5       0.6908  12.5846   8.3872   O.2       1 RES1   0.0000
    15 O6       3.0696  12.7356   8.8589   O.2       1 RES1   0.0000
    16 N1       3.9523   7.3726   6.1101   N.3       1 RES1   0.0000
    17 N2       3.2021   8.5256   8.6648   N.3       1 RES1   0.0000
    18 N3       1.6271   8.7300   5.6355   N.ar      1 RES1   0.0000
    19 N4       5.1905  10.1182   7.6444   N.ar      1 RES1   0.0000
    20 C1       5.3816   6.9498   5.9000   C.3       1 RES1   0.0000
    21 H1       5.9910   7.4486   6.4984   H         1 RES1   0.0000
    22 H2       5.6602   7.0938   4.9612   H         1 RES1   0.0000
    23 C2       5.3690   5.4746   6.2442   C.ar      1 RES1   0.0000
    24 C3       6.2248   4.4556   5.8719   C.ar      1 RES1   0.0000
    25 H3       6.9982   4.6379   5.3504   H         1 RES1   0.0000
    26 C4       5.9306   3.1527   6.2789   C.ar      1 RES1   0.0000
    27 H4       6.5068   2.4402   6.0276   H         1 RES1   0.0000
    28 C5       4.8093   2.8894   7.0423   C.ar      1 RES1   0.0000
    29 H5       4.6217   1.9967   7.3049   H         1 RES1   0.0000
    30 C6       3.9464   3.9214   7.4343   C.ar      1 RES1   0.0000
    31 H6       3.1807   3.7430   7.9670   H         1 RES1   0.0000
    32 C7       4.2440   5.2056   7.0226   C.ar      1 RES1   0.0000
    33 C8       3.4815   6.4972   7.2449   C.3       1 RES1   0.0000
    34 H7       2.4962   6.3389   7.1802   H         1 RES1   0.0000
    35 C9       3.8367   7.1591   8.5935   C.3       1 RES1   0.0000
    36 H8       4.8283   7.2259   8.7023   H         1 RES1   0.0000
    37 C10      3.2219   6.4180   9.7564   C.ar      1 RES1   0.0000
    38 C11      3.6606   5.2886  10.4289   C.ar      1 RES1   0.0000
    39 H9       4.4829   4.8705  10.2010   H         1 RES1   0.0000
    40 C12      2.8554   4.7847  11.4502   C.ar      1 RES1   0.0000
    41 H10      3.1370   4.0170  11.9332   H         1 RES1   0.0000
    42 C13      1.6511   5.3883  11.7710   C.ar      1 RES1   0.0000
    43 H11      1.1062   5.0124  12.4528   H         1 RES1   0.0000
    44 C14      1.2276   6.5315  11.1116   C.ar      1 RES1   0.0000
    45 H12      0.4082   6.9519  11.3433   H         1 RES1   0.0000
    46 C15      2.0305   7.0452  10.1063   C.ar      1 RES1   0.0000
    47 C16      1.8348   8.2761   9.2519   C.3       1 RES1   0.0000
    48 H13      1.1680   8.1109   8.5391   H         1 RES1   0.0000
    49 H14      1.5391   9.0452   9.7996   H         1 RES1   0.0000
    50 C17      3.1819   7.0201   4.8862   C.3       1 RES1   0.0000
    51 H15      3.0927   6.0354   4.8299   H         1 RES1   0.0000
    52 H16      3.6809   7.3264   4.0881   H         1 RES1   0.0000
    53 C18      1.8031   7.6444   4.8787   C.ar      1 RES1   0.0000
    54 C19      0.8024   7.1421   4.0496   C.ar      1 RES1   0.0000
    55 H17      0.9503   6.3586   3.5319   H         1 RES1   0.0000
    56 C20     -0.4093   7.8072   3.9943   C.ar      1 RES1   0.0000
    57 H18     -1.0993   7.4999   3.4185   H         1 RES1   0.0000
    58 C21     -0.6056   8.9190   4.7821   C.ar      1 RES1   0.0000
    59 H19     -1.4339   9.3842   4.7671   H         1 RES1   0.0000
    60 C22      0.4287   9.3428   5.5933   C.ar      1 RES1   0.0000
    61 H20      0.2865  10.0997   6.1485   H         1 RES1   0.0000
    62 C23      3.9899   9.3684   9.6026   C.3       1 RES1   0.0000
    63 H21      4.2173   8.8382  10.4073   H         1 RES1   0.0000
    64 H22      3.4385  10.1391   9.8915   H         1 RES1   0.0000
    65 C24      5.2528   9.8726   8.9668   C.ar      1 RES1   0.0000
    66 C25      6.3944  10.1383   9.7096   C.ar      1 RES1   0.0000
    67 H23      6.4308   9.9164  10.6324   H         1 RES1   0.0000
    68 C26      7.4868  10.7364   9.0831   C.ar      1 RES1   0.0000
    69 H24      8.2788  10.9295   9.5708   H         1 RES1   0.0000
    70 C27      7.3945  11.0444   7.7373   C.ar      1 RES1   0.0000
    71 H25      8.1103  11.4854   7.2946   H         1 RES1   0.0000
    72 C28      6.2483  10.7040   7.0470   C.ar      1 RES1   0.0000
    73 H26      6.2034  10.8901   6.1167   H         1 RES1   0.0000
    74 C29      4.5588  11.9076   3.1015   C.3       1 RES1   0.0000
    75 C30      2.2022  13.4683   6.5574   C.3       1 RES1   0.0000
    76 Cl1     -1.8445   6.9758   9.2028   Cl        2 RES2   0.0000
    77 Cl2     -0.2509   5.7935   7.0928   Cl        2 RES2   0.0000
    78 C31     -1.1531   5.4744   8.5813   C.3       2 RES2   0.0000
    79 H27     -1.8772   4.8252   8.3984   H         2 RES2   0.0000
    80 H28     -0.5495   5.0814   9.2594   H         2 RES2   0.0000
@<TRIPOS>BOND
     1     1    10    1
     2     2    10    1
     3     3    13    1
     4     4    74    1
     5     5    74    1
     6     6    74    1
     7     7    75    1
     8     8    75    1
     9     9    75    1
    10    11     2    2
    11    12     2    2
    12    13     1    1
    13    14     3    2
    14    15     3    2
    15    16     1    1
    16    17     1    1
    17    18     1    1
    18    19     1    1
    19    20    16    1
    20    21    20    1
    21    22    20    1
    22    23    20    1
    23    24    23   ar
    24    25    24    1
    25    26    24   ar
    26    27    26    1
    27    28    26   ar
    28    29    28    1
    29    30    28   ar
    30    31    30    1
    31    32    23   ar
    32    33    16    1
    33    34    33    1
    34    35    17    1
    35    36    35    1
    36    37    35    1
    37    38    37   ar
    38    39    38    1
    39    40    38   ar
    40    41    40    1
    41    42    40   ar
    42    43    42    1
    43    44    42   ar
    44    45    44    1
    45    46    37   ar
    46    47    17    1
    47    48    47    1
    48    49    47    1
    49    50    16    1
    50    51    50    1
    51    52    50    1
    52    53    18   ar
    53    54    53   ar
    54    55    54    1
    55    56    54   ar
    56    57    56    1
    57    58    56   ar
    58    59    58    1
    59    60    18   ar
    60    61    60    1
    61    62    17    1
    62    63    62    1
    63    64    62    1
    64    65    19   ar
    65    66    65   ar
    66    67    66    1
    67    68    66   ar
    68    69    68    1
    69    70    68   ar
    70    71    70    1
    71    72    19   ar
    72    73    72    1
    73    74     2    1
    74    75     3    1
    75    30    32   ar
    76    32    33    1
    77    33    35    1
    78    44    46   ar
    79    46    47    1
    80    50    53    1
    81    58    60   ar
    82    62    65    1
    83    70    72   ar
    84    76    78    1
    85    77    78    1
    86    78    79    1
    87    80    78    1
@<TRIPOS>SUBSTRUCTURE
     1 RES1        1 GROUP             0 ****  ****    0  
     2 RES2       76 GROUP             0 ****  ****    0  
@<TRIPOS>CRYSIN
    9.4763   19.7106   10.4929   90.0000  116.6460   90.0000     4     1
