@<TRIPOS>MOLECULE
NEDMAM
    83    90     1     0     0
SMALL
NO_CHARGES
****
Generated from the CSD

@<TRIPOS>ATOM
     1 Fe1      0.0000  21.0943   0.0000   Fe        1 RES1   0.0000
     2 F1       0.0359  16.4133  -0.1751   F         1 RES1   0.0000
     3 F2      -0.2940  13.9739   0.9273   F         1 RES1   0.0000
     4 F3      -0.2615  13.6805   3.6199   F         1 RES1   0.0000
     5 F4       0.1277  15.8507   5.2307   F         1 RES1   0.0000
     6 F5       0.4260  18.2864   4.1368   F         1 RES1   0.0000
     7 F6       3.0460  17.1469   0.9115   F         1 RES1   0.0000
     8 F7       4.9419  16.1074   2.5361   F         1 RES1   0.0000
     9 F8       5.6585  17.4211   4.7997   F         1 RES1   0.0000
    10 F9       4.5372  19.8135   5.4020   F         1 RES1   0.0000
    11 F10      2.5799  20.8112   3.8400   F         1 RES1   0.0000
    12 O1      -1.7168  18.8307   0.4932   O.3       1 RES1   0.0000
    13 O2       2.6903  21.4947   0.9918   O.3       1 RES1   0.0000
    14 N1      -0.5153  19.4013   0.6796   N.2       1 RES1   0.0000
    15 N2       1.6056  20.6882   0.9330   N.2       1 RES1   0.0000
    16 N3       0.7342  20.1818  -1.6225   N.ar      1 RES1   0.0000
    17 C1       0.4026  18.7621   1.3702   C.2       1 RES1   0.0000
    18 C2       1.6388  19.5291   1.5186   C.2       1 RES1   0.0000
    19 C3       0.2114  17.4273   1.9522   C.ar      1 RES1   0.0000
    20 C4       0.0246  16.2987   1.1689   C.ar      1 RES1   0.0000
    21 C5      -0.1253  15.0497   1.7096   C.ar      1 RES1   0.0000
    22 C6      -0.0889  14.8962   3.0912   C.ar      1 RES1   0.0000
    23 C7       0.1092  15.9823   3.8926   C.ar      1 RES1   0.0000
    24 C8       0.2556  17.2241   3.3245   C.ar      1 RES1   0.0000
    25 C9       2.7823  19.0180   2.3158   C.ar      1 RES1   0.0000
    26 C10      3.4013  17.8262   2.0196   C.ar      1 RES1   0.0000
    27 C11      4.3789  17.2775   2.8312   C.ar      1 RES1   0.0000
    28 C12      4.7463  17.9622   3.9750   C.ar      1 RES1   0.0000
    29 C13      4.1748  19.1631   4.2840   C.ar      1 RES1   0.0000
    30 C14      3.1893  19.6803   3.4680   C.ar      1 RES1   0.0000
    31 C15     -0.0111  19.2886  -2.3076   C.ar      1 RES1   0.0000
    32 C16      0.4618  18.5919  -3.3897   C.ar      1 RES1   0.0000
    33 C17      1.7533  18.8035  -3.8207   C.ar      1 RES1   0.0000
    34 C18      2.5263  19.7120  -3.1400   C.ar      1 RES1   0.0000
    35 C19      1.9940  20.3773  -2.0516   C.ar      1 RES1   0.0000
    36 H1      -2.1382  19.4616   0.1236   H         1 RES1   0.0000
    37 H2       2.4543  22.1996   0.5171   H         1 RES1   0.0000
    38 H3      -0.8996  19.1705  -2.0110   H         1 RES1   0.0000
    39 H4      -0.1003  17.9871  -3.7926   H         1 RES1   0.0000
    40 H5       2.0867  18.3267  -4.5593   H         1 RES1   0.0000
    41 H6       3.4282  19.8645  -3.3925   H         1 RES1   0.0000
    42 H7       2.5034  20.9973  -1.5422   H         1 RES1   0.0000
    43 F1B     -0.0359  25.7753   0.1751   F         1 RES1   0.0000
    44 F2B      0.2940  28.2147  -0.9273   F         1 RES1   0.0000
    45 F3B      0.2615  28.5081  -3.6199   F         1 RES1   0.0000
    46 F4B     -0.1277  26.3379  -5.2307   F         1 RES1   0.0000
    47 F5B     -0.4260  23.9022  -4.1368   F         1 RES1   0.0000
    48 F6B     -3.0460  25.0417  -0.9115   F         1 RES1   0.0000
    49 F7B     -4.9419  26.0812  -2.5361   F         1 RES1   0.0000
    50 F8B     -5.6585  24.7675  -4.7997   F         1 RES1   0.0000
    51 F9B     -4.5372  22.3751  -5.4020   F         1 RES1   0.0000
    52 F10B    -2.5799  21.3774  -3.8400   F         1 RES1   0.0000
    53 O1B      1.7168  23.3579  -0.4932   O.3       1 RES1   0.0000
    54 O2B     -2.6903  20.6939  -0.9918   O.3       1 RES1   0.0000
    55 N1B      0.5153  22.7873  -0.6796   N.2       1 RES1   0.0000
    56 N2B     -1.6056  21.5004  -0.9330   N.2       1 RES1   0.0000
    57 N3B     -0.7342  22.0068   1.6225   N.ar      1 RES1   0.0000
    58 C1B     -0.4026  23.4265  -1.3702   C.2       1 RES1   0.0000
    59 C2B     -1.6388  22.6595  -1.5186   C.2       1 RES1   0.0000
    60 C3B     -0.2114  24.7613  -1.9522   C.ar      1 RES1   0.0000
    61 C4B     -0.0246  25.8899  -1.1689   C.ar      1 RES1   0.0000
    62 C5B      0.1253  27.1389  -1.7096   C.ar      1 RES1   0.0000
    63 C6B      0.0889  27.2924  -3.0912   C.ar      1 RES1   0.0000
    64 C7B     -0.1092  26.2063  -3.8926   C.ar      1 RES1   0.0000
    65 C8B     -0.2556  24.9645  -3.3245   C.ar      1 RES1   0.0000
    66 C9B     -2.7823  23.1706  -2.3158   C.ar      1 RES1   0.0000
    67 C10B    -3.4013  24.3624  -2.0196   C.ar      1 RES1   0.0000
    68 C11B    -4.3789  24.9111  -2.8312   C.ar      1 RES1   0.0000
    69 C12B    -4.7463  24.2264  -3.9750   C.ar      1 RES1   0.0000
    70 C13B    -4.1748  23.0255  -4.2840   C.ar      1 RES1   0.0000
    71 C14B    -3.1893  22.5083  -3.4680   C.ar      1 RES1   0.0000
    72 C15B     0.0111  22.9000   2.3076   C.ar      1 RES1   0.0000
    73 C16B    -0.4618  23.5967   3.3897   C.ar      1 RES1   0.0000
    74 C17B    -1.7533  23.3851   3.8207   C.ar      1 RES1   0.0000
    75 C18B    -2.5263  22.4766   3.1400   C.ar      1 RES1   0.0000
    76 C19B    -1.9940  21.8113   2.0516   C.ar      1 RES1   0.0000
    77 H1B      2.1382  22.7270  -0.1236   H         1 RES1   0.0000
    78 H2B     -2.4543  19.9890  -0.5171   H         1 RES1   0.0000
    79 H3B      0.8996  23.0181   2.0110   H         1 RES1   0.0000
    80 H4B      0.1003  24.2015   3.7926   H         1 RES1   0.0000
    81 H5B     -2.0867  23.8619   4.5593   H         1 RES1   0.0000
    82 H6B     -3.4282  22.3241   3.3925   H         1 RES1   0.0000
    83 H7B     -2.5034  21.1913   1.5422   H         1 RES1   0.0000
@<TRIPOS>BOND
     1     1    14    1
     2     2    20    1
     3     3    21    1
     4     4    22    1
     5     5    23    1
     6     6    24    1
     7     7    26    1
     8     8    27    1
     9     9    28    1
    10    10    29    1
    11    11    30    1
    12    12    14    1
    13    13    15    1
    14    14    17    2
    15    15     1    1
    16    16     1    1
    17    17    18    1
    18    18    15    2
    19    19    17    1
    20    20    19   ar
    21    21    20   ar
    22    22    21   ar
    23    23    22   ar
    24    24    19   ar
    25    25    18    1
    26    26    25   ar
    27    27    26   ar
    28    28    27   ar
    29    29    28   ar
    30    30    25   ar
    31    31    16   ar
    32    32    31   ar
    33    33    32   ar
    34    34    33   ar
    35    35    16   ar
    36    36    12    1
    37    37    13    1
    38    38    31    1
    39    39    32    1
    40    40    33    1
    41    41    34    1
    42    42    35    1
    43    43    61    1
    44    44    62    1
    45    45    63    1
    46    46    64    1
    47    47    65    1
    48    48    67    1
    49    49    68    1
    50    50    69    1
    51    51    70    1
    52    52    71    1
    53    53    55    1
    54    54    56    1
    55    55     1    1
    56    56     1    1
    57    57     1    1
    58    58    55    2
    59    59    56    2
    60    60    58    1
    61    61    60   ar
    62    62    61   ar
    63    63    62   ar
    64    64    63   ar
    65    65    60   ar
    66    66    59    1
    67    67    66   ar
    68    68    67   ar
    69    69    68   ar
    70    70    69   ar
    71    71    66   ar
    72    72    57   ar
    73    73    72   ar
    74    74    73   ar
    75    75    74   ar
    76    76    57   ar
    77    77    53    1
    78    78    54    1
    79    79    72    1
    80    80    73    1
    81    81    74    1
    82    82    75    1
    83    83    76    1
    84    23    24   ar
    85    29    30   ar
    86    34    35   ar
    87    58    59    1
    88    64    65   ar
    89    70    71   ar
    90    75    76   ar
@<TRIPOS>SUBSTRUCTURE
     1 RES1        1 GROUP             0 ****  ****    0  
@<TRIPOS>CRYSIN
    8.0084   21.0943   11.4508   90.0000  100.9910   90.0000   231     1
