@<TRIPOS>MOLECULE
NEGPOF
    89    96     3     0     0
SMALL
USER_CHARGES
****
Generated from the CSD

@<TRIPOS>ATOM
     1 Fe1      0.3778   9.4746   3.9756   Fe        1 RES1   2.0000
     2 N1       2.0960  10.1796   3.4972   N.ar      1 RES1   0.0000
     3 C1       2.7392  11.2563   3.9960   C.ar      1 RES1   0.0000
     4 H1       2.3298  11.7248   4.6885   H         1 RES1   0.0000
     5 C2       3.9119  11.6886   3.5670   C.ar      1 RES1   0.0000
     6 H2       4.2898  12.4668   3.9071   H         1 RES1   0.0000
     7 C3       4.5447  10.9641   2.6216   C.ar      1 RES1   0.0000
     8 H3       5.4022  11.1975   2.3477   H         1 RES1   0.0000
     9 C4       3.9029   9.8634   2.0599   C.ar      1 RES1   0.0000
    10 H4       4.3050   9.3943   1.3640   H         1 RES1   0.0000
    11 C5       2.7234   9.4867   2.5134   C.ar      1 RES1   0.0000
    12 N2       0.8438   8.2288   2.6373   N.ar      1 RES1   0.0000
    13 C6       1.9827   8.3073   2.0512   C.ar      1 RES1   0.0000
    14 C7       2.3789   7.3251   1.1617   C.ar      1 RES1   0.0000
    15 H5       3.1963   7.3916   0.7239   H         1 RES1   0.0000
    16 C8       1.5813   6.2804   0.9349   C.ar      1 RES1   0.0000
    17 H6       1.8657   5.6114   0.3558   H         1 RES1   0.0000
    18 C9       0.3764   6.1680   1.5245   C.ar      1 RES1   0.0000
    19 H7      -0.1814   5.4402   1.3727   H         1 RES1   0.0000
    20 C10      0.0207   7.2126   2.3704   C.ar      1 RES1   0.0000
    21 N3      -1.1841   8.4489   3.9245   N.ar      1 RES1   0.0000
    22 C11     -1.1884   7.4045   3.1047   C.ar      1 RES1   0.0000
    23 N4      -2.1650   6.5352   2.9512   N.ar      1 RES1   0.0000
    24 C12     -3.2466   6.8534   3.6612   C.ar      1 RES1   0.0000
    25 C13     -3.2830   7.9591   4.5211   C.ar      1 RES1   0.0000
    26 N5      -2.2695   8.7481   4.6309   N.ar      1 RES1   0.0000
    27 C14     -4.4133   5.9505   3.4798   C.3       1 RES1   0.0000
    28 H8      -5.1868   6.5008   3.2809   H         1 RES1   0.0000
    29 H9      -4.5841   5.5121   4.3292   H         1 RES1   0.0000
    30 C15     -4.3235   4.8950   2.4315   C.3       1 RES1   0.0000
    31 H10     -4.1938   5.3071   1.5750   H         1 RES1   0.0000
    32 H11     -5.1352   4.3842   2.4227   H         1 RES1   0.0000
    33 H12     -3.5827   4.3163   2.6233   H         1 RES1   0.0000
    34 C16     -4.2532   9.4609   6.3037   C.3       1 RES1   0.0000
    35 H13     -3.5802   9.2378   6.9508   H         1 RES1   0.0000
    36 H14     -5.0833   9.6368   6.7502   H         1 RES1   0.0000
    37 H15     -3.9807  10.2410   5.8153   H         1 RES1   0.0000
    38 C17     -4.4342   8.2923   5.3339   C.3       1 RES1   0.0000
    39 H16     -4.6816   7.5071   5.8467   H         1 RES1   0.0000
    40 H17     -5.1748   8.4989   4.7443   H         1 RES1   0.0000
    41 N6      -0.5396  10.9772   3.1100   N.ar      1 RES1   0.0000
    42 C18     -0.8980  12.0566   3.8896   C.ar      1 RES1   0.0000
    43 C19     -1.4876  12.1882   1.3657   C.ar      1 RES1   0.0000
    44 H18     -1.7282  12.2016   0.4675   H         1 RES1   0.0000
    45 C20     -1.7941  13.2503   2.1541   C.ar      1 RES1   0.0000
    46 H19     -2.1773  14.0158   1.7913   H         1 RES1   0.0000
    47 C21     -1.5420  13.1715   3.4257   C.ar      1 RES1   0.0000
    48 H20     -1.7911  13.8557   4.0048   H         1 RES1   0.0000
    49 C22     -0.8209  11.0842   1.8751   C.ar      1 RES1   0.0000
    50 H21     -0.5717  10.4013   1.2942   H         1 RES1   0.0000
    51 N7       0.0422  10.6395   5.4071   N.ar      1 RES1   0.0000
    52 C23     -0.5584  11.8334   5.2205   C.ar      1 RES1   0.0000
    53 C24     -0.7347  12.7218   6.2723   C.ar      1 RES1   0.0000
    54 H22     -1.1189  13.5590   6.1467   H         1 RES1   0.0000
    55 C25     -0.3293  12.3180   7.4549   C.ar      1 RES1   0.0000
    56 H23     -0.4354  12.8813   8.1874   H         1 RES1   0.0000
    57 C26      0.2613  11.0538   7.6415   C.ar      1 RES1   0.0000
    58 H24      0.5398  10.7827   8.4857   H         1 RES1   0.0000
    59 C27      0.4201  10.2335   6.5618   C.ar      1 RES1   0.0000
    60 N8       1.0625   8.3581   5.3077   N.ar      1 RES1   0.0000
    61 N9       1.4437   8.2731   7.5543   N.ar      1 RES1   0.0000
    62 C28      1.0299   8.8563   6.5130   C.ar      1 RES1   0.0000
    63 C29      1.9145   6.9656   7.3450   C.ar      1 RES1   0.0000
    64 C30      1.8334   6.3395   6.1415   C.ar      1 RES1   0.0000
    65 N10      1.4513   7.0140   5.1420   N.ar      1 RES1   0.0000
    66 C31      2.1431   4.8482   5.9304   C.3       1 RES1   0.0000
    67 H25      3.0939   4.7110   6.0665   H         1 RES1   0.0000
    68 H26      1.6753   4.3396   6.6124   H         1 RES1   0.0000
    69 C32      3.0849   6.9320   9.4485   C.3       1 RES1   0.0000
    70 H27      4.0185   7.0637   9.2479   H         1 RES1   0.0000
    71 H28      3.0054   6.4287  10.2613   H         1 RES1   0.0000
    72 H29      2.6631   7.7881   9.5584   H         1 RES1   0.0000
    73 C33      2.5269   6.2968   8.4892   C.3       1 RES1   0.0000
    74 H30      1.8398   5.7435   8.8886   H         1 RES1   0.0000
    75 H31      3.1961   5.6916   8.1316   H         1 RES1   0.0000
    76 C34      1.7869   4.3165   4.6414   C.3       1 RES1   0.0000
    77 H32      0.8479   4.4445   4.4914   H         1 RES1   0.0000
    78 H33      1.9917   3.3792   4.6152   H         1 RES1   0.0000
    79 H34      2.2853   4.7720   3.9594   H         1 RES1   0.0000
    80 Cl1      2.2900   2.3755   0.5332   Cl        2 RES2   0.0000
    81 O1       3.4102   3.0863   0.1570   O.3       2 RES2  -1.0000
    82 O2       1.2319   2.8678  -0.1483   O.2       2 RES2   0.0000
    83 O3       2.0436   2.6059   1.8349   O.2       2 RES2   0.0000
    84 O4       2.4038   0.9282   0.3436   O.2       2 RES2   0.0000
    85 Cl2      1.5161   5.2677  -6.7329   Cl        3 RES3   0.0000
    86 O5       0.8629   6.0183  -7.6241   O.3       3 RES3  -1.0000
    87 O6       1.2309   5.5954  -5.4856   O.2       3 RES3   0.0000
    88 O7       1.1196   3.9022  -6.7711   O.2       3 RES3   0.0000
    89 O8       2.7435   5.2687  -6.9996   O.2       3 RES3   0.0000
@<TRIPOS>BOND
     1     1     2    1
     2     2     3   ar
     3     3     4    1
     4     5     3   ar
     5     6     5    1
     6     7     5   ar
     7     8     7    1
     8     9     7   ar
     9    10     9    1
    10    11     2   ar
    11    12     1    1
    12    13    11    1
    13    14    13   ar
    14    15    14    1
    15    16    14   ar
    16    17    16    1
    17    18    16   ar
    18    19    18    1
    19    20    12   ar
    20    21     1    1
    21    22    20    1
    22    23    22   ar
    23    24    23   ar
    24    25    24   ar
    25    26    21   ar
    26    27    24    1
    27    28    27    1
    28    29    27    1
    29    30    27    1
    30    31    30    1
    31    32    30    1
    32    33    30    1
    33    34    35    1
    34    36    34    1
    35    37    34    1
    36    38    25    1
    37    39    38    1
    38    40    38    1
    39    41     1    1
    40    42    41   ar
    41    43    44    1
    42    45    43   ar
    43    46    45    1
    44    47    42   ar
    45    48    47    1
    46    49    41   ar
    47    50    49    1
    48    51     1    1
    49    52    42    1
    50    53    52   ar
    51    54    53    1
    52    55    53   ar
    53    56    55    1
    54    57    55   ar
    55    58    57    1
    56    59    51   ar
    57    60     1    1
    58    61    62   ar
    59    62    59    1
    60    63    61   ar
    61    64    63   ar
    62    65    60   ar
    63    66    64    1
    64    67    66    1
    65    68    66    1
    66    69    70    1
    67    71    69    1
    68    72    69    1
    69    73    63    1
    70    74    73    1
    71    75    73    1
    72    76    66    1
    73    77    76    1
    74    78    76    1
    75    79    76    1
    76     9    11   ar
    77    12    13   ar
    78    18    20   ar
    79    21    22   ar
    80    25    26   ar
    81    34    38    1
    82    43    49   ar
    83    45    47   ar
    84    51    52   ar
    85    57    59   ar
    86    60    62   ar
    87    64    65   ar
    88    69    73    1
    89    80    81    1
    90    82    80    2
    91    83    80    2
    92    84    80    2
    93    85    86    1
    94    87    85    2
    95    88    85    2
    96    89    85    2
@<TRIPOS>SUBSTRUCTURE
     1 RES1        1 GROUP             0 ****  ****    0  
     2 RES2       80 GROUP             0 ****  ****    0  
     3 RES3       85 GROUP             0 ****  ****    0  
@<TRIPOS>CRYSIN
    9.2070   10.8300   17.5700   96.6130   91.7330   92.2740     2     1
