@<TRIPOS>MOLECULE
NEGPUL
    97   104     3     0     0
SMALL
USER_CHARGES
****
Generated from the CSD

@<TRIPOS>ATOM
     1 Fe1      6.2455  -3.9719   5.9794   Fe        1 RES1   2.0000
     2 N1       5.1273  -3.9393   4.3754   N.ar      1 RES1   0.0000
     3 N2       5.4837  -3.3892   3.2058   N.ar      1 RES1   0.0000
     4 C1       4.6512  -3.5455   2.1587   C.ar      1 RES1   0.0000
     5 C2       3.4168  -4.2924   2.3141   C.ar      1 RES1   0.0000
     6 N3       3.0608  -4.7161   3.4706   N.ar      1 RES1   0.0000
     7 C3       3.9064  -4.5486   4.4925   C.ar      1 RES1   0.0000
     8 N4       4.6570  -4.7861   6.6819   N.ar      1 RES1   0.0000
     9 C4       3.6273  -5.0453   5.8449   C.ar      1 RES1   0.0000
    10 C5       2.5117  -5.7222   6.2891   C.ar      1 RES1   0.0000
    11 H1       1.8011  -5.8942   5.7147   H         1 RES1   0.0000
    12 C6       2.4759  -6.1373   7.6195   C.ar      1 RES1   0.0000
    13 C7       3.5748  -5.9391   8.4467   C.ar      1 RES1   0.0000
    14 H2       3.5820  -6.2533   9.3209   H         1 RES1   0.0000
    15 C8       4.6603  -5.2510   7.9292   C.ar      1 RES1   0.0000
    16 O1       1.4254  -6.7600   8.2213   O.3       1 RES1   0.0000
    17 C9       0.2322  -6.9190   7.4883   C.3       1 RES1   0.0000
    18 H3      -0.0804  -6.0588   7.1961   H         1 RES1   0.0000
    19 H4      -0.4330  -7.3304   8.0441   H         1 RES1   0.0000
    20 H5       0.3983  -7.4763   6.7235   H         1 RES1   0.0000
    21 N5       6.8167  -4.2662   7.8504   N.ar      1 RES1   0.0000
    22 C10      5.9488  -4.9443   8.6294   C.ar      1 RES1   0.0000
    23 C11      6.2310  -5.2996   9.9347   C.ar      1 RES1   0.0000
    24 H6       5.6171  -5.7970  10.4249   H         1 RES1   0.0000
    25 C12      7.4407  -4.9069  10.5168   C.ar      1 RES1   0.0000
    26 H7       7.6451  -5.1201  11.3987   H         1 RES1   0.0000
    27 C13      8.3034  -4.2000   9.7389   C.ar      1 RES1   0.0000
    28 H8       9.1180  -3.9270  10.0923   H         1 RES1   0.0000
    29 C14      7.9863  -3.8896   8.4281   C.ar      1 RES1   0.0000
    30 H9       8.5966  -3.4034   7.9248   H         1 RES1   0.0000
    31 C15      5.0642  -2.9060   0.8786   C.3       1 RES1   0.0000
    32 H10      4.3556  -2.3038   0.6018   H         1 RES1   0.0000
    33 H11      5.1303  -3.6016   0.2057   H         1 RES1   0.0000
    34 C16      6.3680  -2.1281   0.8786   C.3       1 RES1   0.0000
    35 H12      6.3385  -1.4549   1.5613   H         1 RES1   0.0000
    36 H13      6.4920  -1.7129   0.0219   H         1 RES1   0.0000
    37 H14      7.0988  -2.7265   1.0526   H         1 RES1   0.0000
    38 C17      1.8163  -5.8830   1.1948   C.3       1 RES1   0.0000
    39 H15      2.3998  -6.5674   1.5252   H         1 RES1   0.0000
    40 H16      1.4969  -6.1261   0.3228   H         1 RES1   0.0000
    41 H17      1.0702  -5.7820   1.7911   H         1 RES1   0.0000
    42 C18      2.5702  -4.5778   1.1084   C.3       1 RES1   0.0000
    43 H18      3.1391  -4.5965   0.3228   H         1 RES1   0.0000
    44 H19      1.9332  -3.8559   0.9935   H         1 RES1   0.0000
    45 N6       5.9730  -2.0065   6.3055   N.ar      1 RES1   0.0000
    46 C19      5.0533  -1.4324   7.0659   C.ar      1 RES1   0.0000
    47 H20      4.4292  -1.9710   7.4959   H         1 RES1   0.0000
    48 C20      4.9849  -0.0636   7.2443   C.ar      1 RES1   0.0000
    49 H21      4.3378   0.3067   7.8012   H         1 RES1   0.0000
    50 C21      5.8793   0.7443   6.5954   C.ar      1 RES1   0.0000
    51 H22      5.8280   1.6718   6.6873   H         1 RES1   0.0000
    52 C22      6.8607   0.1758   5.8022   C.ar      1 RES1   0.0000
    53 H23      7.4782   0.7106   5.3591   H         1 RES1   0.0000
    54 C23      6.9054  -1.2043   5.6796   C.ar      1 RES1   0.0000
    55 C24      7.9151  -1.9624   4.8875   C.ar      1 RES1   0.0000
    56 N7       7.7916  -3.2908   5.1195   N.ar      1 RES1   0.0000
    57 O2      10.6611  -1.9852   2.4727   O.3       1 RES1   0.0000
    58 C25     10.5654  -0.6582   1.8885   C.3       1 RES1   0.0000
    59 H24      9.6976  -0.5460   1.4946   H         1 RES1   0.0000
    60 H25     11.2394  -0.5573   1.2134   H         1 RES1   0.0000
    61 H26     10.6953   0.0037   2.5723   H         1 RES1   0.0000
    62 C26      8.8738  -1.4511   4.0100   C.ar      1 RES1   0.0000
    63 H27      8.9344  -0.5348   3.8470   H         1 RES1   0.0000
    64 C27      9.7173  -2.3300   3.3973   C.ar      1 RES1   0.0000
    65 C28      9.6115  -3.7026   3.6347   C.ar      1 RES1   0.0000
    66 H28     10.1967  -4.2973   3.2244   H         1 RES1   0.0000
    67 C29      8.6217  -4.1664   4.4914   C.ar      1 RES1   0.0000
    68 C30      8.2306  -5.5614   4.7442   C.ar      1 RES1   0.0000
    69 N8       7.0711  -5.6478   5.4346   N.ar      1 RES1   0.0000
    70 N9       8.9638  -6.5843   4.3109   N.ar      1 RES1   0.0000
    71 C31      8.4512  -7.7755   4.5330   C.ar      1 RES1   0.0000
    72 C32      9.2098  -9.0059   4.0395   C.3       1 RES1   0.0000
    73 H29      9.0932  -9.7203   4.6840   H         1 RES1   0.0000
    74 H30      8.8152  -9.2976   3.2025   H         1 RES1   0.0000
    75 C33     10.6757  -8.7927   3.8251   C.3       1 RES1   0.0000
    76 H31     10.8088  -8.2317   3.0559   H         1 RES1   0.0000
    77 H32     11.1039  -9.6380   3.6818   H         1 RES1   0.0000
    78 H33     11.0542  -8.3701   4.5986   H         1 RES1   0.0000
    79 C34      5.0519  -9.1967   5.6621   C.3       1 RES1   0.0000
    80 H34      4.8957  -8.7927   6.5167   H         1 RES1   0.0000
    81 H35      4.6690 -10.0793   5.6512   H         1 RES1   0.0000
    82 H36      4.6450  -8.6656   4.9750   H         1 RES1   0.0000
    83 C35      7.2201  -7.9512   5.2103   C.ar      1 RES1   0.0000
    84 C36      6.5464  -9.2939   5.4116   C.3       1 RES1   0.0000
    85 H37      6.9619  -9.7390   6.1643   H         1 RES1   0.0000
    86 H38      6.6979  -9.8399   4.6238   H         1 RES1   0.0000
    87 N10      6.5597  -6.8805   5.6906   N.ar      1 RES1   0.0000
    88 Cl1      1.2628  -2.0536   8.5266   Cl        2 RES2   0.0000
    89 O3       0.2987  -1.9186   7.4839   O.3       2 RES2  -1.0000
    90 O4       2.1063  -0.9013   8.4303   O.2       2 RES2   0.0000
    91 O5       0.5769  -1.8700   9.8034   O.2       2 RES2   0.0000
    92 O6       1.8200  -3.2201   8.5944   O.2       2 RES2   0.0000
    93 Cl2      3.1337   7.3394   9.1032   Cl        3 RES3   0.0000
    94 O7       3.8081   6.8779  10.2520   O.3       3 RES3  -1.0000
    95 O8       2.7139   6.3842   8.3876   O.2       3 RES3   0.0000
    96 O9       2.2140   8.1569   9.2870   O.2       3 RES3   0.0000
    97 O10      4.0166   7.8989   8.3701   O.2       3 RES3   0.0000
@<TRIPOS>BOND
     1     1     2    1
     2     2     3   ar
     3     3     4   ar
     4     4     5   ar
     5     5     6   ar
     6     6     7   ar
     7     7     2   ar
     8     8     1    1
     9     9     7    1
    10    10     9   ar
    11    11    10    1
    12    12    10   ar
    13    13    12   ar
    14    14    13    1
    15    15     8   ar
    16    16    12    1
    17    17    16    1
    18    18    17    1
    19    19    17    1
    20    20    17    1
    21    21     1    1
    22    22    15    1
    23    23    22   ar
    24    24    23    1
    25    25    23   ar
    26    26    25    1
    27    27    25   ar
    28    28    27    1
    29    29    21   ar
    30    30    29    1
    31    31     4    1
    32    32    31    1
    33    33    31    1
    34    34    31    1
    35    35    34    1
    36    36    34    1
    37    37    34    1
    38    38    39    1
    39    40    38    1
    40    41    38    1
    41    42     5    1
    42    43    42    1
    43    44    42    1
    44    45     1    1
    45    46    45   ar
    46    47    46    1
    47    48    46   ar
    48    49    48    1
    49    50    48   ar
    50    51    50    1
    51    52    50   ar
    52    53    52    1
    53    54    45   ar
    54    55    54    1
    55    56     1    1
    56    57    58    1
    57    58    59    1
    58    60    58    1
    59    61    58    1
    60    62    55   ar
    61    63    62    1
    62    64    57    1
    63    65    64   ar
    64    66    65    1
    65    67    56   ar
    66    68    67    1
    67    69     1    1
    68    70    68   ar
    69    71    70   ar
    70    72    71    1
    71    73    72    1
    72    74    72    1
    73    75    72    1
    74    76    75    1
    75    77    75    1
    76    78    75    1
    77    79    80    1
    78    81    79    1
    79    82    79    1
    80    83    71   ar
    81    84    79    1
    82    85    84    1
    83    86    84    1
    84    87    69   ar
    85     8     9   ar
    86    13    15   ar
    87    21    22   ar
    88    27    29   ar
    89    38    42    1
    90    52    54   ar
    91    55    56   ar
    92    62    64   ar
    93    65    67   ar
    94    68    69   ar
    95    83    84    1
    96    83    87   ar
    97    88    89    1
    98    90    88    2
    99    91    88    2
   100    92    88    2
   101    93    94    1
   102    95    93    2
   103    96    93    2
   104    97    93    2
@<TRIPOS>SUBSTRUCTURE
     1 RES1        1 GROUP             0 ****  ****    0  
     2 RES2       88 GROUP             0 ****  ****    0  
     3 RES3       93 GROUP             0 ****  ****    0  
@<TRIPOS>CRYSIN
   10.1620   37.4000   11.0150   90.0000   96.6300   90.0000   231     1
