@<TRIPOS>MOLECULE
NELGUG
    75    77     4     0     0
SMALL
USER_CHARGES
****
Generated from the CSD

@<TRIPOS>ATOM
     1 Fe1      2.5548   1.3005   5.4148   Fe        1 RES1   2.0000
     2 N1       3.9946   0.0599   5.9623   N.3       1 RES1   0.0000
     3 N2       2.4624   0.2380   3.7789   N.ar      1 RES1   0.0000
     4 N3       1.3995  -0.0356   6.2617   N.ar      1 RES1   0.0000
     5 N4       4.0417   2.3657   4.7058   N.ar      1 RES1   0.0000
     6 N5       1.1197   2.4936   4.9102   N.1       1 RES1   0.0000
     7 N6       2.6965   2.3284   7.0619   N.1       1 RES1   0.0000
     8 C1       1.6085   0.4097   2.7458   C.ar      1 RES1   0.0000
     9 H1       1.0219   1.1577   2.7585   H         1 RES1   0.0000
    10 C2       1.5568  -0.4550   1.6779   C.ar      1 RES1   0.0000
    11 H2       0.9419  -0.3093   0.9697   H         1 RES1   0.0000
    12 C3       2.4097  -1.5334   1.6510   C.ar      1 RES1   0.0000
    13 H3       2.3827  -2.1487   0.9285   H         1 RES1   0.0000
    14 C4       3.3009  -1.7131   2.6841   C.ar      1 RES1   0.0000
    15 H4       3.9084  -2.4434   2.6745   H         1 RES1   0.0000
    16 C5       3.3021  -0.8128   3.7393   C.ar      1 RES1   0.0000
    17 C6       4.2538  -0.9553   4.8817   C.3       1 RES1   0.0000
    18 H5       5.1799  -0.8468   4.5489   H         1 RES1   0.0000
    19 H6       4.1704  -1.8653   5.2635   H         1 RES1   0.0000
    20 C7       0.0778  -0.2315   6.0700   C.ar      1 RES1   0.0000
    21 H7      -0.3930   0.3627   5.4949   H         1 RES1   0.0000
    22 C8      -0.6148  -1.2565   6.6737   C.ar      1 RES1   0.0000
    23 H8      -1.5440  -1.3666   6.5121   H         1 RES1   0.0000
    24 C9       0.0549  -2.1244   7.5119   C.ar      1 RES1   0.0000
    25 H9      -0.4071  -2.8255   7.9571   H         1 RES1   0.0000
    26 C10      1.4255  -1.9463   7.6925   C.ar      1 RES1   0.0000
    27 H10      1.9169  -2.5421   8.2455   H         1 RES1   0.0000
    28 C11      2.0618  -0.9019   7.0666   C.ar      1 RES1   0.0000
    29 C12      3.5256  -0.6056   7.2108   C.3       1 RES1   0.0000
    30 H11      3.6761  -0.0113   7.9872   H         1 RES1   0.0000
    31 H12      4.0294  -1.4459   7.3566   H         1 RES1   0.0000
    32 C13      3.9881   3.4068   3.8597   C.ar      1 RES1   0.0000
    33 H13      3.1455   3.6610   3.5032   H         1 RES1   0.0000
    34 C14      5.1055   4.1176   3.4921   C.ar      1 RES1   0.0000
    35 H14      5.0296   4.8706   2.9185   H         1 RES1   0.0000
    36 C15      6.3300   3.7225   3.9675   C.ar      1 RES1   0.0000
    37 H15      7.1150   4.2002   3.7234   H         1 RES1   0.0000
    38 C16      6.4125   2.6312   4.8009   C.ar      1 RES1   0.0000
    39 H16      7.2555   2.3236   5.1130   H         1 RES1   0.0000
    40 C17      5.2528   1.9900   5.1716   C.ar      1 RES1   0.0000
    41 C18      5.2206   0.8825   6.1904   C.3       1 RES1   0.0000
    42 H17      6.0286   0.3174   6.1001   H         1 RES1   0.0000
    43 H18      5.2072   1.2630   7.1031   H         1 RES1   0.0000
    44 C19      0.2441   3.2028   4.7106   C.1       1 RES1   0.0000
    45 C20     -0.8705   4.0982   4.4586   C.3       1 RES1   0.0000
    46 H19     -0.6357   4.7183   3.7393   H         1 RES1   0.0000
    47 H20     -1.0729   4.6050   5.2730   H         1 RES1   0.0000
    48 H21     -1.6570   3.5752   4.1972   H         1 RES1   0.0000
    49 C21      2.7476   3.0069   7.9761   C.1       1 RES1   0.0000
    50 C22      2.7680   3.8796   9.1518   C.3       1 RES1   0.0000
    51 H22      3.5507   4.4674   9.1090   H         1 RES1   0.0000
    52 H23      2.8142   3.3323   9.9630   H         1 RES1   0.0000
    53 H24      1.9528   4.4220   9.1692   H         1 RES1   0.0000
    54 S1       3.2324   0.6295  11.6704   S.o2      2 RES2   0.0000
    55 O1       2.5757   1.8912  11.8374   O.3       2 RES2  -1.0000
    56 O2       3.0304   0.0130  10.4019   O.2       2 RES2   0.0000
    57 O3       4.5810   0.5781  12.1479   O.2       2 RES2   0.0000
    58 C23      2.3622  -0.4728  12.8197   C.3       2 RES2   0.0000
    59 F1       2.7866  -1.7261  12.6914   F         2 RES2   0.0000
    60 F2       2.5489  -0.1538  14.0672   F         2 RES2   0.0000
    61 F3       1.0576  -0.4663  12.6011   F         2 RES2   0.0000
    62 S2       0.0869   3.7204  16.6628   S.o2      3 RES3   0.0000
    63 O4       1.0904   4.0885  17.6238   O.3       3 RES3  -1.0000
    64 O5      -0.5694   4.8382  16.0441   O.2       3 RES3   0.0000
    65 O6      -0.7745   2.6490  17.0724   O.2       3 RES3   0.0000
    66 C24      1.0650   2.9809  15.3248   C.3       3 RES3   0.0000
    67 F4       1.8700   2.0289  15.7938   F         3 RES3   0.0000
    68 F5       0.3069   2.4563  14.3899   F         3 RES3   0.0000
    69 F6       1.8407   3.8812  14.7249   F         3 RES3   0.0000
    70 N7      -0.6074  -5.4518   8.2058   N.1       4 RES4   0.0000
    71 C25     -0.0481  -6.1513   7.5119   C.1       4 RES4   0.0000
    72 C26      0.6429  -7.0678   6.6103   C.3       4 RES4   0.0000
    73 H25      0.9696  -7.8402   7.1173   H         4 RES4   0.0000
    74 H26      1.4019  -6.6063   6.1952   H         4 RES4   0.0000
    75 H27      0.0238  -7.3722   5.9147   H         4 RES4   0.0000
@<TRIPOS>BOND
     1     1     2    1
     2     2    17    1
     3     3     1    1
     4     4     1    1
     5     5     1    1
     6     6     1    1
     7     7     1    1
     8     8     3   ar
     9     9     8    1
    10    10     8   ar
    11    11    10    1
    12    12    10   ar
    13    13    12    1
    14    14    12   ar
    15    15    14    1
    16    16     3   ar
    17    17    16    1
    18    18    17    1
    19    19    17    1
    20    20     4   ar
    21    21    20    1
    22    22    20   ar
    23    23    22    1
    24    24    22   ar
    25    25    24    1
    26    26    24   ar
    27    27    26    1
    28    28     4   ar
    29    29     2    1
    30    30    29    1
    31    31    29    1
    32    32     5   ar
    33    33    32    1
    34    34    32   ar
    35    35    34    1
    36    36    34   ar
    37    37    36    1
    38    38    36   ar
    39    39    38    1
    40    40     5   ar
    41    41     2    1
    42    42    41    1
    43    43    41    1
    44    44     6    3
    45    45    44    1
    46    46    45    1
    47    47    45    1
    48    48    45    1
    49    49     7    3
    50    50    49    1
    51    51    50    1
    52    52    50    1
    53    53    50    1
    54    14    16   ar
    55    26    28   ar
    56    28    29    1
    57    38    40   ar
    58    40    41    1
    59    54    55    1
    60    56    54    2
    61    57    54    2
    62    58    54    1
    63    59    58    1
    64    60    58    1
    65    61    58    1
    66    62    63    1
    67    64    62    2
    68    65    62    2
    69    66    62    1
    70    67    66    1
    71    68    66    1
    72    69    66    1
    73    70    71    3
    74    71    72    1
    75    72    73    1
    76    74    72    1
    77    75    72    1
@<TRIPOS>SUBSTRUCTURE
     1 RES1        1 GROUP             0 ****  ****    0  
     2 RES2       54 GROUP             0 ****  ****    0  
     3 RES3       62 GROUP             0 ****  ****    0  
     4 RES4       70 GROUP             0 ****  ****    0  
@<TRIPOS>CRYSIN
   12.4180   16.1920   15.8550   90.0000   92.0900   90.0000   231     1
