@<TRIPOS>MOLECULE
NELGUG01
    75    77     4     0     0
SMALL
USER_CHARGES
****
Generated from the CSD

@<TRIPOS>ATOM
     1 Fe1      2.5824   9.3459   5.3472   Fe        1 RES1   2.0000
     2 N1       1.4071   8.0162   6.1862   N.ar      1 RES1   0.0000
     3 N2       2.7292  10.3650   6.9970   N.1       1 RES1   0.0000
     4 N3       2.4800   8.2844   3.7093   N.ar      1 RES1   0.0000
     5 N4       4.0768  10.4051   4.6469   N.ar      1 RES1   0.0000
     6 N5       4.0162   8.0859   5.8913   N.3       1 RES1   0.0000
     7 N6       1.1548  10.5580   4.8468   N.1       1 RES1   0.0000
     8 C1       3.3058   7.2250   3.6685   C.ar      1 RES1   0.0000
     9 C2      -0.6248   6.8293   6.5885   C.ar      1 RES1   0.0000
    10 H1      -1.5571   6.7388   6.4329   H         1 RES1   0.0000
    11 C3       0.0435   5.9413   7.4231   C.ar      1 RES1   0.0000
    12 H2      -0.4265   5.2413   7.8605   H         1 RES1   0.0000
    13 C4       0.0867   7.8397   5.9928   C.ar      1 RES1   0.0000
    14 H3      -0.3727   8.4413   5.4190   H         1 RES1   0.0000
    15 C5       2.0642   7.1401   6.9804   C.ar      1 RES1   0.0000
    16 C6       1.6197   8.4752   2.6855   C.ar      1 RES1   0.0000
    17 H4       1.0435   9.2304   2.7032   H         1 RES1   0.0000
    18 C7       2.7839  11.0485   7.9078   C.1       1 RES1   0.0000
    19 C8       0.2933  11.2772   4.6451   C.1       1 RES1   0.0000
    20 C9       1.4082   6.0975   7.6047   C.ar      1 RES1   0.0000
    21 H5       1.8900   5.4914   8.1551   H         1 RES1   0.0000
    22 C10      3.2888   6.3228   2.6148   C.ar      1 RES1   0.0000
    23 H6       3.8870   5.5850   2.6045   H         1 RES1   0.0000
    24 C11      6.4574  10.6517   4.7556   C.ar      1 RES1   0.0000
    25 H7       7.2962  10.3357   5.0695   H         1 RES1   0.0000
    26 C12      6.3891  11.7577   3.9293   C.ar      1 RES1   0.0000
    27 H8       7.1770  12.2351   3.6983   H         1 RES1   0.0000
    28 C13      5.2403   8.9039   6.1268   C.3       1 RES1   0.0000
    29 H9       6.0464   8.3364   6.0411   H         1 RES1   0.0000
    30 H10      5.2221   9.2820   7.0409   H         1 RES1   0.0000
    31 C14      4.2673   7.0766   4.8036   C.3       1 RES1   0.0000
    32 H11      5.1912   7.1858   4.4646   H         1 RES1   0.0000
    33 H12      4.1882   6.1643   5.1808   H         1 RES1   0.0000
    34 C15      3.5327   7.4204   7.1348   C.3       1 RES1   0.0000
    35 H13      3.6854   8.0088   7.9153   H         1 RES1   0.0000
    36 H14      4.0258   6.5742   7.2807   H         1 RES1   0.0000
    37 C16      5.1574  12.1581   3.4448   C.ar      1 RES1   0.0000
    38 H15      5.0896  12.9096   2.8678   H         1 RES1   0.0000
    39 C17      5.2875  10.0128   5.1168   C.ar      1 RES1   0.0000
    40 C18      4.0268  11.4516   3.8099   C.ar      1 RES1   0.0000
    41 H16      3.1856  11.7171   3.4554   H         1 RES1   0.0000
    42 C19      2.7974  11.9085   9.0739   C.3       1 RES1   0.0000
    43 H17      3.6207  12.4384   9.0797   H         1 RES1   0.0000
    44 H18      2.7573  11.3604   9.8852   H         1 RES1   0.0000
    45 H19      2.0232  12.5078   9.0468   H         1 RES1   0.0000
    46 C20      1.5527   7.6076   1.6180   C.ar      1 RES1   0.0000
    47 H20      0.9336   7.7619   0.9136   H         1 RES1   0.0000
    48 C21     -0.8125  12.1871   4.3930   C.3       1 RES1   0.0000
    49 H21     -0.7783  12.4933   3.4633   H         1 RES1   0.0000
    50 H22     -0.7439  12.9580   4.9943   H         1 RES1   0.0000
    51 H23     -1.6602  11.7235   4.5524   H         1 RES1   0.0000
    52 C22      2.3917   6.5105   1.5781   C.ar      1 RES1   0.0000
    53 H24      2.3532   5.8981   0.8541   H         1 RES1   0.0000
    54 S1       9.7412  15.4941   3.7674   S.o2      2 RES2   0.0000
    55 F1       7.5101  16.5704   4.6301   F         2 RES2   0.0000
    56 F2       9.1948  17.9038   4.6425   F         2 RES2   0.0000
    57 F3       9.0180  16.3829   6.1292   F         2 RES2   0.0000
    58 O1       9.1040  14.2238   3.9799   O.2       2 RES2   0.0000
    59 O2      11.0875  15.5977   4.2687   O.3       2 RES2  -1.0000
    60 O3       9.5440  16.0591   2.4581   O.2       2 RES2   0.0000
    61 C23      8.8193  16.6389   4.8518   C.3       2 RES2   0.0000
    62 S2       6.5997  12.4515   8.6146   S.o2      3 RES3   0.0000
    63 F4       8.3614  12.2478   6.6803   F         3 RES3   0.0000
    64 F5       6.8292  13.7116   6.3329   F         3 RES3   0.0000
    65 F6       8.4083  14.1175   7.7367   F         3 RES3   0.0000
    66 O4       5.9352  11.3287   8.0065   O.2       3 RES3   0.0000
    67 O5       7.6041  12.0948   9.5871   O.3       3 RES3  -1.0000
    68 O6       5.7316  13.5354   9.0040   O.2       3 RES3   0.0000
    69 C24      7.5954  13.1739   7.2662   C.3       3 RES3   0.0000
    70 N7      12.4699  13.4804   7.5463   N.1       4 RES4   0.0000
    71 C25     11.8939  14.1962   8.2162   C.1       4 RES4   0.0000
    72 C26     11.1758  15.1202   9.0855   C.3       4 RES4   0.0000
    73 H25     10.7652  15.8256   8.5437   H         4 RES4   0.0000
    74 H26     11.8026  15.5206   9.7237   H         4 RES4   0.0000
    75 H27     10.4782  14.6346   9.5733   H         4 RES4   0.0000
@<TRIPOS>BOND
     1     1     2    1
     2     2    13   ar
     3     3     1    1
     4     4     1    1
     5     5     1    1
     6     6     1    1
     7     7     1    1
     8     8     4   ar
     9     9    10    1
    10    11     9   ar
    11    12    11    1
    12    13     9   ar
    13    14    13    1
    14    15     2   ar
    15    16     4   ar
    16    17    16    1
    17    18     3    3
    18    19     7    3
    19    20    11   ar
    20    21    20    1
    21    22     8   ar
    22    23    22    1
    23    24    25    1
    24    26    24   ar
    25    27    26    1
    26    28     6    1
    27    29    28    1
    28    30    28    1
    29    31     6    1
    30    32    31    1
    31    33    31    1
    32    34     6    1
    33    35    34    1
    34    36    34    1
    35    37    26   ar
    36    38    37    1
    37    39     5   ar
    38    40     5   ar
    39    41    40    1
    40    42    18    1
    41    43    42    1
    42    44    42    1
    43    45    42    1
    44    46    16   ar
    45    47    46    1
    46    48    19    1
    47    49    48    1
    48    50    48    1
    49    51    48    1
    50    52    22   ar
    51    53    52    1
    52     8    31    1
    53    15    20   ar
    54    15    34    1
    55    24    39   ar
    56    28    39    1
    57    37    40   ar
    58    46    52   ar
    59    54    58    2
    60    55    61    1
    61    56    61    1
    62    57    61    1
    63    59    54    1
    64    60    54    2
    65    61    54    1
    66    62    66    2
    67    63    69    1
    68    64    69    1
    69    65    69    1
    70    67    62    1
    71    68    62    2
    72    69    62    1
    73    70    71    3
    74    71    72    1
    75    72    73    1
    76    74    72    1
    77    75    72    1
@<TRIPOS>SUBSTRUCTURE
     1 RES1        1 GROUP             0 ****  ****    0  
     2 RES2       54 GROUP             0 ****  ****    0  
     3 RES3       62 GROUP             0 ****  ****    0  
     4 RES4       70 GROUP             0 ****  ****    0  
@<TRIPOS>CRYSIN
   12.4020   16.1370   15.6800   90.0000   91.9600   90.0000   231     1
