@<TRIPOS>MOLECULE
NELGIU
    97   104     3     0     0
SMALL
USER_CHARGES
****
Generated from the CSD

@<TRIPOS>ATOM
     1 Fe1     -5.6909  -2.1151  -0.1870   Fe        1 RES1   2.0000
     2 N1      -5.7787  -0.0203  -1.2022   N.3       1 RES1   0.0000
     3 N2      -6.9910  -0.9653   1.0811   N.ar      1 RES1   0.0000
     4 N3      -3.6834  -1.2509  -0.0404   N.ar      1 RES1   0.0000
     5 N4      -8.4468   1.8333  -2.0640   N.ar      1 RES1   0.0000
     6 N5      -4.9181  -3.8774  -1.4792   N.3       1 RES1   0.0000
     7 N6      -7.3801  -2.8858  -1.3946   N.ar      1 RES1   0.0000
     8 N7      -5.3489  -3.6991   1.2022   N.ar      1 RES1   0.0000
     9 N8      -3.0620  -6.1888  -2.5988   N.ar      1 RES1   0.0000
    10 C1      -7.8249  -1.4849   2.0275   C.ar      1 RES1   0.0000
    11 H1      -7.8271  -2.4259   2.1602   H         1 RES1   0.0000
    12 C2      -8.6600  -0.7111   2.7969   C.ar      1 RES1   0.0000
    13 H2      -9.2182  -1.1112   3.4528   H         1 RES1   0.0000
    14 C3      -8.6757   0.6594   2.5988   C.ar      1 RES1   0.0000
    15 H3      -9.2499   1.2135   3.1162   H         1 RES1   0.0000
    16 C4      -7.8530   1.2054   1.6524   C.ar      1 RES1   0.0000
    17 H4      -7.8500   2.1433   1.4985   H         1 RES1   0.0000
    18 C5      -7.0224   0.3697   0.9176   C.ar      1 RES1   0.0000
    19 C6      -6.0384   0.9076  -0.0731   C.3       1 RES1   0.0000
    20 H5      -6.3793   1.7645  -0.4328   H         1 RES1   0.0000
    21 H6      -5.1847   1.0949   0.3924   H         1 RES1   0.0000
    22 C7      -2.7182  -1.7412   0.7637   C.ar      1 RES1   0.0000
    23 H7      -2.9283  -2.4695   1.3369   H         1 RES1   0.0000
    24 C8      -1.4356  -1.2266   0.7867   C.ar      1 RES1   0.0000
    25 H8      -0.7719  -1.6156   1.3446   H         1 RES1   0.0000
    26 C9      -1.1374  -0.1570   0.0038   C.ar      1 RES1   0.0000
    27 H9      -0.2634   0.2137   0.0077   H         1 RES1   0.0000
    28 C10     -2.1289   0.3879  -0.8041   C.ar      1 RES1   0.0000
    29 H10     -1.9556   1.1598  -1.3292   H         1 RES1   0.0000
    30 C11     -3.3706  -0.2127  -0.8291   C.ar      1 RES1   0.0000
    31 C12     -4.4503   0.2654  -1.7639   C.3       1 RES1   0.0000
    32 H11     -4.3543   1.2398  -1.9120   H         1 RES1   0.0000
    33 H12     -4.3562  -0.1884  -2.6392   H         1 RES1   0.0000
    34 C13     -8.9875   2.9516  -2.5237   C.ar      1 RES1   0.0000
    35 H13     -9.7437   3.2960  -2.0640   H         1 RES1   0.0000
    36 C14     -8.5300   3.6586  -3.6317   C.ar      1 RES1   0.0000
    37 H14     -8.9892   4.4254  -3.9530   H         1 RES1   0.0000
    38 C15     -7.4122   3.2119  -4.2280   C.ar      1 RES1   0.0000
    39 H15     -7.0473   3.6890  -4.9629   H         1 RES1   0.0000
    40 C16     -6.7872   2.0602  -3.7779   C.ar      1 RES1   0.0000
    41 H16     -5.9977   1.7361  -4.1973   H         1 RES1   0.0000
    42 C17     -7.3467   1.3958  -2.7026   C.ar      1 RES1   0.0000
    43 C18     -6.8627   0.0466  -2.2352   C.3       1 RES1   0.0000
    44 H17     -7.6456  -0.4437  -1.8774   H         1 RES1   0.0000
    45 H18     -6.5486  -0.4507  -3.0316   H         1 RES1   0.0000
    46 C19     -8.6773  -2.5768  -1.2080   C.ar      1 RES1   0.0000
    47 H19     -8.9751  -2.3661  -0.3309   H         1 RES1   0.0000
    48 C20     -9.5844  -2.5525  -2.2352   C.ar      1 RES1   0.0000
    49 H20    -10.4950  -2.3428  -2.0659   H         1 RES1   0.0000
    50 C21     -9.1624  -2.8351  -3.5067   C.ar      1 RES1   0.0000
    51 H21     -9.7650  -2.7723  -4.2377   H         1 RES1   0.0000
    52 C22     -7.8586  -3.2099  -3.7087   C.ar      1 RES1   0.0000
    53 H22     -7.5508  -3.4398  -4.5781   H         1 RES1   0.0000
    54 C23     -6.9958  -3.2474  -2.6199   C.ar      1 RES1   0.0000
    55 C24     -5.5731  -3.7123  -2.7988   C.3       1 RES1   0.0000
    56 H23     -5.5641  -4.5753  -3.2836   H         1 RES1   0.0000
    57 H24     -5.0727  -3.0498  -3.3374   H         1 RES1   0.0000
    58 C25     -5.2315  -3.5067   2.5276   C.ar      1 RES1   0.0000
    59 H25     -5.3149  -2.6264   2.8758   H         1 RES1   0.0000
    60 C26     -4.9921  -4.5621   3.4086   C.ar      1 RES1   0.0000
    61 H26     -4.9186  -4.4041   4.3435   H         1 RES1   0.0000
    62 C27     -4.8657  -5.8232   2.9046   C.ar      1 RES1   0.0000
    63 H27     -4.7158  -6.5595   3.4875   H         1 RES1   0.0000
    64 C28     -4.9573  -6.0197   1.5235   C.ar      1 RES1   0.0000
    65 H28     -4.8411  -6.8847   1.1484   H         1 RES1   0.0000
    66 C29     -5.2192  -4.9409   0.7194   C.ar      1 RES1   0.0000
    67 C30     -5.4357  -5.0817  -0.7656   C.3       1 RES1   0.0000
    68 H29     -4.9671  -5.8900  -1.0964   H         1 RES1   0.0000
    69 H30     -6.4017  -5.1891  -0.9522   H         1 RES1   0.0000
    70 C31     -2.5020  -6.9596  -3.5548   C.ar      1 RES1   0.0000
    71 H31     -2.6350  -7.8996  -3.5048   H         1 RES1   0.0000
    72 C32     -1.7537  -6.4684  -4.5897   C.ar      1 RES1   0.0000
    73 H32     -1.3642  -7.0599  -5.2225   H         1 RES1   0.0000
    74 C33     -1.5720  -5.1192  -4.7051   C.ar      1 RES1   0.0000
    75 H33     -1.0528  -4.7505  -5.4091   H         1 RES1   0.0000
    76 C34     -2.1770  -4.3028  -3.7491   C.ar      1 RES1   0.0000
    77 H34     -2.0968  -3.3588  -3.8106   H         1 RES1   0.0000
    78 C35     -2.8957  -4.8700  -2.7123   C.ar      1 RES1   0.0000
    79 C36     -3.4314  -3.9463  -1.6447   C.3       1 RES1   0.0000
    80 H35     -3.0400  -4.2208  -0.7771   H         1 RES1   0.0000
    81 H36     -3.1023  -3.0326  -1.8390   H         1 RES1   0.0000
    82 S1      -3.7343  -0.4983  -5.6767   S.o2      2 RES2   0.0000
    83 O1      -4.0563   0.8518  -5.3264   O.3       2 RES2  -1.0000
    84 O2      -4.2718  -1.4950  -4.7955   O.2       2 RES2   0.0000
    85 O3      -3.8109  -0.8144  -7.0750   O.2       2 RES2   0.0000
    86 C37     -1.9437  -0.5915  -5.3226   C.3       2 RES2   0.0000
    87 F1      -1.7082  -0.5216  -4.0068   F         2 RES2   0.0000
    88 F2      -1.4097  -1.7209  -5.7535   F         2 RES2   0.0000
    89 F3      -1.2704   0.4153  -5.8843   F         2 RES2   0.0000
    90 S2      -9.4699  -5.1425   2.0017   S.o2      3 RES3   0.0000
    91 O4      -9.4766  -6.1210   3.0489   O.3       3 RES3  -1.0000
    92 O5      -8.3067  -5.1516   1.1657   O.2       3 RES3   0.0000
    93 O6      -9.9624  -3.8612   2.3679   O.2       3 RES3   0.0000
    94 C38    -10.7729  -5.7543   0.8925   C.3       3 RES3   0.0000
    95 F4     -10.5412  -6.9981   0.4944   F         3 RES3   0.0000
    96 F5     -11.9598  -5.7239   1.4735   F         3 RES3   0.0000
    97 F6     -10.8596  -5.0027  -0.2001   F         3 RES3   0.0000
@<TRIPOS>BOND
     1     1     2    1
     2     2    19    1
     3     3     1    1
     4     4     1    1
     5     5    34   ar
     6     6     1    1
     7     7     1    1
     8     8     1    1
     9     9    70   ar
    10    10     3   ar
    11    11    10    1
    12    12    10   ar
    13    13    12    1
    14    14    12   ar
    15    15    14    1
    16    16    14   ar
    17    17    16    1
    18    18     3   ar
    19    19    18    1
    20    20    19    1
    21    21    19    1
    22    22     4   ar
    23    23    22    1
    24    24    22   ar
    25    25    24    1
    26    26    24   ar
    27    27    26    1
    28    28    26   ar
    29    29    28    1
    30    30     4   ar
    31    31     2    1
    32    32    31    1
    33    33    31    1
    34    34    35    1
    35    36    34   ar
    36    37    36    1
    37    38    36   ar
    38    39    38    1
    39    40    38   ar
    40    41    40    1
    41    42     5   ar
    42    43     2    1
    43    44    43    1
    44    45    43    1
    45    46     7   ar
    46    47    46    1
    47    48    46   ar
    48    49    48    1
    49    50    48   ar
    50    51    50    1
    51    52    50   ar
    52    53    52    1
    53    54     7   ar
    54    55     6    1
    55    56    55    1
    56    57    55    1
    57    58     8   ar
    58    59    58    1
    59    60    58   ar
    60    61    60    1
    61    62    60   ar
    62    63    62    1
    63    64    62   ar
    64    65    64    1
    65    66     8   ar
    66    67     6    1
    67    68    67    1
    68    69    67    1
    69    70    71    1
    70    72    70   ar
    71    73    72    1
    72    74    72   ar
    73    75    74    1
    74    76    74   ar
    75    77    76    1
    76    78     9   ar
    77    79     6    1
    78    80    79    1
    79    81    79    1
    80    16    18   ar
    81    28    30   ar
    82    30    31    1
    83    40    42   ar
    84    42    43    1
    85    52    54   ar
    86    54    55    1
    87    64    66   ar
    88    66    67    1
    89    76    78   ar
    90    78    79    1
    91    82    83    1
    92    84    82    2
    93    85    82    2
    94    86    82    1
    95    87    86    1
    96    88    86    1
    97    89    86    1
    98    90    91    1
    99    92    90    2
   100    93    90    2
   101    94    90    1
   102    95    94    1
   103    96    94    1
   104    97    94    1
@<TRIPOS>SUBSTRUCTURE
     1 RES1        1 GROUP             0 ****  ****    0  
     2 RES2       82 GROUP             0 ****  ****    0  
     3 RES3       90 GROUP             0 ****  ****    0  
@<TRIPOS>CRYSIN
   10.2360   10.1290   19.2510   90.0000   92.2700   90.0000     7     1
