@<TRIPOS>MOLECULE
NEPPIJ
    82    80     5     0     0
SMALL
USER_CHARGES
****
Generated from the CSD

@<TRIPOS>ATOM
     1 Fe1     19.3466   7.9831  11.8393   Fe        1 RES1   0.0000
     2 N1      21.1290   8.0859  10.8007   N.2       1 RES1  -1.0000
     3 C1      22.1375   7.9434  10.2508   C.1       1 RES1   0.0000
     4 S1      23.5309   7.7333   9.4567   S.2       1 RES1   0.0000
     5 N2      18.3514   8.7864  10.2233   N.2       1 RES1   0.0000
     6 C2      17.8712   9.1594   9.2294   C.1       1 RES1   0.0000
     7 S2      17.1944   9.7026   7.8614   S.2       1 RES1   0.0000
     8 N3      17.5891   7.8652  12.9307   N.2       1 RES1  -1.0000
     9 C3      16.6644   8.0048  13.6201   C.1       1 RES1   0.0000
    10 S3      15.3847   8.2258  14.5967   S.2       1 RES1   0.0000
    11 N4      19.0290   6.1168  11.0460   N.2       1 RES1   0.0000
    12 C4      18.6989   5.2480  10.3452   C.1       1 RES1   0.0000
    13 S4      18.2036   4.0266   9.4019   S.2       1 RES1   0.0000
    14 N5      20.3862   7.1672  13.4440   N.2       1 RES1  -1.0000
    15 C5      20.9982   6.7662  14.3470   C.1       1 RES1   0.0000
    16 S5      21.8328   6.1668  15.6178   S.2       1 RES1   0.0000
    17 N6      19.6350   9.8539  12.6490   N.2       1 RES1   0.0000
    18 C6      19.8925  10.7840  13.3012   C.1       1 RES1   0.0000
    19 S6      20.3027  12.0826  14.1794   S.2       1 RES1   0.0000
    20 N7      18.6810   7.4590  16.7032   N.ar      2 RES2   1.0000
    21 H1      18.2066   6.8516  16.2808   H         2 RES2   0.0000
    22 C7      19.2158   7.1676  17.9017   C.ar      2 RES2   0.0000
    23 H2      19.0854   6.3027  18.2708   H         2 RES2   0.0000
    24 C8      19.9372   8.0814  18.5922   C.ar      2 RES2   0.0000
    25 H3      20.2927   7.8590  19.4447   H         2 RES2   0.0000
    26 C9      20.1634   9.3720  18.0470   C.ar      2 RES2   0.0000
    27 C10     19.5776   9.6323  16.7766   C.ar      2 RES2   0.0000
    28 H4      19.6874  10.4843  16.3719   H         2 RES2   0.0000
    29 C11     18.8628   8.6709  16.1416   C.ar      2 RES2   0.0000
    30 H5      18.4847   8.8534  15.2890   H         2 RES2   0.0000
    31 C12     21.5058  10.0607  19.9720   C.3       2 RES2   0.0000
    32 H6      20.9117  10.3609  20.6924   H         2 RES2   0.0000
    33 H7      22.3511  10.5545  20.0191   H         2 RES2   0.0000
    34 H8      21.6809   9.1021  20.0709   H         2 RES2   0.0000
    35 C13     21.1047  11.6182  18.0731   C.3       2 RES2   0.0000
    36 H9      21.5854  11.5012  17.2272   H         2 RES2   0.0000
    37 H10     21.6398  12.1718  18.6789   H         2 RES2   0.0000
    38 H11     20.2453  12.0565  17.9020   H         2 RES2   0.0000
    39 N8      20.8711  10.3072  18.6870   N.pl3     2 RES2   0.0000
    40 N9      13.3093   2.1839   8.6845   N.ar      3 RES3   1.0000
    41 H12     12.8939   1.5697   8.2095   H         3 RES3   0.0000
    42 C14     13.5373   3.3981   8.1505   C.ar      3 RES3   0.0000
    43 H13     13.2632   3.5719   7.2584   H         3 RES3   0.0000
    44 C15     14.1488   4.3749   8.8598   C.ar      3 RES3   0.0000
    45 H14     14.2891   5.2291   8.4668   H         3 RES3   0.0000
    46 C16     14.5817   4.1267  10.1919   C.ar      3 RES3   0.0000
    47 C17     14.3371   2.8337  10.7061   C.ar      3 RES3   0.0000
    48 H15     14.6090   2.6158  11.5899   H         3 RES3   0.0000
    49 C18     13.7098   1.8972   9.9358   C.ar      3 RES3   0.0000
    50 H16     13.5540   1.0290  10.2889   H         3 RES3   0.0000
    51 C19     15.4590   6.3920  10.3564   C.3       3 RES3   0.0000
    52 H17     16.0001   6.2994   9.5434   H         3 RES3   0.0000
    53 H18     15.9466   6.9335  11.0124   H         3 RES3   0.0000
    54 H19     14.6112   6.8309  10.1351   H         3 RES3   0.0000
    55 C20     15.7268   4.7737  12.2475   C.3       3 RES3   0.0000
    56 H20     14.9893   4.5585  12.8564   H         3 RES3   0.0000
    57 H21     16.2125   5.5542  12.5865   H         3 RES3   0.0000
    58 H22     16.3364   4.0085  12.1910   H         3 RES3   0.0000
    59 N10     15.1919   5.0701  10.9173   N.pl3     3 RES3   0.0000
    60 N11     11.6735   4.1226  12.2977   N.ar      4 RES4   1.0000
    61 H23     12.0858   4.8101  12.6603   H         4 RES4   0.0000
    62 C21     11.6521   2.9450  12.9349   C.ar      4 RES4   0.0000
    63 H24     12.0791   2.8692  13.7808   H         4 RES4   0.0000
    64 C22     11.0377   1.8599  12.4060   C.ar      4 RES4   0.0000
    65 H25     11.0617   1.0294  12.8674   H         4 RES4   0.0000
    66 C23     10.3604   1.9613  11.1678   C.ar      4 RES4   0.0000
    67 C24     10.4216   3.2195  10.5196   C.ar      4 RES4   0.0000
    68 H26     10.0087   3.3340   9.6706   H         4 RES4   0.0000
    69 C25     11.0628   4.2600  11.1003   C.ar      4 RES4   0.0000
    70 H27     11.0857   5.1012  10.6593   H         4 RES4   0.0000
    71 C26      9.0371   1.0357   9.3410   C.3       4 RES4   0.0000
    72 H28      9.7119   1.1537   8.6395   H         4 RES4   0.0000
    73 H29      8.4304   1.8047   9.3441   H         4 RES4   0.0000
    74 H30      8.5264   0.2170   9.1684   H         4 RES4   0.0000
    75 C27      9.6820  -0.3735  11.2902   C.3       4 RES4   0.0000
    76 H31      9.4060  -0.2714  12.2255   H         4 RES4   0.0000
    77 H32     10.5775  -0.7698  11.2557   H         4 RES4   0.0000
    78 H33      9.0472  -0.9593  10.8256   H         4 RES4   0.0000
    79 N12      9.7019   0.9318  10.6439   N.pl3     4 RES4   0.0000
    80 O1      12.9085   6.1026  13.7431   O.3       5 RES5   0.0000
    81 H34     13.6118   6.5264  13.9142   H         5 RES5   0.0000
    82 H35     12.4841   6.0550  14.4666   H         5 RES5   0.0000
@<TRIPOS>BOND
     1     1     2    1
     2     2     3    2
     3     3     4    2
     4     5     1    1
     5     6     5    2
     6     7     6    2
     7     8     1    1
     8     9     8    2
     9    10     9    2
    10    11     1    1
    11    12    11    2
    12    13    12    2
    13    14     1    1
    14    15    14    2
    15    16    15    2
    16    17     1    1
    17    18    17    2
    18    19    18    2
    19    20    21    1
    20    22    20   ar
    21    23    22    1
    22    24    22   ar
    23    25    24    1
    24    26    24   ar
    25    27    26   ar
    26    28    27    1
    27    29    20   ar
    28    30    29    1
    29    31    32    1
    30    33    31    1
    31    34    31    1
    32    35    36    1
    33    37    35    1
    34    38    35    1
    35    39    26    1
    36    27    29   ar
    37    31    39    1
    38    35    39    1
    39    40    41    1
    40    42    40   ar
    41    43    42    1
    42    44    42   ar
    43    45    44    1
    44    46    44   ar
    45    47    46   ar
    46    48    47    1
    47    49    40   ar
    48    50    49    1
    49    51    52    1
    50    53    51    1
    51    54    51    1
    52    55    56    1
    53    57    55    1
    54    58    55    1
    55    59    46    1
    56    47    49   ar
    57    51    59    1
    58    55    59    1
    59    60    61    1
    60    62    60   ar
    61    63    62    1
    62    64    62   ar
    63    65    64    1
    64    66    64   ar
    65    67    66   ar
    66    68    67    1
    67    69    60   ar
    68    70    69    1
    69    71    72    1
    70    73    71    1
    71    74    71    1
    72    75    76    1
    73    77    75    1
    74    78    75    1
    75    79    66    1
    76    67    69   ar
    77    71    79    1
    78    75    79    1
    79    80    81    1
    80    82    80    1
@<TRIPOS>SUBSTRUCTURE
     1 RES1        1 GROUP             0 ****  ****    0  
     2 RES2       20 GROUP             0 ****  ****    0  
     3 RES3       40 GROUP             0 ****  ****    0  
     4 RES4       60 GROUP             0 ****  ****    0  
     5 RES5       80 GROUP             0 ****  ****    0  
@<TRIPOS>CRYSIN
   11.5780   11.7620   16.5450   81.2600   71.5500   62.9500     2     1
