@<TRIPOS>MOLECULE
NEPQIM
    76    80     3     0     0
SMALL
USER_CHARGES
****
Generated from the CSD

@<TRIPOS>ATOM
     1 Fe1     -1.3166  -2.5689   6.0972   Fe        1 RES1   2.0000
     2 N1       1.0512  -5.9687   7.2743   N.pl3     1 RES1   0.0000
     3 N2       1.3232  -5.0882   8.2423   N.2       1 RES1   0.0000
     4 N3       0.6947  -4.0070   7.9520   N.2       1 RES1   0.0000
     5 N4       0.0003  -4.1625   6.7976   N.2       1 RES1   0.0000
     6 N5       1.0000   0.1143   8.5488   N.pl3     1 RES1   0.0000
     7 N6       1.0990   0.7251   7.3534   N.2       1 RES1   0.0000
     8 N7       0.4437   0.0035   6.5089   N.2       1 RES1   0.0000
     9 N8      -0.0893  -1.0775   7.1388   N.2       1 RES1   0.0000
    10 N9      -3.7269  -2.1438   9.5946   N.2       1 RES1   0.0000
    11 N10     -3.5018  -3.4642   9.6815   N.pl3     1 RES1   0.0000
    12 C1      -2.7537  -3.8284   8.6581   C.2       1 RES1   0.0000
    13 N11     -2.5021  -2.7737   7.9168   N.2       1 RES1   0.0000
    14 C2       0.2402  -5.3885   6.4033   C.2       1 RES1   0.0000
    15 C3       1.5906  -7.3230   7.3289   C.3       1 RES1   0.0000
    16 H1       1.2111  -7.8557   6.5984   H         1 RES1   0.0000
    17 H2       1.3568  -7.7332   8.1874   H         1 RES1   0.0000
    18 H3       2.5656  -7.2907   7.2362   H         1 RES1   0.0000
    19 C4       0.2751  -0.9827   8.3971   C.2       1 RES1   0.0000
    20 C5       1.6550   0.6643   9.7336   C.3       1 RES1   0.0000
    21 H4       1.3663   0.1651  10.5275   H         1 RES1   0.0000
    22 H5       1.4099   1.6076   9.8349   H         1 RES1   0.0000
    23 H6       2.6266   0.5869   9.6361   H         1 RES1   0.0000
    24 N12     -3.1278  -1.7337   8.5276   N.2       1 RES1   0.0000
    25 C6      -4.0276  -4.2590  10.7860   C.3       1 RES1   0.0000
    26 H7      -4.0383  -5.2053  10.5312   H         1 RES1   0.0000
    27 H8      -4.9388  -3.9662  10.9933   H         1 RES1   0.0000
    28 H9      -3.4581  -4.1385  11.5738   H         1 RES1   0.0000
    29 H10      0.1040  -1.5908   9.0239   H         1 RES1   0.0000
    30 H11     -0.1025  -5.8003   5.7070   H         1 RES1   0.0000
    31 H12     -2.4886  -4.6539   8.4752   H         1 RES1   0.0000
    32 N1A     -3.6843   0.8308   4.9202   N.pl3     1 RES1   0.0000
    33 N2A     -3.9563  -0.0497   3.9522   N.2       1 RES1   0.0000
    34 N3A     -3.3278  -1.1309   4.2425   N.2       1 RES1   0.0000
    35 N4A     -2.6334  -0.9754   5.3969   N.2       1 RES1   0.0000
    36 N5A     -3.6331  -5.2522   3.6457   N.pl3     1 RES1   0.0000
    37 N6A     -3.7321  -5.8630   4.8411   N.2       1 RES1   0.0000
    38 N7A     -3.0768  -5.1414   5.6856   N.2       1 RES1   0.0000
    39 N8A     -2.5438  -4.0604   5.0557   N.2       1 RES1   0.0000
    40 N9A      1.0938  -2.9941   2.5999   N.2       1 RES1   0.0000
    41 N10A     0.8687  -1.6737   2.5130   N.pl3     1 RES1   0.0000
    42 C1A      0.1206  -1.3095   3.5364   C.2       1 RES1   0.0000
    43 N11A    -0.1310  -2.3641   4.2777   N.2       1 RES1   0.0000
    44 C2A     -2.8733   0.2507   5.7912   C.2       1 RES1   0.0000
    45 C3A     -4.2237   2.1851   4.8656   C.3       1 RES1   0.0000
    46 H1A     -3.8442   2.7178   5.5961   H         1 RES1   0.0000
    47 H2A     -3.9899   2.5953   4.0071   H         1 RES1   0.0000
    48 H3A     -5.1987   2.1528   4.9583   H         1 RES1   0.0000
    49 C4A     -2.9082  -4.1552   3.7974   C.2       1 RES1   0.0000
    50 C5A     -4.2881  -5.8021   2.4608   C.3       1 RES1   0.0000
    51 H4A     -3.9994  -5.3030   1.6670   H         1 RES1   0.0000
    52 H5A     -4.0430  -6.7455   2.3596   H         1 RES1   0.0000
    53 H6A     -5.2597  -5.7248   2.5584   H         1 RES1   0.0000
    54 N12A     0.4947  -3.4042   3.6669   N.2       1 RES1   0.0000
    55 C6A      1.3945  -0.8788   1.4085   C.3       1 RES1   0.0000
    56 H7A      1.4052   0.0675   1.6633   H         1 RES1   0.0000
    57 H8A      2.3057  -1.1717   1.2012   H         1 RES1   0.0000
    58 H9A      0.8249  -0.9993   0.6207   H         1 RES1   0.0000
    59 H10A    -2.7371  -3.5470   3.1706   H         1 RES1   0.0000
    60 H11A    -2.5306   0.6624   6.4875   H         1 RES1   0.0000
    61 H12A    -0.1445  -0.4840   3.7193   H         1 RES1   0.0000
    62 N13      5.6142   3.5870   2.4084   N.pl3     2 RES2   0.0000
    63 C7       5.6091   2.2592   2.3816   C.2       2 RES2   0.0000
    64 N14      5.9841   1.7899   3.5437   N.2       2 RES2   0.0000
    65 N15      6.2062   2.8722   4.3059   N.2       2 RES2   0.0000
    66 N16      5.9876   3.9533   3.6437   N.2       2 RES2   0.0000
    67 C8       5.3831   4.5647   1.3463   C.3       2 RES2   0.0000
    68 H13      6.1361   4.5513   0.7195   H         2 RES2   0.0000
    69 H14      5.3013   5.4603   1.7377   H         2 RES2   0.0000
    70 H15      4.5567   4.3403   0.8695   H         2 RES2   0.0000
    71 H16      5.3395   1.6672   1.7194   H         2 RES2   0.0000
    72 Cl1      4.1753   8.6524   0.0961   Cl        3 RES3   0.0000
    73 O1       5.4025   8.6494  -0.5646   O.2       3 RES3   0.0000
    74 O2       3.2006   8.9771  -0.8658   O.3       3 RES3  -1.0000
    75 O3       3.8966   7.3651   0.5878   O.2       3 RES3   0.0000
    76 O4       4.2269   9.6221   1.1109   O.2       3 RES3   0.0000
@<TRIPOS>BOND
     1     1     5    1
     2     2     3    1
     3     3     4    2
     4     4     5    1
     5     5    14    2
     6     6     7    1
     7     7     8    2
     8     8     9    1
     9     9     1    1
    10    10    11    1
    11    11    12    1
    12    12    13    2
    13    13     1    1
    14    14     2    1
    15    15     2    1
    16    16    15    1
    17    17    15    1
    18    18    15    1
    19    19     6    1
    20    20     6    1
    21    21    20    1
    22    22    20    1
    23    23    20    1
    24    24    10    2
    25    25    11    1
    26    26    25    1
    27    27    25    1
    28    28    25    1
    29    29    19    1
    30    30    14    1
    31    31    12    1
    32    32    33    1
    33    33    34    2
    34    34    35    1
    35    35     1    1
    36    36    37    1
    37    37    38    2
    38    38    39    1
    39    39     1    1
    40    40    41    1
    41    41    42    1
    42    42    43    2
    43    43     1    1
    44    44    32    1
    45    45    32    1
    46    46    45    1
    47    47    45    1
    48    48    45    1
    49    49    36    1
    50    50    36    1
    51    51    50    1
    52    52    50    1
    53    53    50    1
    54    54    40    2
    55    55    41    1
    56    56    55    1
    57    57    55    1
    58    58    55    1
    59    59    49    1
    60    60    44    1
    61    61    42    1
    62     9    19    2
    63    13    24    1
    64    35    44    2
    65    39    49    2
    66    43    54    1
    67    62    63    1
    68    63    64    2
    69    64    65    1
    70    65    66    2
    71    66    62    1
    72    67    62    1
    73    68    67    1
    74    69    67    1
    75    70    67    1
    76    71    63    1
    77    72    73    2
    78    74    72    1
    79    75    72    2
    80    76    72    2
@<TRIPOS>SUBSTRUCTURE
     1 RES1        1 GROUP             0 ****  ****    0  
     2 RES2       62 GROUP             0 ****  ****    0  
     3 RES3       72 GROUP             0 ****  ****    0  
@<TRIPOS>CRYSIN
    7.0337   11.3122   13.4921  111.4330  101.2540   94.2200     2     1
