@<TRIPOS>MOLECULE
NERDIA
    77    86     3     0     0
SMALL
USER_CHARGES
****
Generated from the CSD

@<TRIPOS>ATOM
     1 Fe1      5.8305   8.0860   6.3910   Fe        1 RES1   2.0000
     2 N1       6.9608   8.5610   9.2605   N.pl3     1 RES1   0.0000
     3 H1       6.9055   9.4307   9.3624   H         1 RES1   0.0000
     4 N2       6.5234   7.8194   8.2164   N.2       1 RES1   0.0000
     5 N3       5.7434   6.1733   6.5369   N.ar      1 RES1   0.0000
     6 N4       5.0817   7.6273   4.6158   N.2       1 RES1   0.0000
     7 N5       4.7104   8.2676   3.5079   N.pl3     1 RES1   0.0000
     8 H2       4.6896   9.1773   3.4349   H         1 RES1   0.0000
     9 C1       7.3964   7.7767  10.2606   C.2       1 RES1   0.0000
    10 H3       7.7291   8.0742  11.0768   H         1 RES1   0.0000
    11 C2       7.2695   6.4735   9.8822   C.2       1 RES1   0.0000
    12 H4       7.5025   5.7145  10.3670   H         1 RES1   0.0000
    13 C3       6.7041   6.5295   8.5903   C.2       1 RES1   0.0000
    14 C4       6.1893   5.5491   7.6388   C.ar      1 RES1   0.0000
    15 C5       6.0667   4.1845   7.8152   C.ar      1 RES1   0.0000
    16 H5       6.3875   3.7696   8.5827   H         1 RES1   0.0000
    17 C6       5.4444   3.4442   6.7999   C.ar      1 RES1   0.0000
    18 H6       5.3316   2.5264   6.8972   H         1 RES1   0.0000
    19 C7       5.0006   4.0738   5.6585   C.ar      1 RES1   0.0000
    20 H7       4.5994   3.5815   4.9791   H         1 RES1   0.0000
    21 C8       5.1553   5.4530   5.5278   C.ar      1 RES1   0.0000
    22 C9       4.7834   6.3241   4.4365   C.2       1 RES1   0.0000
    23 C10      4.1859   6.1480   3.1750   C.2       1 RES1   0.0000
    24 H8       3.8757   5.3583   2.7966   H         1 RES1   0.0000
    25 C11      4.1653   7.4205   2.6263   C.2       1 RES1   0.0000
    26 H9       3.8301   7.6460   1.7889   H         1 RES1   0.0000
    27 N6       8.6567   7.5259   5.2663   N.pl3     1 RES1   0.0000
    28 H10      8.7435   6.6295   5.5019   H         1 RES1   0.0000
    29 N7       7.6352   8.3209   5.6478   N.2       1 RES1   0.0000
    30 N8       5.9246   9.9977   6.2801   N.ar      1 RES1   0.0000
    31 N9       4.0516   8.5824   7.0841   N.2       1 RES1   0.0000
    32 N10      2.9532   7.9808   7.5644   N.pl3     1 RES1   0.0000
    33 H11      2.7811   7.0831   7.4929   H         1 RES1   0.0000
    34 C12      9.6477   8.2729   4.7405   C.2       1 RES1   0.0000
    35 H12     10.4598   7.9474   4.4259   H         1 RES1   0.0000
    36 C13      9.2643   9.5895   4.7435   C.2       1 RES1   0.0000
    37 H13      9.7375  10.3191   4.4152   H         1 RES1   0.0000
    38 C14      8.0027   9.5895   5.3484   C.2       1 RES1   0.0000
    39 C15      7.0342  10.5819   5.7481   C.ar      1 RES1   0.0000
    40 C16      7.1367  11.9692   5.6965   C.ar      1 RES1   0.0000
    41 H14      7.8964  12.3733   5.3423   H         1 RES1   0.0000
    42 C17      6.1082  12.7308   6.1722   C.ar      1 RES1   0.0000
    43 H15      6.1685  13.6592   6.1372   H         1 RES1   0.0000
    44 C18      4.9843  12.1426   6.7011   C.ar      1 RES1   0.0000
    45 H16      4.2862  12.6641   7.0279   H         1 RES1   0.0000
    46 C19      4.9102  10.7500   6.7391   C.ar      1 RES1   0.0000
    47 C20      3.8267   9.9069   7.2300   C.2       1 RES1   0.0000
    48 C21      2.5915  10.1377   7.8106   C.2       1 RES1   0.0000
    49 H17      2.2084  10.9567   8.0279   H         1 RES1   0.0000
    50 C22      2.0591   8.8878   7.9899   C.2       1 RES1   0.0000
    51 H18      1.2217   8.6998   8.3471   H         1 RES1   0.0000
    52 O1       5.4124  10.6860   2.9865   O.co2     2 RES2  -1.0000
    53 O2       3.6082  11.8051   3.6887   O.co2     2 RES2   0.0000
    54 C23      4.7423  11.7317   3.1932   C.2       2 RES2   0.0000
    55 C24      5.4215  13.0230   2.7783   C.ar      2 RES2   0.0000
    56 C25      6.7089  13.0310   2.2676   C.ar      2 RES2   0.0000
    57 H19      7.1756  12.2333   2.1628   H         2 RES2   0.0000
    58 C26      7.2966  14.2368   1.9135   C.ar      2 RES2   0.0000
    59 H20      8.1629  14.2235   1.5776   H         2 RES2   0.0000
    60 C27      5.4533  15.3933   2.5169   C.ar      2 RES2   0.0000
    61 H21      5.0134  16.2083   2.6081   H         2 RES2   0.0000
    62 C28      4.7695  14.2435   2.8984   C.ar      2 RES2   0.0000
    63 H22      3.9002  14.2915   3.2252   H         2 RES2   0.0000
    64 N11      6.6870  15.4107   2.0305   N.ar      2 RES2   0.0000
    65 O3       1.0450   4.9488   5.6129   O.co2     3 RES3   0.0000
    66 O4       2.2291   5.3877   7.4625   O.co2     3 RES3  -1.0000
    67 C29      1.6709   4.6193   6.6418   C.2       3 RES3   0.0000
    68 C30      1.7568   3.1360   6.9276   C.ar      3 RES3   0.0000
    69 C31      1.7668   2.2170   5.8819   C.ar      3 RES3   0.0000
    70 H23      1.6715   2.4997   5.0004   H         3 RES3   0.0000
    71 C32      1.9234   0.8670   6.1843   C.ar      3 RES3   0.0000
    72 H24      1.9904   0.2641   5.4791   H         3 RES3   0.0000
    73 C33      1.9433   1.2766   8.4018   C.ar      3 RES3   0.0000
    74 H25      1.9678   0.9577   9.2742   H         3 RES3   0.0000
    75 C34      1.8653   2.6598   8.2164   C.ar      3 RES3   0.0000
    76 H26      1.8858   3.2414   8.9414   H         3 RES3   0.0000
    77 N12      1.9839   0.3882   7.4261   N.ar      3 RES3   0.0000
@<TRIPOS>BOND
     1     1     4    1
     2     2     3    1
     3     4     2    1
     4     5     1    1
     5     6     1    1
     6     7     6    1
     7     8     7    1
     8     9     2    1
     9    10     9    1
    10    11     9    2
    11    12    11    1
    12    13     4    2
    13    14     5   ar
    14    15    14   ar
    15    16    15    1
    16    17    15   ar
    17    18    17    1
    18    19    17   ar
    19    20    19    1
    20    21     5   ar
    21    22     6    2
    22    23    22    1
    23    24    23    1
    24    25     7    1
    25    26    25    1
    26    27    28    1
    27    29     1    1
    28    30     1    1
    29    31     1    1
    30    32    31    1
    31    33    32    1
    32    34    27    1
    33    35    34    1
    34    36    34    2
    35    37    36    1
    36    38    29    2
    37    39    30   ar
    38    40    39   ar
    39    41    40    1
    40    42    40   ar
    41    43    42    1
    42    44    42   ar
    43    45    44    1
    44    46    30   ar
    45    47    31    2
    46    48    47    1
    47    49    48    1
    48    50    32    1
    49    51    50    1
    50    11    13    1
    51    13    14    1
    52    19    21   ar
    53    21    22    1
    54    23    25    2
    55    27    29    1
    56    36    38    1
    57    38    39    1
    58    44    46   ar
    59    46    47    1
    60    48    50    2
    61    52    54    1
    62    53    54    2
    63    54    55    1
    64    55    56   ar
    65    56    57    1
    66    58    56   ar
    67    59    58    1
    68    60    61    1
    69    62    55   ar
    70    63    62    1
    71    64    58   ar
    72    60    62   ar
    73    60    64   ar
    74    65    67    2
    75    66    67    1
    76    67    68    1
    77    68    69   ar
    78    69    70    1
    79    71    69   ar
    80    72    71    1
    81    73    74    1
    82    75    68   ar
    83    76    75    1
    84    77    71   ar
    85    73    75   ar
    86    73    77   ar
@<TRIPOS>SUBSTRUCTURE
     1 RES1        1 GROUP             0 ****  ****    0  
     2 RES2       52 GROUP             0 ****  ****    0  
     3 RES3       65 GROUP             0 ****  ****    0  
@<TRIPOS>CRYSIN
    8.0022   13.3391   15.2067   90.0000   91.8630   90.0000     7     1
