@<TRIPOS>MOLECULE
NERDIA01
    77    86     3     0     0
SMALL
USER_CHARGES
****
Generated from the CSD

@<TRIPOS>ATOM
     1 Fe1      1.6565   4.9860   8.9375   Fe        1 RES1   2.0000
     2 N1       0.4396   4.8190   5.8407   N.pl3     1 RES1   0.0000
     3 H1       0.4104   3.9533   5.7512   H         1 RES1   0.0000
     4 N2       0.9352   5.4421   6.9369   N.2       1 RES1   0.0000
     5 N3       1.7695   7.0770   8.7718   N.ar      1 RES1   0.0000
     6 N4       2.4334   5.6592  10.8256   N.2       1 RES1   0.0000
     7 N5       2.8506   5.1272  11.9897   N.pl3     1 RES1   0.0000
     8 H2       2.5829   4.2883  12.0884   H         1 RES1   0.0000
     9 C1       0.0059   5.6954   4.9201   C.2       1 RES1   0.0000
    10 H3      -0.3713   5.4850   4.0968   H         1 RES1   0.0000
    11 C2       0.2180   6.9430   5.4089   C.2       1 RES1   0.0000
    12 H4       0.0166   7.7551   5.0019   H         1 RES1   0.0000
    13 C3       0.8056   6.7407   6.6563   C.2       1 RES1   0.0000
    14 C4       1.3279   7.6921   7.6493   C.ar      1 RES1   0.0000
    15 C5       1.4718   9.0296   7.4612   C.ar      1 RES1   0.0000
    16 H5       1.1629   9.4436   6.6887   H         1 RES1   0.0000
    17 C6       2.0971   9.7572   8.4665   C.ar      1 RES1   0.0000
    18 H6       2.2185  10.6738   8.3601   H         1 RES1   0.0000
    19 C7       2.5378   9.1421   9.6136   C.ar      1 RES1   0.0000
    20 H7       2.9549   9.6339  10.2844   H         1 RES1   0.0000
    21 C8       2.3501   7.7846   9.7524   C.ar      1 RES1   0.0000
    22 C9       2.7414   6.9618  10.8903   C.2       1 RES1   0.0000
    23 C10      3.3764   7.2526  12.0914   C.2       1 RES1   0.0000
    24 H8       3.7053   8.0741  12.3782   H         1 RES1   0.0000
    25 C11      3.4075   6.0559  12.7560   C.2       1 RES1   0.0000
    26 H9       3.7608   5.9179  13.6056   H         1 RES1   0.0000
    27 N6      -1.3960   5.1419  10.1826   N.pl3     1 RES1   0.0000
    28 H10     -1.2562   5.9768   9.9760   H         1 RES1   0.0000
    29 N7      -0.2871   4.5108   9.7277   N.2       1 RES1   0.0000
    30 N8       1.6043   2.8825   9.0262   N.ar      1 RES1   0.0000
    31 N9       3.5953   4.3164   8.1874   N.2       1 RES1   0.0000
    32 N10      4.7073   4.8485   7.6724   N.pl3     1 RES1   0.0000
    33 H11      4.9729   5.6820   7.6940   H         1 RES1   0.0000
    34 C12     -2.2368   4.2454  10.7207   C.2       1 RES1   0.0000
    35 H12     -3.0588   4.4478  11.1077   H         1 RES1   0.0000
    36 C13     -1.7180   3.0273  10.6174   C.2       1 RES1   0.0000
    37 H13     -2.0964   2.2286  10.9088   H         1 RES1   0.0000
    38 C14     -0.4924   3.1961   9.9852   C.2       1 RES1   0.0000
    39 C15      0.5252   2.2969   9.5535   C.ar      1 RES1   0.0000
    40 C16      0.4613   0.9099   9.6059   C.ar      1 RES1   0.0000
    41 H14     -0.2862   0.4878   9.9636   H         1 RES1   0.0000
    42 C17      1.4918   0.1809   9.1341   C.ar      1 RES1   0.0000
    43 H15      1.4326  -0.7464   9.1495   H         1 RES1   0.0000
    44 C18      2.6394   0.7759   8.6253   C.ar      1 RES1   0.0000
    45 H16      3.3657   0.2720   8.3354   H         1 RES1   0.0000
    46 C19      2.6397   2.1669   8.5760   C.ar      1 RES1   0.0000
    47 C20      3.7396   2.9884   8.0779   C.2       1 RES1   0.0000
    48 C21      4.9545   2.6748   7.4905   C.2       1 RES1   0.0000
    49 H17      5.2938   1.8319   7.2885   H         1 RES1   0.0000
    50 C22      5.5303   3.8715   7.2808   C.2       1 RES1   0.0000
    51 H18      6.3759   4.0002   6.9169   H         1 RES1   0.0000
    52 O1       2.0123   2.7244  12.5509   O.co2     2 RES2   0.0000
    53 O2       3.7972   1.5934  11.8632   O.co2     2 RES2  -1.0000
    54 C23      2.6459   1.7006  12.3412   C.2       2 RES2   0.0000
    55 C24      1.9489   0.3779  12.6758   C.ar      2 RES2   0.0000
    56 C25      0.6874   0.3431  13.1368   C.ar      2 RES2   0.0000
    57 H19      0.2277   1.1404  13.2710   H         2 RES2   0.0000
    58 C26      0.0651  -0.8496  13.4144   C.ar      2 RES2   0.0000
    59 H20     -0.8051  -0.8242  13.7397   H         2 RES2   0.0000
    60 C27      1.8892  -1.9887  12.8115   C.ar      2 RES2   0.0000
    61 H21      2.3395  -2.7954  12.7097   H         2 RES2   0.0000
    62 C28      2.5738  -0.8228  12.5031   C.ar      2 RES2   0.0000
    63 H22      3.4455  -0.8590  12.1824   H         2 RES2   0.0000
    64 N11      0.6296  -2.0289  13.2448   N.ar      2 RES2   0.0000
    65 O3       6.4363   7.7632   9.7432   O.co2     3 RES3   0.0000
    66 O4       5.3649   7.4657   7.8204   O.co2     3 RES3  -1.0000
    67 C29      5.8988   8.1572   8.7008   C.2       3 RES3   0.0000
    68 C30      5.8722   9.6634   8.4757   C.ar      3 RES3   0.0000
    69 C31      5.9711  10.5291   9.5489   C.ar      3 RES3   0.0000
    70 H23      6.1219  10.2115  10.4108   H         3 RES3   0.0000
    71 C32      5.8411  11.8732   9.3006   C.ar      3 RES3   0.0000
    72 H24      5.8296  12.4401  10.0377   H         3 RES3   0.0000
    73 C33      5.6906  11.5516   7.0927   C.ar      3 RES3   0.0000
    74 H25      5.6156  11.8907   6.2292   H         3 RES3   0.0000
    75 C34      5.7544  10.1914   7.2160   C.ar      3 RES3   0.0000
    76 H26      5.7190   9.6406   6.4682   H         3 RES3   0.0000
    77 N12      5.7254  12.4455   8.0933   N.ar      3 RES3   0.0000
@<TRIPOS>BOND
     1     1     4    1
     2     2     3    1
     3     4     2    1
     4     5     1    1
     5     6     1    1
     6     7     6    1
     7     8     7    1
     8     9     2    1
     9    10     9    1
    10    11     9    2
    11    12    11    1
    12    13     4    2
    13    14     5   ar
    14    15    14   ar
    15    16    15    1
    16    17    15   ar
    17    18    17    1
    18    19    17   ar
    19    20    19    1
    20    21     5   ar
    21    22     6    2
    22    23    22    1
    23    24    23    1
    24    25     7    1
    25    26    25    1
    26    27    28    1
    27    29     1    1
    28    30     1    1
    29    31     1    1
    30    32    31    1
    31    33    32    1
    32    34    27    1
    33    35    34    1
    34    36    34    2
    35    37    36    1
    36    38    29    2
    37    39    30   ar
    38    40    39   ar
    39    41    40    1
    40    42    40   ar
    41    43    42    1
    42    44    42   ar
    43    45    44    1
    44    46    30   ar
    45    47    31    2
    46    48    47    1
    47    49    48    1
    48    50    32    1
    49    51    50    1
    50    11    13    1
    51    13    14    1
    52    19    21   ar
    53    21    22    1
    54    23    25    2
    55    27    29    1
    56    36    38    1
    57    38    39    1
    58    44    46   ar
    59    46    47    1
    60    48    50    2
    61    52    54    2
    62    53    54    1
    63    54    55    1
    64    55    56   ar
    65    56    57    1
    66    58    56   ar
    67    59    58    1
    68    60    61    1
    69    62    55   ar
    70    63    62    1
    71    64    58   ar
    72    60    62   ar
    73    60    64   ar
    74    65    67    2
    75    66    67    1
    76    67    68    1
    77    68    69   ar
    78    69    70    1
    79    71    69   ar
    80    72    71    1
    81    73    74    1
    82    75    68   ar
    83    76    75    1
    84    77    71   ar
    85    73    75   ar
    86    73    77   ar
@<TRIPOS>SUBSTRUCTURE
     1 RES1        1 GROUP             0 ****  ****    0  
     2 RES2       52 GROUP             0 ****  ****    0  
     3 RES3       65 GROUP             0 ****  ****    0  
@<TRIPOS>CRYSIN
    8.1474   13.4009   15.4298   90.0000   92.1604   90.0000     7     1
