@<TRIPOS>MOLECULE
NERDIA02
    77    86     3     0     0
SMALL
USER_CHARGES
****
Generated from the CSD

@<TRIPOS>ATOM
     1 Fe1      1.6661   5.2326   8.8315   Fe        1 RES1   2.0000
     2 N1       0.5297   4.7547   5.9450   N.pl3     1 RES1   0.0000
     3 N2       0.9627   5.4985   6.9976   N.2       1 RES1   0.0000
     4 N3       1.7178   7.1587   8.6834   N.ar      1 RES1   0.0000
     5 N4       2.4016   5.7137  10.6147   N.2       1 RES1   0.0000
     6 N5       2.7788   5.0869  11.7222   N.pl3     1 RES1   0.0000
     7 C1       0.0866   5.5443   4.9549   C.2       1 RES1   0.0000
     8 H1      -0.2448   5.2549   4.1359   H         1 RES1   0.0000
     9 C2       0.2046   6.8368   5.3516   C.2       1 RES1   0.0000
    10 H2      -0.0382   7.5983   4.8764   H         1 RES1   0.0000
    11 C3       0.7690   6.7777   6.6269   C.2       1 RES1   0.0000
    12 C4       1.2625   7.7703   7.5789   C.ar      1 RES1   0.0000
    13 C5       1.3590   9.1274   7.4172   C.ar      1 RES1   0.0000
    14 H3       1.0397   9.5395   6.6471   H         1 RES1   0.0000
    15 C6       1.9423   9.8699   8.4240   C.ar      1 RES1   0.0000
    16 H4       2.0196  10.7921   8.3316   H         1 RES1   0.0000
    17 C7       2.4115   9.2552   9.5666   C.ar      1 RES1   0.0000
    18 H5       2.8052   9.7548  10.2451   H         1 RES1   0.0000
    19 C8       2.2853   7.8860   9.6826   C.ar      1 RES1   0.0000
    20 C9       2.6868   7.0238  10.7840   C.2       1 RES1   0.0000
    21 C10      3.2873   7.2161  12.0365   C.2       1 RES1   0.0000
    22 H6       3.5914   8.0121  12.4094   H         1 RES1   0.0000
    23 C11      3.3235   5.9505  12.5903   C.2       1 RES1   0.0000
    24 H7       3.6687   5.7331  13.4254   H         1 RES1   0.0000
    25 N6      -1.1734   5.7272   9.9709   N.pl3     1 RES1   0.0000
    26 N7      -0.1505   4.9565   9.5743   N.2       1 RES1   0.0000
    27 N8       1.6083   3.3142   8.9427   N.ar      1 RES1   0.0000
    28 N9       3.4537   4.7574   8.1311   N.2       1 RES1   0.0000
    29 N10      4.5478   5.3842   7.6506   N.pl3     1 RES1   0.0000
    30 C12     -2.1322   4.9578  10.5140   C.2       1 RES1   0.0000
    31 H8      -2.9413   5.2652  10.8545   H         1 RES1   0.0000
    32 C13     -1.7365   3.6693  10.4881   C.2       1 RES1   0.0000
    33 H9      -2.1995   2.9278  10.8046   H         1 RES1   0.0000
    34 C14     -0.4691   3.6921   9.8794   C.2       1 RES1   0.0000
    35 C15      0.5078   2.7170   9.4660   C.ar      1 RES1   0.0000
    36 C16      0.4398   1.3208   9.5239   C.ar      1 RES1   0.0000
    37 H10     -0.3133   0.9007   9.8728   H         1 RES1   0.0000
    38 C17      1.4784   0.5918   9.0693   C.ar      1 RES1   0.0000
    39 H11      1.4342  -0.3362   9.1031   H         1 RES1   0.0000
    40 C18      2.6173   1.2038   8.5522   C.ar      1 RES1   0.0000
    41 H12      3.3401   0.6981   8.2571   H         1 RES1   0.0000
    42 C19      2.6395   2.5758   8.4896   C.ar      1 RES1   0.0000
    43 C20      3.7018   3.4527   8.0030   C.2       1 RES1   0.0000
    44 C21      4.9424   3.2321   7.4034   C.2       1 RES1   0.0000
    45 H13      5.3337   2.4197   7.1741   H         1 RES1   0.0000
    46 C22      5.4396   4.4749   7.2341   C.2       1 RES1   0.0000
    47 H14      6.2773   4.6717   6.8816   H         1 RES1   0.0000
    48 H15      2.6276   4.2234  11.8382   H         1 RES1   0.0000
    49 H16      0.6319   3.8603   5.8733   H         1 RES1   0.0000
    50 H17     -1.2739   6.6445   9.8092   H         1 RES1   0.0000
    51 H18      4.5950   6.2813   7.7497   H         1 RES1   0.0000
    52 O1       2.0748   2.6887  12.2897   O.co2     2 RES2   0.0000
    53 O2       3.9025   1.5858  11.6643   O.co2     2 RES2  -1.0000
    54 C23      2.7551   1.6705  12.1265   C.2       2 RES2   0.0000
    55 C24      2.0758   0.3537  12.5140   C.ar      2 RES2   0.0000
    56 C25      0.7996   0.3268  13.0037   C.ar      2 RES2   0.0000
    57 H19      0.3305   1.1224  13.1138   H         2 RES2   0.0000
    58 C26      0.2051  -0.8702  13.3378   C.ar      2 RES2   0.0000
    59 H20     -0.6604  -0.8594  13.6782   H         2 RES2   0.0000
    60 C27      2.0436  -2.0122  12.7245   C.ar      2 RES2   0.0000
    61 H21      2.4854  -2.8239  12.6218   H         2 RES2   0.0000
    62 C28      2.7233  -0.8581  12.3706   C.ar      2 RES2   0.0000
    63 H22      3.5931  -0.8980  12.0441   H         2 RES2   0.0000
    64 N11      0.8163  -2.0377  13.1944   N.ar      2 RES2   0.0000
    65 O3       6.4435   8.2962   9.6261   O.co2     3 RES3   0.0000
    66 O4       5.2528   7.9573   7.7711   O.co2     3 RES3  -1.0000
    67 C29      5.8292   8.6822   8.6315   C.2       3 RES3   0.0000
    68 C30      5.7626  10.1712   8.3950   C.ar      3 RES3   0.0000
    69 C31      5.8334  11.0603   9.4568   C.ar      3 RES3   0.0000
    70 H23      5.9496  10.7570  10.3285   H         3 RES3   0.0000
    71 C32      5.7240  12.4201   9.1807   C.ar      3 RES3   0.0000
    72 H24      5.7349  13.0066   9.9036   H         3 RES3   0.0000
    73 C33      5.5689  12.0838   7.0053   C.ar      3 RES3   0.0000
    74 H25      5.4991  12.4267   6.1443   H         3 RES3   0.0000
    75 C34      5.6221  10.6971   7.1410   C.ar      3 RES3   0.0000
    76 H26      5.5641  10.1429   6.3970   H         3 RES3   0.0000
    77 N12      5.6087  12.9379   7.9892   N.ar      3 RES3   0.0000
@<TRIPOS>BOND
     1     1     3    1
     2     2     3    1
     3     3    11    2
     4     4     1    1
     5     5     1    1
     6     6     5    1
     7     7     2    1
     8     8     7    1
     9     9     7    2
    10    10     9    1
    11    11     9    1
    12    12     4   ar
    13    13    12   ar
    14    14    13    1
    15    15    13   ar
    16    16    15    1
    17    17    15   ar
    18    18    17    1
    19    19     4   ar
    20    20     5    2
    21    21    20    1
    22    22    21    1
    23    23     6    1
    24    24    23    1
    25    25    26    1
    26    26     1    1
    27    27     1    1
    28    28     1    1
    29    29    28    1
    30    30    25    1
    31    31    30    1
    32    32    30    2
    33    33    32    1
    34    34    26    2
    35    35    27   ar
    36    36    35   ar
    37    37    36    1
    38    38    36   ar
    39    39    38    1
    40    40    38   ar
    41    41    40    1
    42    42    27   ar
    43    43    28    2
    44    44    43    1
    45    45    44    1
    46    46    29    1
    47    47    46    1
    48    48     6    1
    49    49     2    1
    50    50    25    1
    51    51    29    1
    52    11    12    1
    53    17    19   ar
    54    19    20    1
    55    21    23    2
    56    32    34    1
    57    34    35    1
    58    40    42   ar
    59    42    43    1
    60    44    46    2
    61    52    54    2
    62    53    54    1
    63    54    55    1
    64    55    56   ar
    65    56    57    1
    66    58    56   ar
    67    59    58    1
    68    60    61    1
    69    62    55   ar
    70    63    62    1
    71    64    58   ar
    72    60    62   ar
    73    60    64   ar
    74    65    67    2
    75    66    67    1
    76    67    68    1
    77    68    69   ar
    78    69    70    1
    79    71    69   ar
    80    72    71    1
    81    73    74    1
    82    75    68   ar
    83    76    75    1
    84    77    71   ar
    85    73    75   ar
    86    73    77   ar
@<TRIPOS>SUBSTRUCTURE
     1 RES1        1 GROUP             0 ****  ****    0  
     2 RES2       52 GROUP             0 ****  ****    0  
     3 RES3       65 GROUP             0 ****  ****    0  
@<TRIPOS>CRYSIN
    8.0407   13.4504   15.2646   90.0000   91.9921   90.0000     7     1
