@<TRIPOS>MOLECULE
NETBUJ
    60    70     4     0     0
SMALL
USER_CHARGES
****
Generated from the CSD

@<TRIPOS>ATOM
     1 Fe1      4.9086   3.4954   3.2656   Fe        1 RES1   2.0000
     2 C1       4.5049   5.0106   5.9947   C.ar      1 RES1   0.0000
     3 C2       3.3410   4.5688   6.5591   C.ar      1 RES1   0.0000
     4 C3       2.9859   5.0774   7.7841   C.ar      1 RES1   0.0000
     5 C4       3.7762   5.9880   8.4065   C.ar      1 RES1   0.0000
     6 C5       4.9088   6.4802   7.8654   C.ar      1 RES1   0.0000
     7 C6       5.2603   5.9755   6.6239   C.ar      1 RES1   0.0000
     8 C7       6.2401   5.4675   4.7309   C.2       1 RES1   0.0000
     9 C8       7.0508   5.3272   3.5523   C.ar      1 RES1   0.0000
    10 C9       8.2404   5.9306   3.2220   C.ar      1 RES1   0.0000
    11 C10      8.8672   5.6172   2.0284   C.ar      1 RES1   0.0000
    12 C11      8.2914   4.7035   1.2221   C.ar      1 RES1   0.0000
    13 C12      7.1065   4.1276   1.5652   C.ar      1 RES1   0.0000
    14 C13      6.3154   3.1362   0.9168   C.2       1 RES1   0.0000
    15 C14      5.4287   1.6588  -0.4949   C.ar      1 RES1   0.0000
    16 C15      5.1707   0.8412  -1.5426   C.ar      1 RES1   0.0000
    17 C16      4.0498   0.0670  -1.3830   C.ar      1 RES1   0.0000
    18 C17      3.2571   0.0521  -0.2482   C.ar      1 RES1   0.0000
    19 C18      3.5722   0.8846   0.8117   C.ar      1 RES1   0.0000
    20 C19      4.6646   1.7055   0.6724   C.ar      1 RES1   0.0000
    21 C20      7.0628   1.5439   4.5207   C.ar      1 RES1   0.0000
    22 C21      8.3149   2.0732   4.3574   C.ar      1 RES1   0.0000
    23 C22      9.4180   1.3489   4.7577   C.ar      1 RES1   0.0000
    24 C23      9.2876   0.0931   5.3093   C.ar      1 RES1   0.0000
    25 C24      8.0763  -0.4659   5.5283   C.ar      1 RES1   0.0000
    26 C25      6.9586   0.2514   5.1340   C.ar      1 RES1   0.0000
    27 C26      4.9544   1.0843   4.6510   C.2       1 RES1   0.0000
    28 C27      3.5467   1.3313   4.4853   C.ar      1 RES1   0.0000
    29 C28      2.4583   0.5998   4.8923   C.ar      1 RES1   0.0000
    30 C29      1.1970   1.0740   4.5983   C.ar      1 RES1   0.0000
    31 C30      1.0277   2.2995   3.9334   C.ar      1 RES1   0.0000
    32 C31      2.1319   2.9958   3.5650   C.ar      1 RES1   0.0000
    33 C32      2.2825   4.2534   2.8708   C.2       1 RES1   0.0000
    34 C33      1.9184   6.1903   1.9169   C.ar      1 RES1   0.0000
    35 C34      1.3876   7.3838   1.3742   C.ar      1 RES1   0.0000
    36 C35      2.3318   8.2328   0.8552   C.ar      1 RES1   0.0000
    37 C36      3.7061   7.9521   0.8530   C.ar      1 RES1   0.0000
    38 C37      4.2218   6.7734   1.3842   C.ar      1 RES1   0.0000
    39 C38      3.2806   5.9233   1.9220   C.ar      1 RES1   0.0000
    40 N1       5.1555   4.7260   4.8073   N.2       1 RES1   0.0000
    41 N2       6.4562   4.4144   2.7372   N.ar      1 RES1   0.0000
    42 N3       5.2419   2.6511   1.4956   N.2       1 RES1   0.0000
    43 N4       5.8140   2.0133   4.2230   N.2       1 RES1   0.0000
    44 N5       3.4075   2.5224   3.8222   N.ar      1 RES1   0.0000
    45 N6       3.4791   4.6661   2.5208   N.2       1 RES1   0.0000
    46 N7       6.3461   6.2415   5.8349   N.2       1 RES1   0.0000
    47 N8       6.4616   2.5420  -0.3164   N.2       1 RES1   0.0000
    48 N9       5.6121   0.0250   5.2071   N.2       1 RES1   0.0000
    49 N10      1.2818   5.1238   2.5411   N.2       1 RES1   0.0000
    50 Cl1      4.3139  -2.6023   7.6739   Cl        2 RES2   0.0000
    51 O1       4.0111  -3.9429   7.4961   O.3       2 RES2  -1.0000
    52 O2       5.6345  -2.3694   7.2270   O.2       2 RES2   0.0000
    53 O3       4.2563  -2.2981   9.0819   O.2       2 RES2   0.0000
    54 O4       3.4331  -1.7794   6.9629   O.2       2 RES2   0.0000
    55 Cl2      7.0144   9.4130   2.7510   Cl        3 RES3   0.0000
    56 O5       6.6686   8.5206   3.7670   O.3       3 RES3  -1.0000
    57 O6       7.2043   8.7216   1.5246   O.2       3 RES3   0.0000
    58 O7       8.1797  10.1076   3.0304   O.2       3 RES3   0.0000
    59 O8       5.9144  10.3217   2.5661   O.2       3 RES3   0.0000
    60 O9      10.7032   8.2490   3.4836   O.3       4 RES4   0.0000
@<TRIPOS>BOND
     1     1    40    1
     2     2     3   ar
     3     3     4   ar
     4     4     5   ar
     5     5     6   ar
     6     6     7   ar
     7     7     2   ar
     8     8     9    1
     9     9    10   ar
    10    10    11   ar
    11    11    12   ar
    12    12    13   ar
    13    13    14    1
    14    14    42    2
    15    15    16   ar
    16    16    17   ar
    17    17    18   ar
    18    18    19   ar
    19    19    20   ar
    20    20    15   ar
    21    21    22   ar
    22    22    23   ar
    23    23    24   ar
    24    24    25   ar
    25    25    26   ar
    26    26    21   ar
    27    27    28    1
    28    28    29   ar
    29    29    30   ar
    30    30    31   ar
    31    31    32   ar
    32    32    33    1
    33    33    45    2
    34    34    35   ar
    35    35    36   ar
    36    36    37   ar
    37    37    38   ar
    38    38    39   ar
    39    39    34   ar
    40    40     2    1
    41    41     1    1
    42    42     1    1
    43    43     1    1
    44    44     1    1
    45    45     1    1
    46    46     7    1
    47    47    14    1
    48    48    26    1
    49    49    33    1
    50     8    46    1
    51     8    40    2
    52     9    41   ar
    53    13    41   ar
    54    15    47    1
    55    20    42    1
    56    21    43    1
    57    27    48    1
    58    27    43    2
    59    28    44   ar
    60    32    44   ar
    61    34    49    1
    62    39    45    1
    63    50    51    1
    64    52    50    2
    65    53    50    2
    66    54    50    2
    67    55    56    1
    68    57    55    2
    69    58    55    2
    70    59    55    2
@<TRIPOS>SUBSTRUCTURE
     1 RES1        1 GROUP             0 ****  ****    0  
     2 RES2       50 GROUP             0 ****  ****    0  
     3 RES3       55 GROUP             0 ****  ****    0  
     4 RES4       60 GROUP             0 ****  ****    0  
@<TRIPOS>CRYSIN
   12.2800   12.5420   13.8070   76.1200   77.2300   71.5000     2     1
