@<TRIPOS>MOLECULE
NETJON
   123   128     3     0     0
SMALL
USER_CHARGES
****
Generated from the CSD

@<TRIPOS>ATOM
     1 Fe1      2.8227   8.5666   8.6036   Fe        1 RES1   2.0000
     2 N1       3.4121   7.6176   7.0161   N.1       1 RES1   0.0000
     3 N2       2.1123  10.0995   7.5498   N.ar      1 RES1   0.0000
     4 N3       1.0061   7.7798   8.5066   N.ar      1 RES1   0.0000
     5 N4       0.8190   8.5775   6.3051   N.pl3     1 RES1   0.0000
     6 N5       1.6029   8.6408   4.1325   N.ar      1 RES1   0.0000
     7 N6       0.6723   6.6547   5.0479   N.ar      1 RES1   0.0000
     8 N7       1.5364   6.6302   2.8227   N.ar      1 RES1   0.0000
     9 N8       2.4188   8.6211   2.0093   N.pl3     1 RES1   0.0000
    10 N9       4.2214  10.8486   3.9473   N.1       1 RES1   0.0000
    11 N10      4.8829   8.1051  -0.3269   N.1       1 RES1   0.0000
    12 N11      0.6095   4.7504   3.8162   N.pl3     1 RES1   0.0000
    13 N12      1.6361   3.9139   7.0102   N.1       1 RES1   0.0000
    14 N13      2.9486   2.3462   2.9803   N.1       1 RES1   0.0000
    15 C1       3.8632   6.9962   6.1605   C.1       1 RES1   0.0000
    16 C2       2.4513  11.3729   7.8620   C.ar      1 RES1   0.0000
    17 H1       3.0106  11.5269   8.6139   H         1 RES1   0.0000
    18 C3       2.0145  12.4554   7.1252   C.ar      1 RES1   0.0000
    19 H2       2.2755  13.3372   7.3664   H         1 RES1   0.0000
    20 C4       1.1937  12.2456   6.0339   C.ar      1 RES1   0.0000
    21 H3       0.9020  12.9757   5.5011   H         1 RES1   0.0000
    22 C5       0.8029  10.9491   5.7274   C.ar      1 RES1   0.0000
    23 H4       0.2260  10.7747   4.9935   H         1 RES1   0.0000
    24 C6       1.2789   9.9098   6.5248   C.ar      1 RES1   0.0000
    25 C7       0.2655   7.8576   7.3996   C.ar      1 RES1   0.0000
    26 C8      -1.0065   7.2920   7.2897   C.ar      1 RES1   0.0000
    27 H5      -1.5076   7.3740   6.4871   H         1 RES1   0.0000
    28 C9      -1.5193   6.6095   8.3758   C.ar      1 RES1   0.0000
    29 H6      -2.3685   6.1871   8.3231   H         1 RES1   0.0000
    30 C10     -0.7722   6.5538   9.5448   C.ar      1 RES1   0.0000
    31 H7      -1.1087   6.0994  10.3088   H         1 RES1   0.0000
    32 C11      0.4634   7.1631   9.5855   C.ar      1 RES1   0.0000
    33 H8       0.9517   7.1512  10.4000   H         1 RES1   0.0000
    34 C12      1.0400   7.9331   5.1052   C.ar      1 RES1   0.0000
    35 C13      0.9652   6.0634   3.8861   C.ar      1 RES1   0.0000
    36 C14      1.8286   7.9306   3.0238   C.ar      1 RES1   0.0000
    37 C15      2.4805   8.0423   0.6709   C.3       1 RES1   0.0000
    38 H9       1.8767   8.5455   0.0688   H         1 RES1   0.0000
    39 H10      2.1671   7.1040   0.7038   H         1 RES1   0.0000
    40 C16      3.8436   8.0800   0.1330   C.1       1 RES1   0.0000
    41 C17      2.5150  10.0693   2.1301   C.3       1 RES1   0.0000
    42 H11      1.6226  10.4363   2.3505   H         1 RES1   0.0000
    43 H12      2.7925  10.4489   1.2596   H         1 RES1   0.0000
    44 C18      3.4687  10.4836   3.1575   C.1       1 RES1   0.0000
    45 C19      0.0042   4.1192   4.9746   C.3       1 RES1   0.0000
    46 H13     -0.3033   3.2123   4.7234   H         1 RES1   0.0000
    47 H14     -0.7891   4.6434   5.2499   H         1 RES1   0.0000
    48 C20      0.9274   4.0139   6.1127   C.1       1 RES1   0.0000
    49 C21      0.9235   3.9431   2.6506   C.3       1 RES1   0.0000
    50 H15      1.1065   4.5416   1.8842   H         1 RES1   0.0000
    51 H16      0.1362   3.3894   2.4211   H         1 RES1   0.0000
    52 C22      2.0795   3.0658   2.8555   C.1       1 RES1   0.0000
    53 B1       4.4752   6.1226   4.9903   B         1 RES1  -1.0000
    54 H17      5.4415   6.0246   5.1260   H         1 RES1   0.0000
    55 H18      4.3105   6.5655   4.1315   H         1 RES1   0.0000
    56 H19      4.0539   5.2377   4.9884   H         1 RES1   0.0000
    57 N1A      2.2333   9.5157  10.1911   N.1       1 RES1   0.0000
    58 N2A      3.5332   7.0337   9.6574   N.ar      1 RES1   0.0000
    59 N3A      4.6394   9.3534   8.7007   N.ar      1 RES1   0.0000
    60 N4A      4.8264   8.5557  10.9021   N.pl3     1 RES1   0.0000
    61 N5A      4.0425   8.4924  13.0747   N.ar      1 RES1   0.0000
    62 N6A      4.9732  10.4785  12.1593   N.ar      1 RES1   0.0000
    63 N7A      4.1090  10.5030  14.3845   N.ar      1 RES1   0.0000
    64 N8A      3.2267   8.5121  15.1979   N.pl3     1 RES1   0.0000
    65 N9A      1.4241   6.2847  13.2599   N.1       1 RES1   0.0000
    66 N10A     0.7626   9.0281  17.5342   N.1       1 RES1   0.0000
    67 N11A     5.0360  12.3828  13.3910   N.pl3     1 RES1   0.0000
    68 N12A     4.0093  13.2194  10.1970   N.1       1 RES1   0.0000
    69 N13A     2.6968  14.7871  14.2269   N.1       1 RES1   0.0000
    70 C1A      1.7823  10.1370  11.0467   C.1       1 RES1   0.0000
    71 C2A      3.1942   5.7603   9.3452   C.ar      1 RES1   0.0000
    72 H1A      2.6348   5.6063   8.5933   H         1 RES1   0.0000
    73 C3A      3.6310   4.6778  10.0821   C.ar      1 RES1   0.0000
    74 H2A      3.3700   3.7960   9.8408   H         1 RES1   0.0000
    75 C4A      4.4517   4.8877  11.1733   C.ar      1 RES1   0.0000
    76 H3A      4.7434   4.1576  11.7061   H         1 RES1   0.0000
    77 C5A      4.8426   6.1842  11.4798   C.ar      1 RES1   0.0000
    78 H4A      5.4195   6.3586  12.2137   H         1 RES1   0.0000
    79 C6A      4.3665   7.2235  10.6824   C.ar      1 RES1   0.0000
    80 C7A      5.3799   9.2757   9.8076   C.ar      1 RES1   0.0000
    81 C8A      6.6520   9.8412   9.9176   C.ar      1 RES1   0.0000
    82 H5A      7.1530   9.7593  10.7201   H         1 RES1   0.0000
    83 C9A      7.1648  10.5237   8.8314   C.ar      1 RES1   0.0000
    84 H6A      8.0140  10.9462   8.8841   H         1 RES1   0.0000
    85 C10A     6.4177  10.5795   7.6624   C.ar      1 RES1   0.0000
    86 H7A      6.7542  11.0338   6.8984   H         1 RES1   0.0000
    87 C11A     5.1821   9.9701   7.6218   C.ar      1 RES1   0.0000
    88 H8A      4.6937   9.9820   6.8072   H         1 RES1   0.0000
    89 C12A     4.6055   9.2002  12.1020   C.ar      1 RES1   0.0000
    90 C13A     4.6802  11.0698  13.3211   C.ar      1 RES1   0.0000
    91 C14A     3.8168   9.2027  14.1834   C.ar      1 RES1   0.0000
    92 C15A     3.1650   9.0909  16.5363   C.3       1 RES1   0.0000
    93 H9A      3.7687   8.5878  17.1384   H         1 RES1   0.0000
    94 H10A     3.4784  10.0292  16.5034   H         1 RES1   0.0000
    95 C16A     1.8019   9.0532  17.0742   C.1       1 RES1   0.0000
    96 C17A     3.1304   7.0639  15.0771   C.3       1 RES1   0.0000
    97 H11A     4.0228   6.6970  14.8567   H         1 RES1   0.0000
    98 H12A     2.8530   6.6843  15.9477   H         1 RES1   0.0000
    99 C18A     2.1768   6.6496  14.0497   C.1       1 RES1   0.0000
   100 C19A     5.6413  13.0140  12.2326   C.3       1 RES1   0.0000
   101 H13A     5.9488  13.9209  12.4838   H         1 RES1   0.0000
   102 H14A     6.4346  12.4898  11.9573   H         1 RES1   0.0000
   103 C20A     4.7180  13.1193  11.0945   C.1       1 RES1   0.0000
   104 C21A     4.7219  13.1901  14.5566   C.3       1 RES1   0.0000
   105 H15A     4.5390  12.5917  15.3230   H         1 RES1   0.0000
   106 H16A     5.5092  13.7438  14.7862   H         1 RES1   0.0000
   107 C22A     3.5660  14.0674  14.3517   C.1       1 RES1   0.0000
   108 B1A      1.1703  11.0106  12.2170   B         1 RES1  -1.0000
   109 H17A     0.2039  11.1086  12.0812   H         1 RES1   0.0000
   110 H18A     1.3350  10.5677  13.0758   H         1 RES1   0.0000
   111 H19A     1.5916  11.8955  12.2188   H         1 RES1   0.0000
   112 N14      1.9405  10.7672  -1.1715   N.1       2 RES2   0.0000
   113 C24      2.5170  10.9428  -1.9613   C.1       2 RES2   0.0000
   114 C26      3.2990  11.0846  -3.0464   C.3       2 RES2   0.0000
   115 H23      4.2397  11.0841  -2.7721   H         2 RES2   0.0000
   116 H24      3.0881  11.9309  -3.4931   H         2 RES2   0.0000
   117 H25      3.1383  10.3404  -3.6634   H         2 RES2   0.0000
   118 N15      1.3351   5.0117  -0.4951   N.1       3 RES3   0.0000
   119 C23      0.3762   5.1396  -1.1956   C.1       3 RES3   0.0000
   120 C25     -0.7057   5.6247  -2.0074   C.3       3 RES3   0.0000
   121 H20     -1.2601   6.2377  -1.4815   H         3 RES3   0.0000
   122 H21     -1.2511   4.8680  -2.3092   H         3 RES3   0.0000
   123 H22     -0.3437   6.0979  -2.7858   H         3 RES3   0.0000
@<TRIPOS>BOND
     1     1     2    1
     2     2    15    3
     3     3     1    1
     4     4     1    1
     5     5    24    1
     6     6    34   ar
     7     7    34   ar
     8     8    35   ar
     9     9    36    1
    10    10    44    3
    11    11    40    3
    12    12    35    1
    13    13    48    3
    14    14    52    3
    15    15    53    1
    16    16     3   ar
    17    17    16    1
    18    18    16   ar
    19    19    18    1
    20    20    18   ar
    21    21    20    1
    22    22    20   ar
    23    23    22    1
    24    24     3   ar
    25    25     4   ar
    26    26    25   ar
    27    27    26    1
    28    28    26   ar
    29    29    28    1
    30    30    28   ar
    31    31    30    1
    32    32     4   ar
    33    33    32    1
    34    34     5    1
    35    35     7   ar
    36    36     6   ar
    37    37     9    1
    38    38    37    1
    39    39    37    1
    40    40    37    1
    41    41     9    1
    42    42    41    1
    43    43    41    1
    44    44    41    1
    45    45    12    1
    46    46    45    1
    47    47    45    1
    48    48    45    1
    49    49    12    1
    50    50    49    1
    51    51    49    1
    52    52    49    1
    53    53    54    1
    54    55    53    1
    55    56    53    1
    56    57     1    1
    57    58     1    1
    58    59     1    1
    59    60    79    1
    60    61    89   ar
    61    62    89   ar
    62    63    90   ar
    63    64    91    1
    64    65    99    3
    65    66    95    3
    66    67    90    1
    67    68   103    3
    68    69   107    3
    69    70    57    3
    70    71    58   ar
    71    72    71    1
    72    73    71   ar
    73    74    73    1
    74    75    73   ar
    75    76    75    1
    76    77    75   ar
    77    78    77    1
    78    79    58   ar
    79    80    59   ar
    80    81    80   ar
    81    82    81    1
    82    83    81   ar
    83    84    83    1
    84    85    83   ar
    85    86    85    1
    86    87    59   ar
    87    88    87    1
    88    89    60    1
    89    90    62   ar
    90    91    61   ar
    91    92    64    1
    92    93    92    1
    93    94    92    1
    94    95    92    1
    95    96    64    1
    96    97    96    1
    97    98    96    1
    98    99    96    1
    99   100    67    1
   100   101   100    1
   101   102   100    1
   102   103   100    1
   103   104    67    1
   104   105   104    1
   105   106   104    1
   106   107   104    1
   107   108    70    1
   108   109   108    1
   109   110   108    1
   110   111   108    1
   111     5    25    1
   112     8    36   ar
   113    22    24   ar
   114    30    32   ar
   115    60    80    1
   116    63    91   ar
   117    77    79   ar
   118    85    87   ar
   119   112   113    3
   120   113   114    1
   121   114   115    1
   122   116   114    1
   123   117   114    1
   124   118   119    3
   125   119   120    1
   126   120   121    1
   127   122   120    1
   128   123   120    1
@<TRIPOS>SUBSTRUCTURE
     1 RES1        1 GROUP             0 ****  ****    0  
     2 RES2      112 GROUP             0 ****  ****    0  
     3 RES3      118 GROUP             0 ****  ****    0  
@<TRIPOS>CRYSIN
    8.4720   10.4620   17.9030   93.1400  103.6600  109.7500     2     1
