@<TRIPOS>MOLECULE
NEWDOI
    77    81     1     0     0
SMALL
NO_CHARGES
****
Generated from the CSD

@<TRIPOS>ATOM
     1 Fe1      2.4020   4.1052  10.8792   Fe        1 RES1   0.0000
     2 P1       1.5311   4.0702  12.8888   P.3       1 RES1   0.0000
     3 P2       3.9358   2.8160  11.7501   P.3       1 RES1   0.0000
     4 P3       3.2759   4.0371   8.8583   P.3       1 RES1   0.0000
     5 P4       0.8323   2.8586   9.9982   P.3       1 RES1   0.0000
     6 C1       0.6587   6.7324  10.9503   C.2       1 RES1   0.0000
     7 C2       1.7472   5.9302  10.8158   C.1       1 RES1   0.0000
     8 C3       3.1145   5.9089  10.9579   C.1       1 RES1   0.0000
     9 C4       4.2271   6.6638  10.8158   C.2       1 RES1   0.0000
    10 C5       4.3014   8.0600  10.3550   C.ar      1 RES1   0.0000
    11 C6       5.4296   8.8314  10.5936   C.ar      1 RES1   0.0000
    12 C7       5.5218  10.1211  10.1671   C.ar      1 RES1   0.0000
    13 C8       4.4865  10.7056   9.4575   C.ar      1 RES1   0.0000
    14 C9       3.3587   9.9460   9.1706   C.ar      1 RES1   0.0000
    15 C10      3.2741   8.6539   9.6047   C.ar      1 RES1   0.0000
    16 C11      0.5950   8.1120  11.4124   C.ar      1 RES1   0.0000
    17 C12     -0.5469   8.8811  11.1788   C.ar      1 RES1   0.0000
    18 C13     -0.6425  10.1874  11.6714   C.ar      1 RES1   0.0000
    19 C14      0.3829  10.7411  12.3810   C.ar      1 RES1   0.0000
    20 C15      1.4977  10.0004  12.6286   C.ar      1 RES1   0.0000
    21 C16      1.6172   8.7202  12.1639   C.ar      1 RES1   0.0000
    22 C17      2.0407   5.4072  14.0148   C.3       1 RES1   0.0000
    23 C18     -0.2714   4.0323  13.2062   C.3       1 RES1   0.0000
    24 C19      2.0763   2.5936  13.8079   C.3       1 RES1   0.0000
    25 C20      3.5180   2.4327  13.5349   C.3       1 RES1   0.0000
    26 C21      5.6391   3.4691  12.0154   C.3       1 RES1   0.0000
    27 C22      4.3279   1.1524  11.1268   C.3       1 RES1   0.0000
    28 C23      2.7831   5.3741   7.7437   C.3       1 RES1   0.0000
    29 C24      5.0749   3.9756   8.5498   C.3       1 RES1   0.0000
    30 C25      2.6703   2.5628   7.9392   C.3       1 RES1   0.0000
    31 C26      1.1943   2.5131   8.1816   C.3       1 RES1   0.0000
    32 C27     -0.8600   3.5141   9.7443   C.3       1 RES1   0.0000
    33 C28      0.4287   1.1808  10.5619   C.3       1 RES1   0.0000
    34 H1      -0.2029   6.3656  10.8412   H         1 RES1   0.0000
    35 H2       5.1169   6.2473  10.9681   H         1 RES1   0.0000
    36 H3       6.1742   8.4412  11.0784   H         1 RES1   0.0000
    37 H4       6.3163  10.6339  10.3611   H         1 RES1   0.0000
    38 H5       4.5490  11.6287   9.1667   H         1 RES1   0.0000
    39 H6       2.6315  10.3348   8.6637   H         1 RES1   0.0000
    40 H7       2.4848   8.1331   9.3881   H         1 RES1   0.0000
    41 H8      -1.2798   9.3707  10.6662   H         1 RES1   0.0000
    42 H9      -1.4434  10.7037  11.5053   H         1 RES1   0.0000
    43 H10      0.3122  11.6957  12.7043   H         1 RES1   0.0000
    44 H11      2.2186  10.3866  13.1485   H         1 RES1   0.0000
    45 H12      2.4313   8.2230  12.3535   H         1 RES1   0.0000
    46 H13      1.5813   5.3005  14.8658   H         1 RES1   0.0000
    47 H14      2.9948   5.3675  14.1539   H         1 RES1   0.0000
    48 H15      1.7994   6.2634  13.6271   H         1 RES1   0.0000
    49 H16     -0.6401   3.2003  12.8695   H         1 RES1   0.0000
    50 H17     -0.4326   4.0958  14.1594   H         1 RES1   0.0000
    51 H18     -0.6944   4.7792  12.7546   H         1 RES1   0.0000
    52 H19      1.9285   2.7197  14.7586   H         1 RES1   0.0000
    53 H20      1.5891   1.8131  13.5050   H         1 RES1   0.0000
    54 H21      3.7779   1.5164  13.7259   H         1 RES1   0.0000
    55 H22      4.0212   3.0337  14.1092   H         1 RES1   0.0000
    56 H23      6.1931   2.7758  12.4077   H         1 RES1   0.0000
    57 H24      6.0170   3.7415  11.1645   H         1 RES1   0.0000
    58 H25      5.6042   4.2321  12.6131   H         1 RES1   0.0000
    59 H26      3.5091   0.6792  10.9225   H         1 RES1   0.0000
    60 H27      4.8691   1.2272  10.3231   H         1 RES1   0.0000
    61 H28      4.8262   0.6628  11.8025   H         1 RES1   0.0000
    62 H29      3.2360   6.1922   7.9986   H         1 RES1   0.0000
    63 H30      3.0210   5.1415   6.8330   H         1 RES1   0.0000
    64 H31      1.8221   5.5057   7.8018   H         1 RES1   0.0000
    65 H32      5.4733   3.2791   9.0945   H         1 RES1   0.0000
    66 H33      5.2364   3.7860   7.6126   H         1 RES1   0.0000
    67 H34      5.4713   4.8315   8.7792   H         1 RES1   0.0000
    68 H35      2.8521   2.6575   6.9917   H         1 RES1   0.0000
    69 H36      3.0939   1.7585   8.2732   H         1 RES1   0.0000
    70 H37      0.8620   1.6307   7.9484   H         1 RES1   0.0000
    71 H38      0.7553   3.1788   7.6312   H         1 RES1   0.0000
    72 H39     -0.8238   4.2872   9.1619   H         1 RES1   0.0000
    73 H40     -1.4146   2.8283   9.3394   H         1 RES1   0.0000
    74 H41     -1.2387   3.7704  10.6006   H         1 RES1   0.0000
    75 H42     -0.0916   0.7253   9.8813   H         1 RES1   0.0000
    76 H43      1.2482   0.6877  10.7256   H         1 RES1   0.0000
    77 H44     -0.0872   1.2293  11.3831   H         1 RES1   0.0000
@<TRIPOS>BOND
     1     1     2    1
     2     2    22    1
     3     3     1    1
     4     4     1    1
     5     5     1    1
     6     6     7    2
     7     7     1   un
     8     8     1   un
     9     9     8    2
    10    10     9    1
    11    11    10   ar
    12    12    11   ar
    13    13    12   ar
    14    14    13   ar
    15    15    10   ar
    16    16     6    1
    17    17    16   ar
    18    18    17   ar
    19    19    18   ar
    20    20    19   ar
    21    21    16   ar
    22    22    46    1
    23    23     2    1
    24    24     2    1
    25    25     3    1
    26    26     3    1
    27    27     3    1
    28    28     4    1
    29    29     4    1
    30    30     4    1
    31    31     5    1
    32    32     5    1
    33    33     5    1
    34    34     6    1
    35    35     9    1
    36    36    11    1
    37    37    12    1
    38    38    13    1
    39    39    14    1
    40    40    15    1
    41    41    17    1
    42    42    18    1
    43    43    19    1
    44    44    20    1
    45    45    21    1
    46    47    22    1
    47    48    22    1
    48    49    23    1
    49    50    23    1
    50    51    23    1
    51    52    24    1
    52    53    24    1
    53    54    25    1
    54    55    25    1
    55    56    26    1
    56    57    26    1
    57    58    26    1
    58    59    27    1
    59    60    27    1
    60    61    27    1
    61    62    28    1
    62    63    28    1
    63    64    28    1
    64    65    29    1
    65    66    29    1
    66    67    29    1
    67    68    30    1
    68    69    30    1
    69    70    31    1
    70    71    31    1
    71    72    32    1
    72    73    32    1
    73    74    32    1
    74    75    33    1
    75    76    33    1
    76    77    33    1
    77     7     8    2
    78    14    15   ar
    79    20    21   ar
    80    24    25    1
    81    30    31    1
@<TRIPOS>SUBSTRUCTURE
     1 RES1        1 GROUP             0 ****  ****    0  
@<TRIPOS>CRYSIN
    9.8920   23.6640   12.8810   90.0000   99.7600   90.0000   231     1
