@<TRIPOS>MOLECULE
NEWWAR05
    80    88     2     0     0
SMALL
USER_CHARGES
****
Generated from the CSD

@<TRIPOS>ATOM
     1 Fe1     22.0269  11.0135   5.5128   Fe        1 RES1   2.0000
     2 C1      24.0776  12.0399   3.4230   C.2       1 RES1   0.0000
     3 H1      24.6900  11.3394   3.3941   H         1 RES1   0.0000
     4 C2      24.1833  13.2360   2.6872   C.2       1 RES1   0.0000
     5 H2      24.8706  13.4739   2.1084   H         1 RES1   0.0000
     6 C3      23.0820  13.9695   2.9919   C.2       1 RES1   0.0000
     7 H3      22.8485  14.7977   2.6370   H         1 RES1   0.0000
     8 C4      21.2405  13.5443   4.6265   C.ar      1 RES1   0.0000
     9 C5      20.4784  14.6809   4.5381   C.ar      1 RES1   0.0000
    10 H4      20.6965  15.3682   3.9501   H         1 RES1   0.0000
    11 C6      19.3727  14.7558   5.3608   C.ar      1 RES1   0.0000
    12 C7      18.6237  16.0510   5.3105   C.2       1 RES1   0.0000
    13 C8      19.0158  13.7338   6.2123   C.ar      1 RES1   0.0000
    14 H5      18.2625  13.7866   6.7531   H         1 RES1   0.0000
    15 C9      19.8418  12.6214   6.2184   C.ar      1 RES1   0.0000
    16 C10     18.7779  11.0949   7.8987   C.2       1 RES1   0.0000
    17 H6      18.0114  11.5619   8.1455   H         1 RES1   0.0000
    18 C11     19.1678   9.8813   8.3634   C.2       1 RES1   0.0000
    19 H7      18.7273   9.3592   8.9956   H         1 RES1   0.0000
    20 C12     20.3286   9.5795   7.7220   C.2       1 RES1   0.0000
    21 H8      20.8154   8.7997   7.8652   H         1 RES1   0.0000
    22 C13     16.5907  17.1568   5.7431   C.3       1 RES1   0.0000
    23 H9      16.6876  17.5665   4.8702   H         1 RES1   0.0000
    24 H10     16.8594  17.7977   6.4195   H         1 RES1   0.0000
    25 C14     15.1545  16.7162   5.9671   C.3       1 RES1   0.0000
    26 H11     15.0466  16.3241   6.8476   H         1 RES1   0.0000
    27 H12     14.8836  16.0686   5.2983   H         1 RES1   0.0000
    28 C15     14.3285  18.0268   5.8391   C.3       1 RES1   0.0000
    29 H13     13.3968  17.8330   5.9686   H         1 RES1   0.0000
    30 H14     14.6193  18.6546   6.5033   H         1 RES1   0.0000
    31 H15     14.4585  18.4013   4.9647   H         1 RES1   0.0000
    32 N1      22.9939  12.0553   4.1543   N.2       1 RES1   0.0000
    33 N2      22.3952  13.2624   3.9044   N.pl3     1 RES1   0.0000
    34 N3      20.9423  12.5386   5.4628   N.ar      1 RES1   0.0000
    35 N4      19.7158  11.4936   7.0060   N.pl3     1 RES1   0.0000
    36 N5      20.6775  10.5203   6.8735   N.2       1 RES1   0.0000
    37 O1      17.4079  15.9378   5.8345   O.3       1 RES1   0.0000
    38 O2      19.0614  17.0290   4.8352   O.2       1 RES1   0.0000
    39 C1I     19.9762   9.9870   3.4230   C.2       1 RES1   0.0000
    40 H1I     19.3638  10.6875   3.3941   H         1 RES1   0.0000
    41 C2I     19.8705   8.7909   2.6872   C.2       1 RES1   0.0000
    42 H2I     19.1832   8.5530   2.1084   H         1 RES1   0.0000
    43 C3I     20.9718   8.0574   2.9919   C.2       1 RES1   0.0000
    44 H3I     21.2053   7.2292   2.6370   H         1 RES1   0.0000
    45 C4I     22.8133   8.4826   4.6265   C.ar      1 RES1   0.0000
    46 C5I     23.5754   7.3460   4.5381   C.ar      1 RES1   0.0000
    47 H4I     23.3573   6.6587   3.9501   H         1 RES1   0.0000
    48 C6I     24.6811   7.2711   5.3608   C.ar      1 RES1   0.0000
    49 C7I     25.4301   5.9759   5.3105   C.2       1 RES1   0.0000
    50 C8I     25.0380   8.2931   6.2123   C.ar      1 RES1   0.0000
    51 H5I     25.7913   8.2403   6.7531   H         1 RES1   0.0000
    52 C9I     24.2120   9.4055   6.2184   C.ar      1 RES1   0.0000
    53 C10I    25.2759  10.9320   7.8987   C.2       1 RES1   0.0000
    54 H6I     26.0424  10.4650   8.1455   H         1 RES1   0.0000
    55 C11I    24.8860  12.1456   8.3634   C.2       1 RES1   0.0000
    56 H7I     25.3265  12.6677   8.9956   H         1 RES1   0.0000
    57 C12I    23.7252  12.4474   7.7220   C.2       1 RES1   0.0000
    58 H8I     23.2384  13.2272   7.8652   H         1 RES1   0.0000
    59 C13I    27.4631   4.8701   5.7431   C.3       1 RES1   0.0000
    60 H9I     27.3662   4.4604   4.8702   H         1 RES1   0.0000
    61 H10I    27.1944   4.2292   6.4195   H         1 RES1   0.0000
    62 C14I    28.8993   5.3107   5.9671   C.3       1 RES1   0.0000
    63 H11I    29.0072   5.7028   6.8476   H         1 RES1   0.0000
    64 H12I    29.1702   5.9583   5.2983   H         1 RES1   0.0000
    65 C15I    29.7253   4.0001   5.8391   C.3       1 RES1   0.0000
    66 H13I    30.6570   4.1939   5.9686   H         1 RES1   0.0000
    67 H14I    29.4345   3.3723   6.5033   H         1 RES1   0.0000
    68 H15I    29.5953   3.6256   4.9647   H         1 RES1   0.0000
    69 N1I     21.0599   9.9716   4.1543   N.2       1 RES1   0.0000
    70 N2I     21.6586   8.7645   3.9044   N.pl3     1 RES1   0.0000
    71 N3I     23.1115   9.4883   5.4628   N.ar      1 RES1   0.0000
    72 N4I     24.3380  10.5333   7.0060   N.pl3     1 RES1   0.0000
    73 N5I     23.3763  11.5066   6.8735   N.2       1 RES1   0.0000
    74 O1I     26.6459   6.0891   5.8345   O.3       1 RES1   0.0000
    75 O2I     24.9924   4.9979   4.8352   O.2       1 RES1   0.0000
    76 O3      16.9387  11.1610  12.9777   O.2       2 RES2   0.0000
    77 O4      15.2404  11.1368  11.3690   O.2       2 RES2   0.0000
    78 O5      15.7580   9.4760  12.7080   O.3       2 RES2  -1.0000
    79 O6      17.4783   9.9782  11.2486   O.2       2 RES2   0.0000
    80 Cl1     16.4363  10.7425  11.9250   Cl        2 RES2   0.0000
@<TRIPOS>BOND
     1     1    32    1
     2     2     3    1
     3     4     2    1
     4     5     4    1
     5     6     4    2
     6     7     6    1
     7     8     9   ar
     8     9    10    1
     9    11     9   ar
    10    12    11    1
    11    13    11   ar
    12    14    13    1
    13    15    13   ar
    14    16    17    1
    15    18    16    2
    16    19    18    1
    17    20    18    1
    18    21    20    1
    19    22    23    1
    20    24    22    1
    21    25    22    1
    22    26    25    1
    23    27    25    1
    24    28    25    1
    25    29    28    1
    26    30    28    1
    27    31    28    1
    28    32     2    2
    29    33     6    1
    30    34     1    1
    31    35    15    1
    32    36     1    1
    33    37    12    1
    34    38    12    2
    35    39    40    1
    36    41    39    1
    37    42    41    1
    38    43    41    2
    39    44    43    1
    40    45    46   ar
    41    46    47    1
    42    48    46   ar
    43    49    48    1
    44    50    48   ar
    45    51    50    1
    46    52    50   ar
    47    53    54    1
    48    55    53    2
    49    56    55    1
    50    57    55    1
    51    58    57    1
    52    59    60    1
    53    61    59    1
    54    62    59    1
    55    63    62    1
    56    64    62    1
    57    65    62    1
    58    66    65    1
    59    67    65    1
    60    68    65    1
    61    69     1    1
    62    70    43    1
    63    71     1    1
    64    72    52    1
    65    73     1    1
    66    74    49    1
    67    75    49    2
    68     8    33    1
    69     8    34   ar
    70    15    34   ar
    71    16    35    1
    72    20    36    2
    73    22    37    1
    74    32    33    1
    75    35    36    1
    76    39    69    2
    77    45    70    1
    78    45    71   ar
    79    52    71   ar
    80    53    72    1
    81    57    73    2
    82    59    74    1
    83    69    70    1
    84    72    73    1
    85    76    80    2
    86    77    80    2
    87    78    80    1
    88    79    80    2
@<TRIPOS>SUBSTRUCTURE
     1 RES1        1 GROUP             0 ****  ****    0  
     2 RES2       76 GROUP             0 ****  ****    0  
@<TRIPOS>CRYSIN
   22.0269   22.0269   15.2338   90.0000   90.0000   90.0000   110     1
