@<TRIPOS>MOLECULE
NEWWAR01
    80    88     2     0     0
SMALL
USER_CHARGES
****
Generated from the CSD

@<TRIPOS>ATOM
     1 Fe1     22.0096  11.0048   5.4270   Fe        1 RES1   2.0000
     2 C1      24.0609  12.0635   3.3341   C.2       1 RES1   0.0000
     3 H1      24.6992  11.3592   3.3100   H         1 RES1   0.0000
     4 C2      24.1555  13.2344   2.5967   C.2       1 RES1   0.0000
     5 H2      24.8444  13.4677   1.9839   H         1 RES1   0.0000
     6 C3      23.0749  13.9805   2.9211   C.2       1 RES1   0.0000
     7 H3      22.8570  14.8455   2.5892   H         1 RES1   0.0000
     8 C4      21.2010  13.5359   4.5355   C.ar      1 RES1   0.0000
     9 C5      20.4491  14.6672   4.4544   C.ar      1 RES1   0.0000
    10 H4      20.6736  15.3759   3.8612   H         1 RES1   0.0000
    11 C6      19.3383  14.7341   5.2849   C.ar      1 RES1   0.0000
    12 C7      18.5805  16.0137   5.2474   C.2       1 RES1   0.0000
    13 C8      18.9855  13.6900   6.1185   C.ar      1 RES1   0.0000
    14 H5      18.2019  13.7252   6.6561   H         1 RES1   0.0000
    15 C9      19.8269  12.5961   6.1320   C.ar      1 RES1   0.0000
    16 C10     18.7522  11.0422   7.8185   C.2       1 RES1   0.0000
    17 H6      17.9774  11.5198   8.0904   H         1 RES1   0.0000
    18 C11     19.1484   9.8273   8.2631   C.2       1 RES1   0.0000
    19 H7      18.6994   9.2792   8.8968   H         1 RES1   0.0000
    20 C12     20.3391   9.5368   7.6098   C.2       1 RES1   0.0000
    21 H8      20.8453   8.7466   7.7479   H         1 RES1   0.0000
    22 C13     16.5446  17.1125   5.6694   C.3       1 RES1   0.0000
    23 H9      16.6591  17.5483   4.7878   H         1 RES1   0.0000
    24 H10     16.8109  17.7551   6.3738   H         1 RES1   0.0000
    25 C14     15.1096  16.6987   5.8601   C.3       1 RES1   0.0000
    26 H11     14.9863  16.2981   6.7582   H         1 RES1   0.0000
    27 H12     14.8543  16.0252   5.1798   H         1 RES1   0.0000
    28 C15     14.2380  17.9422   5.7190   C.3       1 RES1   0.0000
    29 H13     13.2960  17.6979   5.8391   H         1 RES1   0.0000
    30 H14     14.4955  18.6003   6.3978   H         1 RES1   0.0000
    31 H15     14.3635  18.3296   4.8269   H         1 RES1   0.0000
    32 N1      22.9694  12.0507   4.0715   N.2       1 RES1   0.0000
    33 N2      22.3635  13.2518   3.8146   N.pl3     1 RES1   0.0000
    34 N3      20.9142  12.5307   5.3750   N.ar      1 RES1   0.0000
    35 N4      19.6788  11.4490   6.9099   N.pl3     1 RES1   0.0000
    36 N5      20.6752  10.4957   6.7748   N.2       1 RES1   0.0000
    37 O1      17.3627  15.9059   5.7475   O.3       1 RES1   0.0000
    38 O2      19.0445  17.0227   4.7983   O.2       1 RES1   0.0000
    39 C1I     19.9583   9.9461   3.3341   C.2       1 RES1   0.0000
    40 H1I     19.3200  10.6504   3.3100   H         1 RES1   0.0000
    41 C2I     19.8637   8.7752   2.5967   C.2       1 RES1   0.0000
    42 H2I     19.1748   8.5419   1.9839   H         1 RES1   0.0000
    43 C3I     20.9443   8.0291   2.9211   C.2       1 RES1   0.0000
    44 H3I     21.1622   7.1641   2.5892   H         1 RES1   0.0000
    45 C4I     22.8182   8.4737   4.5355   C.ar      1 RES1   0.0000
    46 C5I     23.5701   7.3424   4.4544   C.ar      1 RES1   0.0000
    47 H4I     23.3456   6.6337   3.8612   H         1 RES1   0.0000
    48 C6I     24.6809   7.2755   5.2849   C.ar      1 RES1   0.0000
    49 C7I     25.4387   5.9959   5.2474   C.2       1 RES1   0.0000
    50 C8I     25.0337   8.3196   6.1185   C.ar      1 RES1   0.0000
    51 H5I     25.8173   8.2844   6.6561   H         1 RES1   0.0000
    52 C9I     24.1923   9.4135   6.1320   C.ar      1 RES1   0.0000
    53 C10I    25.2670  10.9674   7.8185   C.2       1 RES1   0.0000
    54 H6I     26.0418  10.4898   8.0904   H         1 RES1   0.0000
    55 C11I    24.8708  12.1823   8.2631   C.2       1 RES1   0.0000
    56 H7I     25.3198  12.7304   8.8968   H         1 RES1   0.0000
    57 C12I    23.6801  12.4728   7.6098   C.2       1 RES1   0.0000
    58 H8I     23.1739  13.2630   7.7479   H         1 RES1   0.0000
    59 C13I    27.4746   4.8971   5.6694   C.3       1 RES1   0.0000
    60 H9I     27.3601   4.4613   4.7878   H         1 RES1   0.0000
    61 H10I    27.2083   4.2545   6.3738   H         1 RES1   0.0000
    62 C14I    28.9096   5.3109   5.8601   C.3       1 RES1   0.0000
    63 H11I    29.0329   5.7115   6.7582   H         1 RES1   0.0000
    64 H12I    29.1649   5.9844   5.1798   H         1 RES1   0.0000
    65 C15I    29.7812   4.0674   5.7190   C.3       1 RES1   0.0000
    66 H13I    30.7232   4.3117   5.8391   H         1 RES1   0.0000
    67 H14I    29.5237   3.4093   6.3978   H         1 RES1   0.0000
    68 H15I    29.6557   3.6800   4.8269   H         1 RES1   0.0000
    69 N1I     21.0498   9.9589   4.0715   N.2       1 RES1   0.0000
    70 N2I     21.6557   8.7578   3.8146   N.pl3     1 RES1   0.0000
    71 N3I     23.1050   9.4789   5.3750   N.ar      1 RES1   0.0000
    72 N4I     24.3404  10.5606   6.9099   N.pl3     1 RES1   0.0000
    73 N5I     23.3440  11.5139   6.7748   N.2       1 RES1   0.0000
    74 O1I     26.6565   6.1037   5.7475   O.3       1 RES1   0.0000
    75 O2I     24.9747   4.9869   4.7983   O.2       1 RES1   0.0000
    76 O3      16.9298  11.2381  12.7971   O.2       2 RES2   0.0000
    77 O4      15.3451  11.0906  11.1090   O.2       2 RES2   0.0000
    78 O5      15.7501   9.4817  12.5673   O.3       2 RES2  -1.0000
    79 O6      17.4448   9.9395  11.0339   O.2       2 RES2   0.0000
    80 Cl1     16.4282  10.5943  11.8002   Cl        2 RES2   0.0000
@<TRIPOS>BOND
     1     1    32    1
     2     2     3    1
     3     4     2    1
     4     5     4    1
     5     6     4    2
     6     7     6    1
     7     8     9   ar
     8     9    10    1
     9    11     9   ar
    10    12    11    1
    11    13    11   ar
    12    14    13    1
    13    15    13   ar
    14    16    17    1
    15    18    16    2
    16    19    18    1
    17    20    18    1
    18    21    20    1
    19    22    23    1
    20    24    22    1
    21    25    22    1
    22    26    25    1
    23    27    25    1
    24    28    25    1
    25    29    28    1
    26    30    28    1
    27    31    28    1
    28    32     2    2
    29    33     6    1
    30    34     1    1
    31    35    15    1
    32    36     1    1
    33    37    12    1
    34    38    12    2
    35    39    40    1
    36    41    39    1
    37    42    41    1
    38    43    41    2
    39    44    43    1
    40    45    46   ar
    41    46    47    1
    42    48    46   ar
    43    49    48    1
    44    50    48   ar
    45    51    50    1
    46    52    50   ar
    47    53    54    1
    48    55    53    2
    49    56    55    1
    50    57    55    1
    51    58    57    1
    52    59    60    1
    53    61    59    1
    54    62    59    1
    55    63    62    1
    56    64    62    1
    57    65    62    1
    58    66    65    1
    59    67    65    1
    60    68    65    1
    61    69     1    1
    62    70    43    1
    63    71     1    1
    64    72    52    1
    65    73     1    1
    66    74    49    1
    67    75    49    2
    68     8    33    1
    69     8    34   ar
    70    15    34   ar
    71    16    35    1
    72    20    36    2
    73    22    37    1
    74    32    33    1
    75    35    36    1
    76    39    69    2
    77    45    70    1
    78    45    71   ar
    79    52    71   ar
    80    53    72    1
    81    57    73    2
    82    59    74    1
    83    69    70    1
    84    72    73    1
    85    76    80    2
    86    77    80    2
    87    78    80    1
    88    79    80    2
@<TRIPOS>SUBSTRUCTURE
     1 RES1        1 GROUP             0 ****  ****    0  
     2 RES2       76 GROUP             0 ****  ****    0  
@<TRIPOS>CRYSIN
   22.0096   22.0096   15.0183   90.0000   90.0000   90.0000   110     1
