@<TRIPOS>MOLECULE
NEWWAR
    80    88     2     0     0
SMALL
USER_CHARGES
****
Generated from the CSD

@<TRIPOS>ATOM
     1 Fe1     22.0209  11.0105   5.4698   Fe        1 RES1   2.0000
     2 C1      24.0754  12.0520   3.3839   C.2       1 RES1   0.0000
     3 H1      24.6964  11.3496   3.3582   H         1 RES1   0.0000
     4 C2      24.1878  13.2346   2.6518   C.2       1 RES1   0.0000
     5 H2      24.8858  13.4702   2.0679   H         1 RES1   0.0000
     6 C3      23.0889  13.9789   2.9513   C.2       1 RES1   0.0000
     7 H3      22.8643  14.8223   2.6018   H         1 RES1   0.0000
     8 C4      21.2299  13.5362   4.5820   C.ar      1 RES1   0.0000
     9 C5      20.4684  14.6769   4.4927   C.ar      1 RES1   0.0000
    10 H4      20.6908  15.3728   3.8997   H         1 RES1   0.0000
    11 C6      19.3608  14.7514   5.3217   C.ar      1 RES1   0.0000
    12 C7      18.6055  16.0385   5.2808   C.2       1 RES1   0.0000
    13 C8      19.0040  13.7124   6.1703   C.ar      1 RES1   0.0000
    14 H5      18.2377  13.7587   6.7118   H         1 RES1   0.0000
    15 C9      19.8364  12.6052   6.1809   C.ar      1 RES1   0.0000
    16 C10     18.7640  11.0721   7.8539   C.2       1 RES1   0.0000
    17 H6      17.9889  11.5412   8.1035   H         1 RES1   0.0000
    18 C11     19.1560   9.8588   8.3183   C.2       1 RES1   0.0000
    19 H7      18.7112   9.3281   8.9552   H         1 RES1   0.0000
    20 C12     20.3341   9.5593   7.6724   C.2       1 RES1   0.0000
    21 H8      20.8318   8.7753   7.8146   H         1 RES1   0.0000
    22 C13     16.5663  17.1323   5.6999   C.3       1 RES1   0.0000
    23 H9      16.6654  17.5485   4.8195   H         1 RES1   0.0000
    24 H10     16.8394  17.7775   6.3851   H         1 RES1   0.0000
    25 C14     15.1262  16.6984   5.9222   C.3       1 RES1   0.0000
    26 H11     15.0138  16.3131   6.8162   H         1 RES1   0.0000
    27 H12     14.8553  16.0334   5.2551   H         1 RES1   0.0000
    28 C15     14.2938  17.9845   5.7740   C.3       1 RES1   0.0000
    29 H13     13.3557  17.7797   5.9056   H         1 RES1   0.0000
    30 H14     14.5800  18.6319   6.4381   H         1 RES1   0.0000
    31 H15     14.4237  18.3522   4.8860   H         1 RES1   0.0000
    32 N1      22.9850  12.0542   4.1115   N.2       1 RES1   0.0000
    33 N2      22.3794  13.2583   3.8619   N.pl3     1 RES1   0.0000
    34 N3      20.9313  12.5321   5.4185   N.ar      1 RES1   0.0000
    35 N4      19.7069  11.4808   6.9584   N.pl3     1 RES1   0.0000
    36 N5      20.6770  10.5110   6.8314   N.2       1 RES1   0.0000
    37 O1      17.3829  15.9182   5.7861   O.3       1 RES1   0.0000
    38 O2      19.0545  17.0266   4.8179   O.2       1 RES1   0.0000
    39 C1I     19.9664   9.9689   3.3839   C.2       1 RES1   0.0000
    40 H1I     19.3454  10.6713   3.3582   H         1 RES1   0.0000
    41 C2I     19.8540   8.7863   2.6518   C.2       1 RES1   0.0000
    42 H2I     19.1560   8.5507   2.0679   H         1 RES1   0.0000
    43 C3I     20.9529   8.0420   2.9513   C.2       1 RES1   0.0000
    44 H3I     21.1775   7.1986   2.6018   H         1 RES1   0.0000
    45 C4I     22.8119   8.4847   4.5820   C.ar      1 RES1   0.0000
    46 C5I     23.5734   7.3440   4.4927   C.ar      1 RES1   0.0000
    47 H4I     23.3510   6.6481   3.8997   H         1 RES1   0.0000
    48 C6I     24.6810   7.2695   5.3217   C.ar      1 RES1   0.0000
    49 C7I     25.4363   5.9824   5.2808   C.2       1 RES1   0.0000
    50 C8I     25.0378   8.3085   6.1703   C.ar      1 RES1   0.0000
    51 H5I     25.8041   8.2622   6.7118   H         1 RES1   0.0000
    52 C9I     24.2054   9.4157   6.1809   C.ar      1 RES1   0.0000
    53 C10I    25.2778  10.9488   7.8539   C.2       1 RES1   0.0000
    54 H6I     26.0529  10.4797   8.1035   H         1 RES1   0.0000
    55 C11I    24.8858  12.1621   8.3183   C.2       1 RES1   0.0000
    56 H7I     25.3306  12.6928   8.9552   H         1 RES1   0.0000
    57 C12I    23.7077  12.4616   7.6724   C.2       1 RES1   0.0000
    58 H8I     23.2100  13.2456   7.8146   H         1 RES1   0.0000
    59 C13I    27.4755   4.8886   5.6999   C.3       1 RES1   0.0000
    60 H9I     27.3764   4.4724   4.8195   H         1 RES1   0.0000
    61 H10I    27.2024   4.2434   6.3851   H         1 RES1   0.0000
    62 C14I    28.9156   5.3225   5.9222   C.3       1 RES1   0.0000
    63 H11I    29.0280   5.7078   6.8162   H         1 RES1   0.0000
    64 H12I    29.1865   5.9875   5.2551   H         1 RES1   0.0000
    65 C15I    29.7480   4.0364   5.7740   C.3       1 RES1   0.0000
    66 H13I    30.6861   4.2412   5.9056   H         1 RES1   0.0000
    67 H14I    29.4618   3.3890   6.4381   H         1 RES1   0.0000
    68 H15I    29.6181   3.6687   4.8860   H         1 RES1   0.0000
    69 N1I     21.0568   9.9667   4.1115   N.2       1 RES1   0.0000
    70 N2I     21.6624   8.7626   3.8619   N.pl3     1 RES1   0.0000
    71 N3I     23.1105   9.4888   5.4185   N.ar      1 RES1   0.0000
    72 N4I     24.3349  10.5401   6.9584   N.pl3     1 RES1   0.0000
    73 N5I     23.3648  11.5099   6.8314   N.2       1 RES1   0.0000
    74 O1I     26.6589   6.1027   5.7861   O.3       1 RES1   0.0000
    75 O2I     24.9873   4.9943   4.8179   O.2       1 RES1   0.0000
    76 O3      16.9341  11.1029  12.9275   O.2       2 RES2   0.0000
    77 O4      15.2693  11.1073  11.2530   O.2       2 RES2   0.0000
    78 O5      15.7405   9.4404  12.6099   O.3       2 RES2  -1.0000
    79 O6      17.4648   9.9490  11.1531   O.2       2 RES2   0.0000
    80 Cl1     16.4342  10.6801  11.8621   Cl        2 RES2   0.0000
@<TRIPOS>BOND
     1     1    32    1
     2     2     3    1
     3     4     2    1
     4     5     4    1
     5     6     4    2
     6     7     6    1
     7     8     9   ar
     8     9    10    1
     9    11     9   ar
    10    12    11    1
    11    13    11   ar
    12    14    13    1
    13    15    13   ar
    14    16    17    1
    15    18    16    2
    16    19    18    1
    17    20    18    1
    18    21    20    1
    19    22    23    1
    20    24    22    1
    21    25    22    1
    22    26    25    1
    23    27    25    1
    24    28    25    1
    25    29    28    1
    26    30    28    1
    27    31    28    1
    28    32     2    2
    29    33     6    1
    30    34     1    1
    31    35    15    1
    32    36     1    1
    33    37    12    1
    34    38    12    2
    35    39    40    1
    36    41    39    1
    37    42    41    1
    38    43    41    2
    39    44    43    1
    40    45    46   ar
    41    46    47    1
    42    48    46   ar
    43    49    48    1
    44    50    48   ar
    45    51    50    1
    46    52    50   ar
    47    53    54    1
    48    55    53    2
    49    56    55    1
    50    57    55    1
    51    58    57    1
    52    59    60    1
    53    61    59    1
    54    62    59    1
    55    63    62    1
    56    64    62    1
    57    65    62    1
    58    66    65    1
    59    67    65    1
    60    68    65    1
    61    69     1    1
    62    70    43    1
    63    71     1    1
    64    72    52    1
    65    73     1    1
    66    74    49    1
    67    75    49    2
    68     8    33    1
    69     8    34   ar
    70    15    34   ar
    71    16    35    1
    72    20    36    2
    73    22    37    1
    74    32    33    1
    75    35    36    1
    76    39    69    2
    77    45    70    1
    78    45    71   ar
    79    52    71   ar
    80    53    72    1
    81    57    73    2
    82    59    74    1
    83    69    70    1
    84    72    73    1
    85    76    80    2
    86    77    80    2
    87    78    80    1
    88    79    80    2
@<TRIPOS>SUBSTRUCTURE
     1 RES1        1 GROUP             0 ****  ****    0  
     2 RES2       76 GROUP             0 ****  ****    0  
@<TRIPOS>CRYSIN
   22.0209   22.0209   15.1270   90.0000   90.0000   90.0000   110     1
