@<TRIPOS>MOLECULE
NEWWAR04
    80    88     2     0     0
SMALL
USER_CHARGES
****
Generated from the CSD

@<TRIPOS>ATOM
     1 Fe1     22.0236  11.0118   5.4415   Fe        1 RES1   2.0000
     2 C1      24.0762  12.0601   3.3590   C.2       1 RES1   0.0000
     3 H1      24.6995  11.3576   3.3395   H         1 RES1   0.0000
     4 C2      24.1929  13.2318   2.6243   C.2       1 RES1   0.0000
     5 H2      24.8911  13.4608   2.0356   H         1 RES1   0.0000
     6 C3      23.0851  13.9894   2.9269   C.2       1 RES1   0.0000
     7 H3      22.8649  14.8329   2.5791   H         1 RES1   0.0000
     8 C4      21.2285  13.5357   4.5560   C.ar      1 RES1   0.0000
     9 C5      20.4643  14.6765   4.4672   C.ar      1 RES1   0.0000
    10 H4      20.6824  15.3703   3.8709   H         1 RES1   0.0000
    11 C6      19.3565  14.7514   5.2938   C.ar      1 RES1   0.0000
    12 C7      18.6033  16.0354   5.2576   C.2       1 RES1   0.0000
    13 C8      19.0042  13.7119   6.1429   C.ar      1 RES1   0.0000
    14 H5      18.2355  13.7581   6.6850   H         1 RES1   0.0000
    15 C9      19.8411  12.5997   6.1550   C.ar      1 RES1   0.0000
    16 C10     18.7663  11.0603   7.8232   C.2       1 RES1   0.0000
    17 H6      17.9889  11.5272   8.0746   H         1 RES1   0.0000
    18 C11     19.1605   9.8468   8.2824   C.2       1 RES1   0.0000
    19 H7      18.7179   9.3116   8.9163   H         1 RES1   0.0000
    20 C12     20.3388   9.5560   7.6350   C.2       1 RES1   0.0000
    21 H8      20.8365   8.7720   7.7750   H         1 RES1   0.0000
    22 C13     16.5617  17.1300   5.6762   C.3       1 RES1   0.0000
    23 H9      16.6653  17.5506   4.7969   H         1 RES1   0.0000
    24 H10     16.8348  17.7708   6.3643   H         1 RES1   0.0000
    25 C14     15.1236  16.7049   5.8915   C.3       1 RES1   0.0000
    26 H11     15.0091  16.3283   6.7873   H         1 RES1   0.0000
    27 H12     14.8637  16.0310   5.2305   H         1 RES1   0.0000
    28 C15     14.2779  17.9735   5.7274   C.3       1 RES1   0.0000
    29 H13     13.3397  17.7554   5.8569   H         1 RES1   0.0000
    30 H14     14.5488  18.6320   6.3853   H         1 RES1   0.0000
    31 H15     14.4056  18.3368   4.8361   H         1 RES1   0.0000
    32 N1      22.9860  12.0579   4.0832   N.2       1 RES1   0.0000
    33 N2      22.3760  13.2626   3.8363   N.pl3     1 RES1   0.0000
    34 N3      20.9312  12.5363   5.3886   N.ar      1 RES1   0.0000
    35 N4      19.7045  11.4743   6.9304   N.pl3     1 RES1   0.0000
    36 N5      20.6824  10.5053   6.7979   N.2       1 RES1   0.0000
    37 O1      17.3744  15.9149   5.7590   O.3       1 RES1   0.0000
    38 O2      19.0566  17.0284   4.8059   O.2       1 RES1   0.0000
    39 C1I     19.9710   9.9635   3.3590   C.2       1 RES1   0.0000
    40 H1I     19.3477  10.6660   3.3395   H         1 RES1   0.0000
    41 C2I     19.8543   8.7918   2.6243   C.2       1 RES1   0.0000
    42 H2I     19.1561   8.5628   2.0356   H         1 RES1   0.0000
    43 C3I     20.9621   8.0342   2.9269   C.2       1 RES1   0.0000
    44 H3I     21.1823   7.1907   2.5791   H         1 RES1   0.0000
    45 C4I     22.8187   8.4879   4.5560   C.ar      1 RES1   0.0000
    46 C5I     23.5829   7.3471   4.4672   C.ar      1 RES1   0.0000
    47 H4I     23.3648   6.6533   3.8709   H         1 RES1   0.0000
    48 C6I     24.6907   7.2722   5.2938   C.ar      1 RES1   0.0000
    49 C7I     25.4439   5.9882   5.2576   C.2       1 RES1   0.0000
    50 C8I     25.0430   8.3117   6.1429   C.ar      1 RES1   0.0000
    51 H5I     25.8117   8.2655   6.6850   H         1 RES1   0.0000
    52 C9I     24.2061   9.4239   6.1550   C.ar      1 RES1   0.0000
    53 C10I    25.2809  10.9633   7.8232   C.2       1 RES1   0.0000
    54 H6I     26.0583  10.4964   8.0746   H         1 RES1   0.0000
    55 C11I    24.8867  12.1768   8.2824   C.2       1 RES1   0.0000
    56 H7I     25.3293  12.7120   8.9163   H         1 RES1   0.0000
    57 C12I    23.7084  12.4676   7.6350   C.2       1 RES1   0.0000
    58 H8I     23.2107  13.2516   7.7750   H         1 RES1   0.0000
    59 C13I    27.4855   4.8936   5.6762   C.3       1 RES1   0.0000
    60 H9I     27.3819   4.4730   4.7969   H         1 RES1   0.0000
    61 H10I    27.2124   4.2528   6.3643   H         1 RES1   0.0000
    62 C14I    28.9236   5.3187   5.8915   C.3       1 RES1   0.0000
    63 H11I    29.0381   5.6953   6.7873   H         1 RES1   0.0000
    64 H12I    29.1835   5.9926   5.2305   H         1 RES1   0.0000
    65 C15I    29.7693   4.0501   5.7274   C.3       1 RES1   0.0000
    66 H13I    30.7075   4.2682   5.8569   H         1 RES1   0.0000
    67 H14I    29.4984   3.3916   6.3853   H         1 RES1   0.0000
    68 H15I    29.6416   3.6868   4.8361   H         1 RES1   0.0000
    69 N1I     21.0612   9.9657   4.0832   N.2       1 RES1   0.0000
    70 N2I     21.6712   8.7610   3.8363   N.pl3     1 RES1   0.0000
    71 N3I     23.1160   9.4873   5.3886   N.ar      1 RES1   0.0000
    72 N4I     24.3427  10.5493   6.9304   N.pl3     1 RES1   0.0000
    73 N5I     23.3648  11.5183   6.7979   N.2       1 RES1   0.0000
    74 O1I     26.6728   6.1087   5.7590   O.3       1 RES1   0.0000
    75 O2I     24.9906   4.9952   4.8059   O.2       1 RES1   0.0000
    76 O3      16.9317  11.1307  12.8761   O.2       2 RES2   0.0000
    77 O4      15.3020  11.1065  11.1747   O.2       2 RES2   0.0000
    78 O5      15.7293   9.4327  12.5554   O.3       2 RES2  -1.0000
    79 O6      17.4713   9.9393  11.0784   O.2       2 RES2   0.0000
    80 Cl1     16.4386  10.6462  11.8163   Cl        2 RES2   0.0000
@<TRIPOS>BOND
     1     1    32    1
     2     2     3    1
     3     4     2    1
     4     5     4    1
     5     6     4    2
     6     7     6    1
     7     8     9   ar
     8     9    10    1
     9    11     9   ar
    10    12    11    1
    11    13    11   ar
    12    14    13    1
    13    15    13   ar
    14    16    17    1
    15    18    16    2
    16    19    18    1
    17    20    18    1
    18    21    20    1
    19    22    23    1
    20    24    22    1
    21    25    22    1
    22    26    25    1
    23    27    25    1
    24    28    25    1
    25    29    28    1
    26    30    28    1
    27    31    28    1
    28    32     2    2
    29    33     6    1
    30    34     1    1
    31    35    15    1
    32    36     1    1
    33    37    12    1
    34    38    12    2
    35    39    40    1
    36    41    39    1
    37    42    41    1
    38    43    41    2
    39    44    43    1
    40    45    46   ar
    41    46    47    1
    42    48    46   ar
    43    49    48    1
    44    50    48   ar
    45    51    50    1
    46    52    50   ar
    47    53    54    1
    48    55    53    2
    49    56    55    1
    50    57    55    1
    51    58    57    1
    52    59    60    1
    53    61    59    1
    54    62    59    1
    55    63    62    1
    56    64    62    1
    57    65    62    1
    58    66    65    1
    59    67    65    1
    60    68    65    1
    61    69     1    1
    62    70    43    1
    63    71     1    1
    64    72    52    1
    65    73     1    1
    66    74    49    1
    67    75    49    2
    68     8    33    1
    69     8    34   ar
    70    15    34   ar
    71    16    35    1
    72    20    36    2
    73    22    37    1
    74    32    33    1
    75    35    36    1
    76    39    69    2
    77    45    70    1
    78    45    71   ar
    79    52    71   ar
    80    53    72    1
    81    57    73    2
    82    59    74    1
    83    69    70    1
    84    72    73    1
    85    76    80    2
    86    77    80    2
    87    78    80    1
    88    79    80    2
@<TRIPOS>SUBSTRUCTURE
     1 RES1        1 GROUP             0 ****  ****    0  
     2 RES2       76 GROUP             0 ****  ****    0  
@<TRIPOS>CRYSIN
   22.0236   22.0236   15.0562   90.0000   90.0000   90.0000   110     1
