@<TRIPOS>MOLECULE
NEWWAR03
    80    88     2     0     0
SMALL
USER_CHARGES
****
Generated from the CSD

@<TRIPOS>ATOM
     1 Fe1     22.0202  11.0101   5.5759   Fe        1 RES1   2.0000
     2 C1      24.0659  12.0406   3.4751   C.2       1 RES1   0.0000
     3 H1      24.6824  11.3470   3.4474   H         1 RES1   0.0000
     4 C2      24.1562  13.2253   2.7314   C.2       1 RES1   0.0000
     5 H2      24.8366  13.4609   2.1448   H         1 RES1   0.0000
     6 C3      23.0662  13.9586   3.0332   C.2       1 RES1   0.0000
     7 H3      22.8349  14.7822   2.6699   H         1 RES1   0.0000
     8 C4      21.2319  13.5468   4.6838   C.ar      1 RES1   0.0000
     9 C5      20.4678  14.6853   4.5945   C.ar      1 RES1   0.0000
    10 H4      20.6858  15.3723   4.0063   H         1 RES1   0.0000
    11 C6      19.3624  14.7623   5.4152   C.ar      1 RES1   0.0000
    12 C7      18.6137  16.0505   5.3597   C.2       1 RES1   0.0000
    13 C8      19.0122  13.7428   6.2651   C.ar      1 RES1   0.0000
    14 H5      18.2547  13.7957   6.8024   H         1 RES1   0.0000
    15 C9      19.8402  12.6352   6.2820   C.ar      1 RES1   0.0000
    16 C10     18.7766  11.1246   7.9788   C.2       1 RES1   0.0000
    17 H6      18.0235  11.6046   8.2359   H         1 RES1   0.0000
    18 C11     19.1532   9.9179   8.4330   C.2       1 RES1   0.0000
    19 H7      18.7040   9.3982   9.0612   H         1 RES1   0.0000
    20 C12     20.3158   9.5964   7.7971   C.2       1 RES1   0.0000
    21 H8      20.8003   8.8191   7.9526   H         1 RES1   0.0000
    22 C13     16.5966  17.1736   5.8109   C.3       1 RES1   0.0000
    23 H9      16.6935  17.5809   4.9363   H         1 RES1   0.0000
    24 H10     16.8697  17.8165   6.4837   H         1 RES1   0.0000
    25 C14     15.1565  16.7442   6.0418   C.3       1 RES1   0.0000
    26 H11     15.0486  16.3478   6.9195   H         1 RES1   0.0000
    27 H12     14.8724  16.1034   5.3690   H         1 RES1   0.0000
    28 C15     14.3572  18.0544   5.9263   C.3       1 RES1   0.0000
    29 H13     13.4235  17.8716   6.0603   H         1 RES1   0.0000
    30 H14     14.6610  18.6731   6.5930   H         1 RES1   0.0000
    31 H15     14.4871  18.4331   5.0549   H         1 RES1   0.0000
    32 N1      22.9825  12.0539   4.2142   N.2       1 RES1   0.0000
    33 N2      22.3791  13.2650   3.9632   N.pl3     1 RES1   0.0000
    34 N3      20.9265  12.5476   5.5214   N.ar      1 RES1   0.0000
    35 N4      19.7074  11.5073   7.0780   N.pl3     1 RES1   0.0000
    36 N5      20.6616  10.5272   6.9364   N.2       1 RES1   0.0000
    37 O1      17.4114  15.9547   5.9032   O.3       1 RES1   0.0000
    38 O2      19.0635  17.0350   4.8701   O.2       1 RES1   0.0000
    39 C1I     19.9745   9.9796   3.4751   C.2       1 RES1   0.0000
    40 H1I     19.3580  10.6732   3.4474   H         1 RES1   0.0000
    41 C2I     19.8842   8.7949   2.7314   C.2       1 RES1   0.0000
    42 H2I     19.2038   8.5593   2.1448   H         1 RES1   0.0000
    43 C3I     20.9742   8.0616   3.0332   C.2       1 RES1   0.0000
    44 H3I     21.2055   7.2380   2.6699   H         1 RES1   0.0000
    45 C4I     22.8085   8.4734   4.6838   C.ar      1 RES1   0.0000
    46 C5I     23.5726   7.3349   4.5945   C.ar      1 RES1   0.0000
    47 H4I     23.3546   6.6479   4.0063   H         1 RES1   0.0000
    48 C6I     24.6780   7.2579   5.4152   C.ar      1 RES1   0.0000
    49 C7I     25.4267   5.9697   5.3597   C.2       1 RES1   0.0000
    50 C8I     25.0282   8.2774   6.2651   C.ar      1 RES1   0.0000
    51 H5I     25.7857   8.2245   6.8024   H         1 RES1   0.0000
    52 C9I     24.2002   9.3850   6.2820   C.ar      1 RES1   0.0000
    53 C10I    25.2638  10.8956   7.9788   C.2       1 RES1   0.0000
    54 H6I     26.0169  10.4156   8.2359   H         1 RES1   0.0000
    55 C11I    24.8872  12.1023   8.4330   C.2       1 RES1   0.0000
    56 H7I     25.3364  12.6220   9.0612   H         1 RES1   0.0000
    57 C12I    23.7246  12.4238   7.7971   C.2       1 RES1   0.0000
    58 H8I     23.2401  13.2011   7.9526   H         1 RES1   0.0000
    59 C13I    27.4438   4.8466   5.8109   C.3       1 RES1   0.0000
    60 H9I     27.3469   4.4393   4.9363   H         1 RES1   0.0000
    61 H10I    27.1707   4.2037   6.4837   H         1 RES1   0.0000
    62 C14I    28.8839   5.2760   6.0418   C.3       1 RES1   0.0000
    63 H11I    28.9918   5.6724   6.9195   H         1 RES1   0.0000
    64 H12I    29.1680   5.9168   5.3690   H         1 RES1   0.0000
    65 C15I    29.6832   3.9658   5.9263   C.3       1 RES1   0.0000
    66 H13I    30.6169   4.1486   6.0603   H         1 RES1   0.0000
    67 H14I    29.3794   3.3471   6.5930   H         1 RES1   0.0000
    68 H15I    29.5533   3.5871   5.0549   H         1 RES1   0.0000
    69 N1I     21.0579   9.9663   4.2142   N.2       1 RES1   0.0000
    70 N2I     21.6613   8.7552   3.9632   N.pl3     1 RES1   0.0000
    71 N3I     23.1139   9.4726   5.5214   N.ar      1 RES1   0.0000
    72 N4I     24.3330  10.5129   7.0780   N.pl3     1 RES1   0.0000
    73 N5I     23.3788  11.4930   6.9364   N.2       1 RES1   0.0000
    74 O1I     26.6290   6.0655   5.9032   O.3       1 RES1   0.0000
    75 O2I     24.9769   4.9852   4.8701   O.2       1 RES1   0.0000
    76 O3      16.9049  11.2171  13.0706   O.2       2 RES2   0.0000
    77 O4      15.1873  11.0938  11.5232   O.2       2 RES2   0.0000
    78 O5      15.8017   9.6889  12.8643   O.2       2 RES2   0.0000
    79 O6      17.4620   9.8739  11.4062   O.3       2 RES2  -1.0000
    80 Cl1     16.4244  10.7767  12.0390   Cl        2 RES2   0.0000
@<TRIPOS>BOND
     1     1    32    1
     2     2     3    1
     3     4     2    1
     4     5     4    1
     5     6     4    2
     6     7     6    1
     7     8     9   ar
     8     9    10    1
     9    11     9   ar
    10    12    11    1
    11    13    11   ar
    12    14    13    1
    13    15    13   ar
    14    16    17    1
    15    18    16    2
    16    19    18    1
    17    20    18    1
    18    21    20    1
    19    22    23    1
    20    24    22    1
    21    25    22    1
    22    26    25    1
    23    27    25    1
    24    28    25    1
    25    29    28    1
    26    30    28    1
    27    31    28    1
    28    32     2    2
    29    33     6    1
    30    34     1    1
    31    35    15    1
    32    36     1    1
    33    37    12    1
    34    38    12    2
    35    39    40    1
    36    41    39    1
    37    42    41    1
    38    43    41    2
    39    44    43    1
    40    45    46   ar
    41    46    47    1
    42    48    46   ar
    43    49    48    1
    44    50    48   ar
    45    51    50    1
    46    52    50   ar
    47    53    54    1
    48    55    53    2
    49    56    55    1
    50    57    55    1
    51    58    57    1
    52    59    60    1
    53    61    59    1
    54    62    59    1
    55    63    62    1
    56    64    62    1
    57    65    62    1
    58    66    65    1
    59    67    65    1
    60    68    65    1
    61    69     1    1
    62    70    43    1
    63    71     1    1
    64    72    52    1
    65    73     1    1
    66    74    49    1
    67    75    49    2
    68     8    33    1
    69     8    34   ar
    70    15    34   ar
    71    16    35    1
    72    20    36    2
    73    22    37    1
    74    32    33    1
    75    35    36    1
    76    39    69    2
    77    45    70    1
    78    45    71   ar
    79    52    71   ar
    80    53    72    1
    81    57    73    2
    82    59    74    1
    83    69    70    1
    84    72    73    1
    85    76    80    2
    86    77    80    2
    87    78    80    2
    88    79    80    1
@<TRIPOS>SUBSTRUCTURE
     1 RES1        1 GROUP             0 ****  ****    0  
     2 RES2       76 GROUP             0 ****  ****    0  
@<TRIPOS>CRYSIN
   22.0202   22.0202   15.3971   90.0000   90.0000   90.0000   110     1
