@<TRIPOS>MOLECULE
NEWWAR06
    80    88     2     0     0
SMALL
USER_CHARGES
****
Generated from the CSD

@<TRIPOS>ATOM
     1 Fe1     22.0206  11.0103   5.4938   Fe        1 RES1   2.0000
     2 C1      24.0751  12.0497   3.4081   C.2       1 RES1   0.0000
     3 H1      24.6939  11.3560   3.3838   H         1 RES1   0.0000
     4 C2      24.1808  13.2300   2.6776   C.2       1 RES1   0.0000
     5 H2      24.8701  13.4656   2.0989   H         1 RES1   0.0000
     6 C3      23.0798  13.9743   2.9737   C.2       1 RES1   0.0000
     7 H3      22.8530  14.8044   2.6199   H         1 RES1   0.0000
     8 C4      21.2301  13.5361   4.6064   C.ar      1 RES1   0.0000
     9 C5      20.4703  14.6745   4.5168   C.ar      1 RES1   0.0000
    10 H4      20.6884  15.3616   3.9290   H         1 RES1   0.0000
    11 C6      19.3649  14.7494   5.3445   C.ar      1 RES1   0.0000
    12 C7      18.6118  16.0398   5.2974   C.2       1 RES1   0.0000
    13 C8      19.0104  13.7188   6.1920   C.ar      1 RES1   0.0000
    14 H5      18.2529  13.7695   6.7311   H         1 RES1   0.0000
    15 C9      19.8340  12.6112   6.2011   C.ar      1 RES1   0.0000
    16 C10     18.7682  11.0808   7.8824   C.2       1 RES1   0.0000
    17 H6      18.0040  11.5476   8.1299   H         1 RES1   0.0000
    18 C11     19.1623   9.8718   8.3441   C.2       1 RES1   0.0000
    19 H7      18.7241   9.3521   8.9774   H         1 RES1   0.0000
    20 C12     20.3272   9.5657   7.7001   C.2       1 RES1   0.0000
    21 H8      20.8139   8.7840   7.8383   H         1 RES1   0.0000
    22 C13     16.5793  17.1408   5.7257   C.3       1 RES1   0.0000
    23 H9      16.6740  17.5526   4.8540   H         1 RES1   0.0000
    24 H10     16.8502  17.7794   6.4031   H         1 RES1   0.0000
    25 C14     15.1414  16.7070   5.9520   C.3       1 RES1   0.0000
    26 H11     15.0335  16.3239   6.8359   H         1 RES1   0.0000
    27 H12     14.8727  16.0508   5.2914   H         1 RES1   0.0000
    28 C15     14.3068  17.9952   5.8108   C.3       1 RES1   0.0000
    29 H13     13.3797  17.7926   5.9429   H         1 RES1   0.0000
    30 H14     14.5908  18.6360   6.4669   H         1 RES1   0.0000
    31 H15     14.4323  18.3630   4.9314   H         1 RES1   0.0000
    32 N1      22.9851  12.0519   4.1325   N.2       1 RES1   0.0000
    33 N2      22.3839  13.2564   3.8880   N.pl3     1 RES1   0.0000
    34 N3      20.9341  12.5328   5.4432   N.ar      1 RES1   0.0000
    35 N4      19.7102  11.4846   6.9863   N.pl3     1 RES1   0.0000
    36 N5      20.6751  10.5170   6.8557   N.2       1 RES1   0.0000
    37 O1      17.3919  15.9244   5.8108   O.3       1 RES1   0.0000
    38 O2      19.0546  17.0241   4.8297   O.2       1 RES1   0.0000
    39 C1I     19.9661   9.9709   3.4081   C.2       1 RES1   0.0000
    40 H1I     19.3473  10.6646   3.3838   H         1 RES1   0.0000
    41 C2I     19.8604   8.7906   2.6776   C.2       1 RES1   0.0000
    42 H2I     19.1711   8.5550   2.0989   H         1 RES1   0.0000
    43 C3I     20.9614   8.0463   2.9737   C.2       1 RES1   0.0000
    44 H3I     21.1882   7.2162   2.6199   H         1 RES1   0.0000
    45 C4I     22.8111   8.4845   4.6064   C.ar      1 RES1   0.0000
    46 C5I     23.5709   7.3461   4.5168   C.ar      1 RES1   0.0000
    47 H4I     23.3528   6.6590   3.9290   H         1 RES1   0.0000
    48 C6I     24.6763   7.2712   5.3445   C.ar      1 RES1   0.0000
    49 C7I     25.4294   5.9808   5.2974   C.2       1 RES1   0.0000
    50 C8I     25.0308   8.3018   6.1920   C.ar      1 RES1   0.0000
    51 H5I     25.7883   8.2511   6.7311   H         1 RES1   0.0000
    52 C9I     24.2072   9.4094   6.2011   C.ar      1 RES1   0.0000
    53 C10I    25.2730  10.9398   7.8824   C.2       1 RES1   0.0000
    54 H6I     26.0372  10.4730   8.1299   H         1 RES1   0.0000
    55 C11I    24.8789  12.1488   8.3441   C.2       1 RES1   0.0000
    56 H7I     25.3171  12.6685   8.9774   H         1 RES1   0.0000
    57 C12I    23.7140  12.4549   7.7001   C.2       1 RES1   0.0000
    58 H8I     23.2273  13.2366   7.8383   H         1 RES1   0.0000
    59 C13I    27.4619   4.8798   5.7257   C.3       1 RES1   0.0000
    60 H9I     27.3672   4.4680   4.8540   H         1 RES1   0.0000
    61 H10I    27.1910   4.2412   6.4031   H         1 RES1   0.0000
    62 C14I    28.8998   5.3136   5.9520   C.3       1 RES1   0.0000
    63 H11I    29.0077   5.6967   6.8359   H         1 RES1   0.0000
    64 H12I    29.1685   5.9698   5.2914   H         1 RES1   0.0000
    65 C15I    29.7344   4.0254   5.8108   C.3       1 RES1   0.0000
    66 H13I    30.6615   4.2280   5.9429   H         1 RES1   0.0000
    67 H14I    29.4504   3.3846   6.4669   H         1 RES1   0.0000
    68 H15I    29.6089   3.6576   4.9314   H         1 RES1   0.0000
    69 N1I     21.0561   9.9687   4.1325   N.2       1 RES1   0.0000
    70 N2I     21.6573   8.7642   3.8880   N.pl3     1 RES1   0.0000
    71 N3I     23.1071   9.4878   5.4432   N.ar      1 RES1   0.0000
    72 N4I     24.3310  10.5360   6.9863   N.pl3     1 RES1   0.0000
    73 N5I     23.3661  11.5036   6.8557   N.2       1 RES1   0.0000
    74 O1I     26.6493   6.0962   5.8108   O.3       1 RES1   0.0000
    75 O2I     24.9866   4.9965   4.8297   O.2       1 RES1   0.0000
    76 O3      16.9338  11.1204  12.9702   O.2       2 RES2   0.0000
    77 O4      15.2515  11.1226  11.3148   O.2       2 RES2   0.0000
    78 O5      15.7579   9.4556  12.6634   O.3       2 RES2  -1.0000
    79 O6      17.4667   9.9643  11.2039   O.2       2 RES2   0.0000
    80 Cl1     16.4331  10.7108  11.8980   Cl        2 RES2   0.0000
@<TRIPOS>BOND
     1     1    32    1
     2     2     3    1
     3     4     2    1
     4     5     4    1
     5     6     4    2
     6     7     6    1
     7     8     9   ar
     8     9    10    1
     9    11     9   ar
    10    12    11    1
    11    13    11   ar
    12    14    13    1
    13    15    13   ar
    14    16    17    1
    15    18    16    2
    16    19    18    1
    17    20    18    1
    18    21    20    1
    19    22    23    1
    20    24    22    1
    21    25    22    1
    22    26    25    1
    23    27    25    1
    24    28    25    1
    25    29    28    1
    26    30    28    1
    27    31    28    1
    28    32     2    2
    29    33     6    1
    30    34     1    1
    31    35    15    1
    32    36     1    1
    33    37    12    1
    34    38    12    2
    35    39    40    1
    36    41    39    1
    37    42    41    1
    38    43    41    2
    39    44    43    1
    40    45    46   ar
    41    46    47    1
    42    48    46   ar
    43    49    48    1
    44    50    48   ar
    45    51    50    1
    46    52    50   ar
    47    53    54    1
    48    55    53    2
    49    56    55    1
    50    57    55    1
    51    58    57    1
    52    59    60    1
    53    61    59    1
    54    62    59    1
    55    63    62    1
    56    64    62    1
    57    65    62    1
    58    66    65    1
    59    67    65    1
    60    68    65    1
    61    69     1    1
    62    70    43    1
    63    71     1    1
    64    72    52    1
    65    73     1    1
    66    74    49    1
    67    75    49    2
    68     8    33    1
    69     8    34   ar
    70    15    34   ar
    71    16    35    1
    72    20    36    2
    73    22    37    1
    74    32    33    1
    75    35    36    1
    76    39    69    2
    77    45    70    1
    78    45    71   ar
    79    52    71   ar
    80    53    72    1
    81    57    73    2
    82    59    74    1
    83    69    70    1
    84    72    73    1
    85    76    80    2
    86    77    80    2
    87    78    80    1
    88    79    80    2
@<TRIPOS>SUBSTRUCTURE
     1 RES1        1 GROUP             0 ****  ****    0  
     2 RES2       76 GROUP             0 ****  ****    0  
@<TRIPOS>CRYSIN
   22.0206   22.0206   15.1876   90.0000   90.0000   90.0000   110     1
