@<TRIPOS>MOLECULE
NEWWAR02
    80    88     2     0     0
SMALL
USER_CHARGES
****
Generated from the CSD

@<TRIPOS>ATOM
     1 Fe1     22.0234  11.0117   5.5428   Fe        1 RES1   2.0000
     2 C1      24.0738  12.0490   3.4441   C.2       1 RES1   0.0000
     3 H1      24.6904  11.3531   3.4150   H         1 RES1   0.0000
     4 C2      24.1707  13.2317   2.7078   C.2       1 RES1   0.0000
     5 H2      24.8556  13.4695   2.1246   H         1 RES1   0.0000
     6 C3      23.0783  13.9606   3.0109   C.2       1 RES1   0.0000
     7 H3      22.8449  14.7865   2.6542   H         1 RES1   0.0000
     8 C4      21.2394  13.5444   4.6533   C.ar      1 RES1   0.0000
     9 C5      20.4708  14.6830   4.5630   C.ar      1 RES1   0.0000
    10 H4      20.6866  15.3679   3.9737   H         1 RES1   0.0000
    11 C6      19.3718  14.7623   5.3850   C.ar      1 RES1   0.0000
    12 C7      18.6230  16.0507   5.3330   C.2       1 RES1   0.0000
    13 C8      19.0128  13.7360   6.2345   C.ar      1 RES1   0.0000
    14 H5      18.2552  13.7866   6.7703   H         1 RES1   0.0000
    15 C9      19.8409  12.6282   6.2483   C.ar      1 RES1   0.0000
    16 C10     18.7705  11.1108   7.9351   C.2       1 RES1   0.0000
    17 H6      18.0107  11.5821   8.1862   H         1 RES1   0.0000
    18 C11     19.1604   9.8929   8.3928   C.2       1 RES1   0.0000
    19 H7      18.7177   9.3688   9.0204   H         1 RES1   0.0000
    20 C12     20.3188   9.5890   7.7561   C.2       1 RES1   0.0000
    21 H8      20.8055   8.8116   7.9091   H         1 RES1   0.0000
    22 C13     16.5924  17.1650   5.7707   C.3       1 RES1   0.0000
    23 H9      16.6915  17.5747   4.8982   H         1 RES1   0.0000
    24 H10     16.8567  17.8059   6.4488   H         1 RES1   0.0000
    25 C14     15.1477  16.7180   5.9896   C.3       1 RES1   0.0000
    26 H11     15.0354  16.3171   6.8683   H         1 RES1   0.0000
    27 H12     14.8746  16.0771   5.3146   H         1 RES1   0.0000
    28 C15     14.3350  18.0306   5.8702   C.3       1 RES1   0.0000
    29 H13     13.4012  17.8434   5.9958   H         1 RES1   0.0000
    30 H14     14.6301  18.6516   6.5407   H         1 RES1   0.0000
    31 H15     14.4694  18.4116   4.9993   H         1 RES1   0.0000
    32 N1      22.9880  12.0556   4.1788   N.2       1 RES1   0.0000
    33 N2      22.3890  13.2625   3.9293   N.pl3     1 RES1   0.0000
    34 N3      20.9337  12.5436   5.4891   N.ar      1 RES1   0.0000
    35 N4      19.7131  11.5004   7.0382   N.pl3     1 RES1   0.0000
    36 N5      20.6749  10.5219   6.9004   N.2       1 RES1   0.0000
    37 O1      17.4117  15.9438   5.8656   O.3       1 RES1   0.0000
    38 O2      19.0582  17.0265   4.8462   O.2       1 RES1   0.0000
    39 C1I     19.9730   9.9744   3.4441   C.2       1 RES1   0.0000
    40 H1I     19.3564  10.6703   3.4150   H         1 RES1   0.0000
    41 C2I     19.8761   8.7917   2.7078   C.2       1 RES1   0.0000
    42 H2I     19.1912   8.5539   2.1246   H         1 RES1   0.0000
    43 C3I     20.9685   8.0628   3.0109   C.2       1 RES1   0.0000
    44 H3I     21.2019   7.2369   2.6542   H         1 RES1   0.0000
    45 C4I     22.8074   8.4790   4.6533   C.ar      1 RES1   0.0000
    46 C5I     23.5760   7.3404   4.5630   C.ar      1 RES1   0.0000
    47 H4I     23.3602   6.6555   3.9737   H         1 RES1   0.0000
    48 C6I     24.6750   7.2611   5.3850   C.ar      1 RES1   0.0000
    49 C7I     25.4238   5.9727   5.3330   C.2       1 RES1   0.0000
    50 C8I     25.0340   8.2874   6.2345   C.ar      1 RES1   0.0000
    51 H5I     25.7916   8.2368   6.7703   H         1 RES1   0.0000
    52 C9I     24.2059   9.3952   6.2483   C.ar      1 RES1   0.0000
    53 C10I    25.2763  10.9126   7.9351   C.2       1 RES1   0.0000
    54 H6I     26.0361  10.4413   8.1862   H         1 RES1   0.0000
    55 C11I    24.8864  12.1305   8.3928   C.2       1 RES1   0.0000
    56 H7I     25.3291  12.6546   9.0204   H         1 RES1   0.0000
    57 C12I    23.7280  12.4344   7.7561   C.2       1 RES1   0.0000
    58 H8I     23.2413  13.2118   7.9091   H         1 RES1   0.0000
    59 C13I    27.4544   4.8584   5.7707   C.3       1 RES1   0.0000
    60 H9I     27.3553   4.4487   4.8982   H         1 RES1   0.0000
    61 H10I    27.1901   4.2175   6.4488   H         1 RES1   0.0000
    62 C14I    28.8991   5.3054   5.9896   C.3       1 RES1   0.0000
    63 H11I    29.0114   5.7063   6.8683   H         1 RES1   0.0000
    64 H12I    29.1722   5.9463   5.3146   H         1 RES1   0.0000
    65 C15I    29.7118   3.9928   5.8702   C.3       1 RES1   0.0000
    66 H13I    30.6456   4.1800   5.9958   H         1 RES1   0.0000
    67 H14I    29.4167   3.3718   6.5407   H         1 RES1   0.0000
    68 H15I    29.5774   3.6118   4.9993   H         1 RES1   0.0000
    69 N1I     21.0588   9.9678   4.1788   N.2       1 RES1   0.0000
    70 N2I     21.6578   8.7609   3.9293   N.pl3     1 RES1   0.0000
    71 N3I     23.1131   9.4798   5.4891   N.ar      1 RES1   0.0000
    72 N4I     24.3337  10.5230   7.0382   N.pl3     1 RES1   0.0000
    73 N5I     23.3719  11.5015   6.9004   N.2       1 RES1   0.0000
    74 O1I     26.6351   6.0796   5.8656   O.3       1 RES1   0.0000
    75 O2I     24.9886   4.9969   4.8462   O.2       1 RES1   0.0000
    76 O3      16.9382  11.1945  13.0201   O.2       2 RES2   0.0000
    77 O4      15.2072  11.1416  11.4496   O.2       2 RES2   0.0000
    78 O5      15.7666   9.5097  12.7875   O.3       2 RES2  -1.0000
    79 O6      17.4800   9.9832  11.3211   O.2       2 RES2   0.0000
    80 Cl1     16.4321  10.7628  11.9747   Cl        2 RES2   0.0000
@<TRIPOS>BOND
     1     1    32    1
     2     2     3    1
     3     4     2    1
     4     5     4    1
     5     6     4    2
     6     7     6    1
     7     8     9   ar
     8     9    10    1
     9    11     9   ar
    10    12    11    1
    11    13    11   ar
    12    14    13    1
    13    15    13   ar
    14    16    17    1
    15    18    16    2
    16    19    18    1
    17    20    18    1
    18    21    20    1
    19    22    23    1
    20    24    22    1
    21    25    22    1
    22    26    25    1
    23    27    25    1
    24    28    25    1
    25    29    28    1
    26    30    28    1
    27    31    28    1
    28    32     2    2
    29    33     6    1
    30    34     1    1
    31    35    15    1
    32    36     1    1
    33    37    12    1
    34    38    12    2
    35    39    40    1
    36    41    39    1
    37    42    41    1
    38    43    41    2
    39    44    43    1
    40    45    46   ar
    41    46    47    1
    42    48    46   ar
    43    49    48    1
    44    50    48   ar
    45    51    50    1
    46    52    50   ar
    47    53    54    1
    48    55    53    2
    49    56    55    1
    50    57    55    1
    51    58    57    1
    52    59    60    1
    53    61    59    1
    54    62    59    1
    55    63    62    1
    56    64    62    1
    57    65    62    1
    58    66    65    1
    59    67    65    1
    60    68    65    1
    61    69     1    1
    62    70    43    1
    63    71     1    1
    64    72    52    1
    65    73     1    1
    66    74    49    1
    67    75    49    2
    68     8    33    1
    69     8    34   ar
    70    15    34   ar
    71    16    35    1
    72    20    36    2
    73    22    37    1
    74    32    33    1
    75    35    36    1
    76    39    69    2
    77    45    70    1
    78    45    71   ar
    79    52    71   ar
    80    53    72    1
    81    57    73    2
    82    59    74    1
    83    69    70    1
    84    72    73    1
    85    76    80    2
    86    77    80    2
    87    78    80    1
    88    79    80    2
@<TRIPOS>SUBSTRUCTURE
     1 RES1        1 GROUP             0 ****  ****    0  
     2 RES2       76 GROUP             0 ****  ****    0  
@<TRIPOS>CRYSIN
   22.0234   22.0234   15.3070   90.0000   90.0000   90.0000   110     1
