@<TRIPOS>MOLECULE
NEWWAR07
    80    88     2     0     0
SMALL
USER_CHARGES
****
Generated from the CSD

@<TRIPOS>ATOM
     1 Fe1     22.0055  11.0028   5.6404   Fe        1 RES1   2.0000
     2 C1      24.0344  12.0480   3.5119   C.2       1 RES1   0.0000
     3 H1      24.6550  11.3570   3.4839   H         1 RES1   0.0000
     4 C2      24.1114  13.2033   2.7775   C.2       1 RES1   0.0000
     5 H2      24.7892  13.4322   2.1831   H         1 RES1   0.0000
     6 C3      23.0200  13.9493   3.0731   C.2       1 RES1   0.0000
     7 H3      22.7845  14.7679   2.6997   H         1 RES1   0.0000
     8 C4      21.2023  13.5466   4.7412   C.ar      1 RES1   0.0000
     9 C5      20.4387  14.6887   4.6525   C.ar      1 RES1   0.0000
    10 H4      20.6566  15.3730   4.0628   H         1 RES1   0.0000
    11 C6      19.3406  14.7679   5.4725   C.ar      1 RES1   0.0000
    12 C7      18.5902  16.0530   5.4134   C.2       1 RES1   0.0000
    13 C8      18.9951  13.7402   6.3283   C.ar      1 RES1   0.0000
    14 H5      18.2426  13.7886   6.8714   H         1 RES1   0.0000
    15 C9      19.8226  12.6466   6.3408   C.ar      1 RES1   0.0000
    16 C10     18.7685  11.1436   8.0493   C.2       1 RES1   0.0000
    17 H6      18.0247  11.6365   8.3138   H         1 RES1   0.0000
    18 C11     19.1184   9.9333   8.4974   C.2       1 RES1   0.0000
    19 H7      18.6497   9.4118   9.1105   H         1 RES1   0.0000
    20 C12     20.2979   9.6032   7.8812   C.2       1 RES1   0.0000
    21 H8      20.7864   8.8330   8.0524   H         1 RES1   0.0000
    22 C13     16.5877  17.1819   5.8709   C.3       1 RES1   0.0000
    23 H9      16.6868  17.5846   4.9933   H         1 RES1   0.0000
    24 H10     16.8628  17.8245   6.5415   H         1 RES1   0.0000
    25 C14     15.1288  16.7462   6.1058   C.3       1 RES1   0.0000
    26 H11     14.8361  16.1234   5.4212   H         1 RES1   0.0000
    27 H12     15.0232  16.3347   6.9772   H         1 RES1   0.0000
    28 C15     14.3608  18.0599   6.0202   C.3       1 RES1   0.0000
    29 H13     13.4256  17.8905   6.1556   H         1 RES1   0.0000
    30 H14     14.6799  18.6607   6.6971   H         1 RES1   0.0000
    31 H15     14.4928  18.4516   5.1551   H         1 RES1   0.0000
    32 N1      22.9649  12.0656   4.2557   N.2       1 RES1   0.0000
    33 N2      22.3532  13.2671   4.0130   N.pl3     1 RES1   0.0000
    34 N3      20.8971  12.5535   5.5830   N.ar      1 RES1   0.0000
    35 N4      19.6839  11.5166   7.1515   N.pl3     1 RES1   0.0000
    36 N5      20.6412  10.5358   7.0114   N.2       1 RES1   0.0000
    37 O1      17.3887  15.9562   5.9689   O.3       1 RES1   0.0000
    38 O2      19.0348  17.0276   4.9186   O.2       1 RES1   0.0000
    39 C1I     19.9766   9.9575   3.5119   C.2       1 RES1   0.0000
    40 H1I     19.3560  10.6485   3.4839   H         1 RES1   0.0000
    41 C2I     19.8996   8.8022   2.7775   C.2       1 RES1   0.0000
    42 H2I     19.2218   8.5733   2.1831   H         1 RES1   0.0000
    43 C3I     20.9910   8.0562   3.0731   C.2       1 RES1   0.0000
    44 H3I     21.2265   7.2376   2.6997   H         1 RES1   0.0000
    45 C4I     22.8087   8.4589   4.7412   C.ar      1 RES1   0.0000
    46 C5I     23.5723   7.3168   4.6525   C.ar      1 RES1   0.0000
    47 H4I     23.3544   6.6325   4.0628   H         1 RES1   0.0000
    48 C6I     24.6704   7.2376   5.4725   C.ar      1 RES1   0.0000
    49 C7I     25.4208   5.9525   5.4134   C.2       1 RES1   0.0000
    50 C8I     25.0159   8.2653   6.3283   C.ar      1 RES1   0.0000
    51 H5I     25.7684   8.2169   6.8714   H         1 RES1   0.0000
    52 C9I     24.1884   9.3589   6.3408   C.ar      1 RES1   0.0000
    53 C10I    25.2425  10.8619   8.0493   C.2       1 RES1   0.0000
    54 H6I     25.9863  10.3690   8.3138   H         1 RES1   0.0000
    55 C11I    24.8926  12.0722   8.4974   C.2       1 RES1   0.0000
    56 H7I     25.3613  12.5937   9.1105   H         1 RES1   0.0000
    57 C12I    23.7131  12.4023   7.8812   C.2       1 RES1   0.0000
    58 H8I     23.2246  13.1725   8.0524   H         1 RES1   0.0000
    59 C13I    27.4233   4.8236   5.8709   C.3       1 RES1   0.0000
    60 H9I     27.3242   4.4209   4.9933   H         1 RES1   0.0000
    61 H10I    27.1482   4.1810   6.5415   H         1 RES1   0.0000
    62 C14I    28.8822   5.2593   6.1058   C.3       1 RES1   0.0000
    63 H11I    29.1749   5.8821   5.4212   H         1 RES1   0.0000
    64 H12I    28.9878   5.6708   6.9772   H         1 RES1   0.0000
    65 C15I    29.6502   3.9456   6.0202   C.3       1 RES1   0.0000
    66 H13I    30.5854   4.1150   6.1556   H         1 RES1   0.0000
    67 H14I    29.3311   3.3448   6.6971   H         1 RES1   0.0000
    68 H15I    29.5182   3.5539   5.1551   H         1 RES1   0.0000
    69 N1I     21.0461   9.9399   4.2557   N.2       1 RES1   0.0000
    70 N2I     21.6578   8.7384   4.0130   N.pl3     1 RES1   0.0000
    71 N3I     23.1139   9.4520   5.5830   N.ar      1 RES1   0.0000
    72 N4I     24.3271  10.4889   7.1515   N.pl3     1 RES1   0.0000
    73 N5I     23.3698  11.4697   7.0114   N.2       1 RES1   0.0000
    74 O1I     26.6223   6.0493   5.9689   O.3       1 RES1   0.0000
    75 O2I     24.9762   4.9779   4.9186   O.2       1 RES1   0.0000
    76 O3      16.9046  11.2602  13.1966   O.2       2 RES2   0.0000
    77 O4      15.1508  11.0820  11.6499   O.2       2 RES2   0.0000
    78 O5      15.8352   9.7726  13.0068   O.2       2 RES2   0.0000
    79 O6      17.4350   9.9245  11.5145   O.3       2 RES2  -1.0000
    80 Cl1     16.4106  10.7915  12.1494   Cl        2 RES2   0.0000
@<TRIPOS>BOND
     1     1    32    1
     2     2     3    1
     3     4     2    1
     4     5     4    1
     5     6     4    2
     6     7     6    1
     7     8     9   ar
     8     9    10    1
     9    11     9   ar
    10    12    11    1
    11    13    11   ar
    12    14    13    1
    13    15    13   ar
    14    16    17    1
    15    18    16    2
    16    19    18    1
    17    20    18    1
    18    21    20    1
    19    22    23    1
    20    24    22    1
    21    25    22    1
    22    26    25    1
    23    27    25    1
    24    28    25    1
    25    29    28    1
    26    30    28    1
    27    31    28    1
    28    32     2    2
    29    33     6    1
    30    34     1    1
    31    35    15    1
    32    36     1    1
    33    37    12    1
    34    38    12    2
    35    39    40    1
    36    41    39    1
    37    42    41    1
    38    43    41    2
    39    44    43    1
    40    45    46   ar
    41    46    47    1
    42    48    46   ar
    43    49    48    1
    44    50    48   ar
    45    51    50    1
    46    52    50   ar
    47    53    54    1
    48    55    53    2
    49    56    55    1
    50    57    55    1
    51    58    57    1
    52    59    60    1
    53    61    59    1
    54    62    59    1
    55    63    62    1
    56    64    62    1
    57    65    62    1
    58    66    65    1
    59    67    65    1
    60    68    65    1
    61    69     1    1
    62    70    43    1
    63    71     1    1
    64    72    52    1
    65    73     1    1
    66    74    49    1
    67    75    49    2
    68     8    33    1
    69     8    34   ar
    70    15    34   ar
    71    16    35    1
    72    20    36    2
    73    22    37    1
    74    32    33    1
    75    35    36    1
    76    39    69    2
    77    45    70    1
    78    45    71   ar
    79    52    71   ar
    80    53    72    1
    81    57    73    2
    82    59    74    1
    83    69    70    1
    84    72    73    1
    85    76    80    2
    86    77    80    2
    87    78    80    2
    88    79    80    1
@<TRIPOS>SUBSTRUCTURE
     1 RES1        1 GROUP             0 ****  ****    0  
     2 RES2       76 GROUP             0 ****  ****    0  
@<TRIPOS>CRYSIN
   22.0055   22.0055   15.5602   90.0000   90.0000   90.0000   110     1
