@<TRIPOS>MOLECULE
NEXBID
    89    94     1     0     0
SMALL
NO_CHARGES
****
Generated from the CSD

@<TRIPOS>ATOM
     1 Fe1      3.4246   6.3472   3.3639   Fe        1 RES1   0.0000
     2 O1       2.7351   6.0538   1.6395   O.3       1 RES1   0.0000
     3 C1       2.3715   5.0127   0.8969   C.ar      1 RES1   0.0000
     4 C2       2.2369   5.1426  -0.4972   C.ar      1 RES1   0.0000
     5 C3       1.8652   4.0021  -1.2009   C.ar      1 RES1   0.0000
     6 H1       1.7816   4.0664  -2.1244   H         1 RES1   0.0000
     7 C4       1.6111   2.7766  -0.6085   C.ar      1 RES1   0.0000
     8 C5       1.7156   2.6947   0.7455   C.ar      1 RES1   0.0000
     9 H2       1.5374   1.8846   1.1667   H         1 RES1   0.0000
    10 C6       2.0817   3.7928   1.5150   C.ar      1 RES1   0.0000
    11 C7       1.9929   3.6877   3.0023   C.3       1 RES1   0.0000
    12 H3       1.2187   4.1933   3.2948   H         1 RES1   0.0000
    13 H4       1.8336   2.7578   3.2301   H         1 RES1   0.0000
    14 N1       3.1692   4.1575   3.7717   N.3       1 RES1   0.0000
    15 C8       4.4118   3.4574   3.3919   C.3       1 RES1   0.0000
    16 H5       4.3860   3.2342   2.4480   H         1 RES1   0.0000
    17 H6       4.4895   2.6322   3.8957   H         1 RES1   0.0000
    18 C9       5.6069   4.3410   3.6735   C.3       1 RES1   0.0000
    19 H7       5.6485   4.5478   4.6205   H         1 RES1   0.0000
    20 H8       6.4240   3.8786   3.4280   H         1 RES1   0.0000
    21 N2       5.4804   5.5954   2.8888   N.3       1 RES1   0.0000
    22 C10      6.4660   6.5906   3.3828   C.3       1 RES1   0.0000
    23 H9       7.3604   6.2334   3.2708   H         1 RES1   0.0000
    24 H10      6.3224   6.7359   4.3302   H         1 RES1   0.0000
    25 C11      6.3684   7.9166   2.6597   C.ar      1 RES1   0.0000
    26 C12      7.4891   8.4471   2.0340   C.ar      1 RES1   0.0000
    27 H11      8.2735   7.9488   2.0154   H         1 RES1   0.0000
    28 C13      7.4715   9.6867   1.4437   C.ar      1 RES1   0.0000
    29 C14      6.3126  10.4301   1.5650   C.ar      1 RES1   0.0000
    30 H12      6.3131  11.2975   1.2296   H         1 RES1   0.0000
    31 C15      5.1479   9.9584   2.1579   C.ar      1 RES1   0.0000
    32 C16      5.1705   8.6444   2.6601   C.ar      1 RES1   0.0000
    33 O2       4.0604   8.0934   3.1416   O.3       1 RES1   0.0000
    34 C17      2.3988   6.4925  -1.2014   C.3       1 RES1   0.0000
    35 C18      3.7783   7.0979  -0.9485   C.3       1 RES1   0.0000
    36 H13      4.4447   6.5767  -1.4015   H         1 RES1   0.0000
    37 H14      3.9599   7.0992  -0.0055   H         1 RES1   0.0000
    38 H15      3.7979   7.9998  -1.2795   H         1 RES1   0.0000
    39 C19      1.3349   7.4648  -0.6704   C.3       1 RES1   0.0000
    40 H16      1.4485   8.3220  -1.0872   H         1 RES1   0.0000
    41 H17      1.4300   7.5544   0.2810   H         1 RES1   0.0000
    42 H18      0.4605   7.1240  -0.8727   H         1 RES1   0.0000
    43 C20      2.1981   6.3839  -2.7095   C.3       1 RES1   0.0000
    44 H19      2.8661   5.8030  -3.0804   H         1 RES1   0.0000
    45 H20      2.2746   7.2547  -3.1062   H         1 RES1   0.0000
    46 H21      1.3255   6.0256  -2.8899   H         1 RES1   0.0000
    47 C21      1.2186   1.5661  -1.4250   C.3       1 RES1   0.0000
    48 H22      1.9838   0.9964  -1.5420   H         1 RES1   0.0000
    49 H23      0.8967   1.8497  -2.2835   H         1 RES1   0.0000
    50 H24      0.5262   1.0822  -0.9670   H         1 RES1   0.0000
    51 C22      2.8752   3.9022   5.1898   C.3       1 RES1   0.0000
    52 H25      2.6650   2.9730   5.3102   H         1 RES1   0.0000
    53 H26      2.1264   4.4371   5.4636   H         1 RES1   0.0000
    54 H27      3.6417   4.1286   5.7207   H         1 RES1   0.0000
    55 C23      5.7505   5.3397   1.4718   C.3       1 RES1   0.0000
    56 H28      5.7854   6.1737   0.9966   H         1 RES1   0.0000
    57 H29      5.0519   4.7929   1.1057   H         1 RES1   0.0000
    58 H30      6.5915   4.8850   1.3830   H         1 RES1   0.0000
    59 C24      8.6721  10.2264   0.7248   C.3       1 RES1   0.0000
    60 H31      9.0228  10.9778   1.2074   H         1 RES1   0.0000
    61 H32      8.4186  10.5038  -0.1590   H         1 RES1   0.0000
    62 H33      9.3432   9.5435   0.6656   H         1 RES1   0.0000
    63 C25      3.8875  10.8149   2.2729   C.3       1 RES1   0.0000
    64 C26      3.4190  10.8907   3.7218   C.3       1 RES1   0.0000
    65 H34      2.6306  11.4368   3.7756   H         1 RES1   0.0000
    66 H35      4.1117  11.2763   4.2618   H         1 RES1   0.0000
    67 H36      3.2189  10.0075   4.0400   H         1 RES1   0.0000
    68 C27      4.1422  12.2379   1.7916   C.3       1 RES1   0.0000
    69 H37      4.7892  12.6583   2.3630   H         1 RES1   0.0000
    70 H38      3.3223  12.7355   1.8157   H         1 RES1   0.0000
    71 H39      4.4773  12.2167   0.8912   H         1 RES1   0.0000
    72 C28      2.7900  10.2264   1.4170   C.3       1 RES1   0.0000
    73 H40      1.9952  10.7588   1.5050   H         1 RES1   0.0000
    74 H41      2.6068   9.3283   1.7029   H         1 RES1   0.0000
    75 H42      3.0689  10.2190   0.4992   H         1 RES1   0.0000
    76 O3       1.6455   6.7843   4.1714   O.2       1 RES1   0.0000
    77 O4       4.1225   6.4840   5.3135   O.2       1 RES1   0.0000
    78 C29      0.0334   7.9948   5.3581   C.3       1 RES1   0.0000
    79 H43     -0.0432   8.4849   6.1792   H         1 RES1   0.0000
    80 H44     -0.5793   7.2559   5.3694   H         1 RES1   0.0000
    81 H45     -0.1755   8.5732   4.6205   H         1 RES1   0.0000
    82 C30      1.4319   7.4834   5.2107   C.2       1 RES1   0.0000
    83 C31      2.3763   7.7808   6.1601   C.2       1 RES1   0.0000
    84 H46      2.1264   8.3493   6.8522   H         1 RES1   0.0000
    85 C32      3.6704   7.2993   6.1622   C.2       1 RES1   0.0000
    86 C33      4.6228   7.7373   7.2248   C.3       1 RES1   0.0000
    87 H47      4.2904   8.5347   7.6436   H         1 RES1   0.0000
    88 H48      5.4809   7.9164   6.8319   H         1 RES1   0.0000
    89 H49      4.7097   7.0432   7.8821   H         1 RES1   0.0000
@<TRIPOS>BOND
     1     1     2    1
     2     2     3    1
     3     3     4   ar
     4     4     5   ar
     5     5     6    1
     6     7     5   ar
     7     8     7   ar
     8     9     8    1
     9    10     3   ar
    10    11    10    1
    11    12    11    1
    12    13    11    1
    13    14     1    1
    14    15    14    1
    15    16    15    1
    16    17    15    1
    17    18    15    1
    18    19    18    1
    19    20    18    1
    20    21     1    1
    21    22    21    1
    22    23    22    1
    23    24    22    1
    24    25    22    1
    25    26    25   ar
    26    27    26    1
    27    28    26   ar
    28    29    28   ar
    29    30    29    1
    30    31    29   ar
    31    32    25   ar
    32    33     1    1
    33    34     4    1
    34    35    34    1
    35    36    35    1
    36    37    35    1
    37    38    35    1
    38    39    34    1
    39    40    39    1
    40    41    39    1
    41    42    39    1
    42    43    34    1
    43    44    43    1
    44    45    43    1
    45    46    43    1
    46    47     7    1
    47    48    47    1
    48    49    47    1
    49    50    47    1
    50    51    14    1
    51    52    51    1
    52    53    51    1
    53    54    51    1
    54    55    21    1
    55    56    55    1
    56    57    55    1
    57    58    55    1
    58    59    28    1
    59    60    59    1
    60    61    59    1
    61    62    59    1
    62    63    31    1
    63    64    63    1
    64    65    64    1
    65    66    64    1
    66    67    64    1
    67    68    63    1
    68    69    68    1
    69    70    68    1
    70    71    68    1
    71    72    63    1
    72    73    72    1
    73    74    72    1
    74    75    72    1
    75    76     1    1
    76    77     1    1
    77    78    79    1
    78    80    78    1
    79    81    78    1
    80    82    76   un
    81    83    82   un
    82    84    83    1
    83    85    77   un
    84    86    85    1
    85    87    86    1
    86    88    86    1
    87    89    86    1
    88     8    10   ar
    89    11    14    1
    90    18    21    1
    91    31    32   ar
    92    32    33    1
    93    78    82    1
    94    83    85   un
@<TRIPOS>SUBSTRUCTURE
     1 RES1        1 GROUP             0 ****  ****    0  
@<TRIPOS>CRYSIN
   13.9901   12.4394   18.6196   90.0000   96.7770   90.0000    14     1
