@<TRIPOS>MOLECULE
NEXKEK
    80    88     2     0     0
SMALL
USER_CHARGES
****
Generated from the CSD

@<TRIPOS>ATOM
     1 Fe1     11.0145  11.0145   7.4266   Fe        1 RES1   2.0000
     2 C1      12.6601   9.4967   5.2630   C.2       1 RES1   0.0000
     3 H1      12.1535   8.7235   5.1546   H         1 RES1   0.0000
     4 C2      13.8717   9.7699   4.5869   C.2       1 RES1   0.0000
     5 H2      14.3057   9.2214   3.9733   H         1 RES1   0.0000
     6 C3      14.2837  11.0256   5.0268   C.2       1 RES1   0.0000
     7 H3      15.0415  11.4926   4.7548   H         1 RES1   0.0000
     8 C4      13.2285  12.6006   6.7088   C.ar      1 RES1   0.0000
     9 C5      14.0766  13.6933   6.7043   C.ar      1 RES1   0.0000
    10 H4      14.8432  13.7241   6.1768   H         1 RES1   0.0000
    11 C6      13.7065  14.7441   7.5424   C.ar      1 RES1   0.0000
    12 C7      14.4863  16.0240   7.5587   C.2       1 RES1   0.0000
    13 C8      12.6095  14.6912   8.3849   C.ar      1 RES1   0.0000
    14 H5      12.4046  15.3895   8.9644   H         1 RES1   0.0000
    15 C9      11.8428  13.5523   8.3195   C.ar      1 RES1   0.0000
    16 C10      9.9902  14.0039   9.9555   C.2       1 RES1   0.0000
    17 H6      10.2193  14.8410  10.2913   H         1 RES1   0.0000
    18 C11      8.8865  13.2769  10.2824   C.2       1 RES1   0.0000
    19 H7       8.2147  13.5171  10.8782   H         1 RES1   0.0000
    20 C12      8.9725  12.0874   9.5335   C.2       1 RES1   0.0000
    21 H8       8.3468  11.3979   9.5632   H         1 RES1   0.0000
    22 C13     16.5372  17.0990   7.1679   C.3       1 RES1   0.0000
    23 H9      16.4073  17.5286   8.0283   H         1 RES1   0.0000
    24 H10     16.2905  17.7290   6.4725   H         1 RES1   0.0000
    25 C14     17.9779  16.6892   7.0075   C.3       1 RES1   0.0000
    26 H11     18.1167  16.3280   6.1174   H         1 RES1   0.0000
    27 H12     18.1960  15.9997   7.6538   H         1 RES1   0.0000
    28 C15     18.8767  17.9030   7.2185   C.3       1 RES1   0.0000
    29 H13     19.7953  17.6431   7.1159   H         1 RES1   0.0000
    30 H14     18.6609  18.5793   6.5706   H         1 RES1   0.0000
    31 H15     18.7402  18.2533   8.1026   H         1 RES1   0.0000
    32 N1      12.3451  10.5035   6.0758   N.2       1 RES1   0.0000
    33 N2      13.3518  11.4309   5.9361   N.pl3     1 RES1   0.0000
    34 N3      12.1424  12.5368   7.4785   N.ar      1 RES1   0.0000
    35 N4      10.6907  13.2769   9.0431   N.pl3     1 RES1   0.0000
    36 N5      10.0563  12.0786   8.7861   N.2       1 RES1   0.0000
    37 O1      15.7067  15.9028   7.0773   O.3       1 RES1   0.0000
    38 O2      13.9995  17.0549   7.9837   O.2       1 RES1   0.0000
    39 C1I      9.3690  12.5324   5.2630   C.2       1 RES1   0.0000
    40 H1I      9.8756  13.3056   5.1546   H         1 RES1   0.0000
    41 C2I      8.1574  12.2592   4.5869   C.2       1 RES1   0.0000
    42 H2I      7.7234  12.8077   3.9733   H         1 RES1   0.0000
    43 C3I      7.7454  11.0035   5.0268   C.2       1 RES1   0.0000
    44 H3I      6.9876  10.5365   4.7548   H         1 RES1   0.0000
    45 C4I      8.8006   9.4285   6.7088   C.ar      1 RES1   0.0000
    46 C5I      7.9525   8.3358   6.7043   C.ar      1 RES1   0.0000
    47 H4I      7.1859   8.3050   6.1768   H         1 RES1   0.0000
    48 C6I      8.3226   7.2850   7.5424   C.ar      1 RES1   0.0000
    49 C7I      7.5428   6.0051   7.5587   C.2       1 RES1   0.0000
    50 C8I      9.4196   7.3379   8.3849   C.ar      1 RES1   0.0000
    51 H5I      9.6245   6.6396   8.9644   H         1 RES1   0.0000
    52 C9I     10.1863   8.4768   8.3195   C.ar      1 RES1   0.0000
    53 C10I    12.0389   8.0252   9.9555   C.2       1 RES1   0.0000
    54 H6I     11.8098   7.1881  10.2913   H         1 RES1   0.0000
    55 C11I    13.1426   8.7522  10.2824   C.2       1 RES1   0.0000
    56 H7I     13.8144   8.5120  10.8782   H         1 RES1   0.0000
    57 C12I    13.0566   9.9417   9.5335   C.2       1 RES1   0.0000
    58 H8I     13.6823  10.6312   9.5632   H         1 RES1   0.0000
    59 C13I     5.4919   4.9301   7.1679   C.3       1 RES1   0.0000
    60 H9I      5.6218   4.5005   8.0283   H         1 RES1   0.0000
    61 H10I     5.7386   4.3001   6.4725   H         1 RES1   0.0000
    62 C14I     4.0512   5.3399   7.0075   C.3       1 RES1   0.0000
    63 H11I     3.9124   5.7011   6.1174   H         1 RES1   0.0000
    64 H12I     3.8331   6.0294   7.6538   H         1 RES1   0.0000
    65 C15I     3.1524   4.1261   7.2185   C.3       1 RES1   0.0000
    66 H13I     2.2338   4.3860   7.1159   H         1 RES1   0.0000
    67 H14I     3.3682   3.4498   6.5706   H         1 RES1   0.0000
    68 H15I     3.2889   3.7758   8.1026   H         1 RES1   0.0000
    69 N1I      9.6840  11.5256   6.0758   N.2       1 RES1   0.0000
    70 N2I      8.6773  10.5982   5.9361   N.pl3     1 RES1   0.0000
    71 N3I      9.8867   9.4923   7.4785   N.ar      1 RES1   0.0000
    72 N4I     11.3384   8.7522   9.0431   N.pl3     1 RES1   0.0000
    73 N5I     11.9728   9.9505   8.7861   N.2       1 RES1   0.0000
    74 O1I      6.3224   6.1263   7.0773   O.3       1 RES1   0.0000
    75 O2I      8.0296   4.9742   7.9837   O.2       1 RES1   0.0000
    76 Cl1     16.6225  11.7173   8.4693   Cl        2 RES2   0.0000
    77 O3      17.3391  12.8452   7.9153   O.3       2 RES2  -1.0000
    78 O4      15.5283  12.1821   9.2838   O.2       2 RES2   0.0000
    79 O5      16.1055  10.9573   7.3834   O.2       2 RES2   0.0000
    80 O6      17.5462  10.9286   9.2541   O.2       2 RES2   0.0000
@<TRIPOS>BOND
     1     1    32    1
     2     2     3    1
     3     4     2    1
     4     5     4    1
     5     6     4    2
     6     7     6    1
     7     8     9   ar
     8     9    10    1
     9    11     9   ar
    10    12    11    1
    11    13    11   ar
    12    14    13    1
    13    15    13   ar
    14    16    17    1
    15    18    16    2
    16    19    18    1
    17    20    18    1
    18    21    20    1
    19    22    23    1
    20    24    22    1
    21    25    22    1
    22    26    25    1
    23    27    25    1
    24    28    25    1
    25    29    28    1
    26    30    28    1
    27    31    28    1
    28    32     2    2
    29    33     6    1
    30    34     1    1
    31    35    15    1
    32    36     1    1
    33    37    12    1
    34    38    12    2
    35    39    40    1
    36    41    39    1
    37    42    41    1
    38    43    41    2
    39    44    43    1
    40    45    46   ar
    41    46    47    1
    42    48    46   ar
    43    49    48    1
    44    50    48   ar
    45    51    50    1
    46    52    50   ar
    47    53    54    1
    48    55    53    2
    49    56    55    1
    50    57    55    1
    51    58    57    1
    52    59    60    1
    53    61    59    1
    54    62    59    1
    55    63    62    1
    56    64    62    1
    57    65    62    1
    58    66    65    1
    59    67    65    1
    60    68    65    1
    61    69     1    1
    62    70    43    1
    63    71     1    1
    64    72    52    1
    65    73     1    1
    66    74    49    1
    67    75    49    2
    68     8    33    1
    69     8    34   ar
    70    15    34   ar
    71    16    35    1
    72    20    36    2
    73    22    37    1
    74    32    33    1
    75    35    36    1
    76    39    69    2
    77    45    70    1
    78    45    71   ar
    79    52    71   ar
    80    53    72    1
    81    57    73    2
    82    59    74    1
    83    69    70    1
    84    72    73    1
    85    76    77    1
    86    78    76    2
    87    79    76    2
    88    80    76    2
@<TRIPOS>SUBSTRUCTURE
     1 RES1        1 GROUP             0 ****  ****    0  
     2 RES2       76 GROUP             0 ****  ****    0  
@<TRIPOS>CRYSIN
   22.0291   22.0291   14.8589   90.0000   90.0000   90.0000   110     1
