@<TRIPOS>MOLECULE
NEXLOS
    87    89     3     0     0
SMALL
USER_CHARGES
****
Generated from the CSD

@<TRIPOS>ATOM
     1 C1       5.6954   5.8497  17.7523   C.ar      1 RES1   0.0000
     2 C2       5.0474   5.7584  16.5472   C.ar      1 RES1   0.0000
     3 H1       5.5173   5.9410  15.7418   H         1 RES1   0.0000
     4 C3       3.7110   5.3994  16.5029   C.ar      1 RES1   0.0000
     5 H2       3.2498   5.3678  15.6722   H         1 RES1   0.0000
     6 C4       3.0641   5.0916  17.6591   C.ar      1 RES1   0.0000
     7 H3       2.1636   4.7910  17.6387   H         1 RES1   0.0000
     8 C5       3.7285   5.2218  18.8651   C.ar      1 RES1   0.0000
     9 C6       7.1870   6.2233  17.8068   C.3       1 RES1   0.0000
    10 C7       7.9880   5.0392  18.3907   C.3       1 RES1   0.0000
    11 H4       8.9026   5.3544  18.5999   H         1 RES1   0.0000
    12 H5       8.0678   4.3419  17.6921   H         1 RES1   0.0000
    13 C8       7.4165   7.5169  18.6248   C.3       1 RES1   0.0000
    14 H6       6.7390   8.1849  18.3492   H         1 RES1   0.0000
    15 H7       8.3060   7.8819  18.3887   H         1 RES1   0.0000
    16 C9       7.7389   6.4825  16.3947   C.3       1 RES1   0.0000
    17 H8       7.2886   7.2601  16.0042   H         1 RES1   0.0000
    18 H9       7.5782   5.6964  15.8324   H         1 RES1   0.0000
    19 H10      8.7027   6.6541  16.4476   H         1 RES1   0.0000
    20 C10      3.0236   4.9224  20.1822   C.3       1 RES1   0.0000
    21 C11      3.9110   4.0134  21.0569   C.3       1 RES1   0.0000
    22 H11      3.9842   3.1287  20.6408   H         1 RES1   0.0000
    23 H12      3.5099   3.9233  21.9457   H         1 RES1   0.0000
    24 H13      4.8037   4.4101  21.1400   H         1 RES1   0.0000
    25 C12      2.7111   6.2281  20.9104   C.3       1 RES1   0.0000
    26 H14      2.3461   6.0225  21.8063   H         1 RES1   0.0000
    27 H15      2.0194   6.7246  20.4063   H         1 RES1   0.0000
    28 C13      1.6927   4.1764  19.9909   C.3       1 RES1   0.0000
    29 H16      1.0862   4.7253  19.4520   H         1 RES1   0.0000
    30 H17      1.2862   4.0036  20.8660   H         1 RES1   0.0000
    31 H18      1.8577   3.3258  19.5333   H         1 RES1   0.0000
    32 C14      6.4450   2.8001  19.2076   C.3       1 RES1   0.0000
    33 H19      7.0788   2.2890  18.6626   H         1 RES1   0.0000
    34 H20      5.6932   3.0885  18.6487   H         1 RES1   0.0000
    35 H21      6.1118   2.2355  19.9373   H         1 RES1   0.0000
    36 C15      8.7125   3.4183  20.6524   C.3       1 RES1   0.0000
    37 H22      8.3967   2.7028  21.2445   H         1 RES1   0.0000
    38 H23      9.2370   4.0633  21.1725   H         1 RES1   0.0000
    39 H24      9.2731   3.0362  19.9466   H         1 RES1   0.0000
    40 C16      9.0512   7.0702  20.9489   C.3       1 RES1   0.0000
    41 H25      9.3321   6.1624  20.7105   H         1 RES1   0.0000
    42 H26      9.1234   7.1895  21.9201   H         1 RES1   0.0000
    43 H27      9.6293   7.7201  20.4969   H         1 RES1   0.0000
    44 C17      7.1324   9.0368  21.0420   C.3       1 RES1   0.0000
    45 H28      7.9104   9.5710  20.7778   H         1 RES1   0.0000
    46 H29      7.0570   9.0283  22.0200   H         1 RES1   0.0000
    47 H30      6.3216   9.4274  20.6547   H         1 RES1   0.0000
    48 C18      3.9459   8.5147  19.7694   C.3       1 RES1   0.0000
    49 H31      2.9854   8.6364  19.6122   H         1 RES1   0.0000
    50 H32      4.3732   8.2008  18.9459   H         1 RES1   0.0000
    51 H33      4.3437   9.3678  20.0395   H         1 RES1   0.0000
    52 C19      3.8509   8.2701  22.5718   C.3       1 RES1   0.0000
    53 H34      4.5863   8.9005  22.7211   H         1 RES1   0.0000
    54 H35      3.7667   7.6775  23.3480   H         1 RES1   0.0000
    55 H36      3.0149   8.7654  22.4472   H         1 RES1   0.0000
    56 C20      5.1348   4.8859  23.9942   C.3       1 RES1   0.0000
    57 H37      5.3709   5.0039  24.9385   H         1 RES1   0.0000
    58 H38      5.0999   3.9294  23.7822   H         1 RES1   0.0000
    59 H39      4.2584   5.2887  23.8240   H         1 RES1   0.0000
    60 C21      7.8241   4.7520  23.5105   C.3       1 RES1   0.0000
    61 H40      8.6185   5.0538  23.0230   H         1 RES1   0.0000
    62 H41      7.6798   3.7980  23.3387   H         1 RES1   0.0000
    63 H42      7.9563   4.8956  24.4718   H         1 RES1   0.0000
    64 P1       7.2822   4.2628  19.9041   P.3       1 RES1   0.0000
    65 P2       7.3326   7.3274  20.4337   P.3       1 RES1   0.0000
    66 P3       4.1947   7.2815  21.0922   P.3       1 RES1   0.0000
    67 P4       6.3823   5.6892  22.9538   P.3       1 RES1   0.0000
    68 Fe1      5.8592   5.7865  20.8145   Fe        1 RES1   2.0000
    69 N1       5.0398   5.6221  18.9208   N.ar      1 RES1   0.0000
    70 O1       6.5904   7.1323  23.5988   O.3       1 RES1   0.0000
    71 C22      6.9608   7.2163  25.0290   C.3       1 RES1   0.0000
    72 H43      7.8241   7.6970  25.0963   H         1 RES1   0.0000
    73 H44      7.1094   6.2963  25.3633   H         1 RES1   0.0000
    74 C23      5.9489   7.9123  25.9717   C.3       1 RES1   0.0000
    75 H45      6.4079   8.1995  26.7889   H         1 RES1   0.0000
    76 H46      5.2332   7.2856  26.2015   H         1 RES1   0.0000
    77 H47      5.5665   8.6936  25.5189   H         1 RES1   0.0000
    78 B1       0.4076   7.7554  17.4437   B         2 RES2  -1.0000
    79 F1       0.1104   6.7234  18.2496   F         2 RES2   0.0000
    80 F2       1.7080   8.1265  17.5361   F         2 RES2   0.0000
    81 F3       0.2426   7.2662  16.0943   F         2 RES2   0.0000
    82 F4      -0.4753   8.7691  17.6350   F         2 RES2   0.0000
    83 B2       6.0276   0.4150  22.2962   B         3 RES3  -1.0000
    84 F5       5.9795   1.6282  22.8395   F         3 RES3   0.0000
    85 F6       7.2810   0.1911  21.7868   F         3 RES3   0.0000
    86 F7       5.7959  -0.5318  23.2591   F         3 RES3   0.0000
    87 F8       5.1031   0.2884  21.3137   F         3 RES3   0.0000
@<TRIPOS>BOND
     1     1     2   ar
     2     2     3    1
     3     4     2   ar
     4     5     4    1
     5     6     4   ar
     6     7     6    1
     7     8     6   ar
     8     9     1    1
     9    10     9    1
    10    11    10    1
    11    12    10    1
    12    13     9    1
    13    14    13    1
    14    15    13    1
    15    16     9    1
    16    17    16    1
    17    18    16    1
    18    19    16    1
    19    20     8    1
    20    21    20    1
    21    22    21    1
    22    23    21    1
    23    24    21    1
    24    25    20    1
    25    26    25    1
    26    27    25    1
    27    28    20    1
    28    29    28    1
    29    30    28    1
    30    31    28    1
    31    32    33    1
    32    34    32    1
    33    35    32    1
    34    36    37    1
    35    38    36    1
    36    39    36    1
    37    40    41    1
    38    42    40    1
    39    43    40    1
    40    44    45    1
    41    46    44    1
    42    47    44    1
    43    48    49    1
    44    50    48    1
    45    51    48    1
    46    52    53    1
    47    54    52    1
    48    55    52    1
    49    56    57    1
    50    58    56    1
    51    59    56    1
    52    60    61    1
    53    62    60    1
    54    63    60    1
    55    64    10    1
    56    65    13    1
    57    66    25    1
    58    67    56    1
    59    68    24    1
    60    69     1   ar
    61    70    67    1
    62    71    70    1
    63    72    71    1
    64    73    71    1
    65    74    71    1
    66    75    74    1
    67    76    74    1
    68    77    74    1
    69     8    69   ar
    70    32    64    1
    71    36    64    1
    72    40    65    1
    73    44    65    1
    74    48    66    1
    75    52    66    1
    76    60    67    1
    77    64    68    1
    78    65    68    1
    79    66    68    1
    80    67    68    1
    81    68    69    1
    82    78    79    1
    83    80    78    1
    84    81    78    1
    85    82    78    1
    86    83    84    1
    87    85    83    1
    88    86    83    1
    89    87    83    1
@<TRIPOS>SUBSTRUCTURE
     1 RES1        1 GROUP             0 ****  ****    0  
     2 RES2       78 GROUP             0 ****  ****    0  
     3 RES3       83 GROUP             0 ****  ****    0  
@<TRIPOS>CRYSIN
   10.9275   12.1691   23.2180   90.0000   90.0000   90.0000    19     1
