@<TRIPOS>MOLECULE
NEXMEK
    92    98     6     0     0
SMALL
USER_CHARGES
****
Generated from the CSD

@<TRIPOS>ATOM
     1 Fe1      9.2080   8.8754  10.2423   Fe        1 RES1   2.0000
     2 N1       8.0287   8.5294   8.7060   N.ar      1 RES1   0.0000
     3 N2       9.9847  10.0897   8.9692   N.2       1 RES1   0.0000
     4 N3      11.0453  10.9345   9.0311   N.2       1 RES1   0.0000
     5 N4       9.9382  11.2069   7.1007   N.pl3     1 RES1   0.0000
     6 N5       6.3504   8.3784   6.4750   N.ar      1 RES1   0.0000
     7 C1       7.0398   7.6303   8.6264   C.ar      1 RES1   0.0000
     8 H1       6.8978   7.0317   9.3488   H         1 RES1   0.0000
     9 C2       6.2211   7.5559   7.5167   C.ar      1 RES1   0.0000
    10 H2       5.5398   6.8944   7.4948   H         1 RES1   0.0000
    11 C3       7.3309   9.2866   6.5449   C.ar      1 RES1   0.0000
    12 H3       7.4425   9.8995   5.8282   H         1 RES1   0.0000
    13 C4       8.1872   9.3584   7.6316   C.ar      1 RES1   0.0000
    14 C5       9.3239  10.2315   7.8332   C.2       1 RES1   0.0000
    15 C6      11.0138  11.6231   7.8935   C.2       1 RES1   0.0000
    16 C7      11.8582  12.6588   7.4257   C.2       1 RES1   0.0000
    17 H4      12.5974  12.9552   7.9428   H         1 RES1   0.0000
    18 C8      11.5813  13.2174   6.2142   C.2       1 RES1   0.0000
    19 H5      12.1391  13.9089   5.8804   H         1 RES1   0.0000
    20 C9      10.4722  12.7809   5.4459   C.2       1 RES1   0.0000
    21 H6      10.2969  13.1945   4.6082   H         1 RES1   0.0000
    22 C10      9.6567  11.7875   5.8766   C.2       1 RES1   0.0000
    23 H7       8.9154  11.5011   5.3563   H         1 RES1   0.0000
    24 N6       8.4288   7.4978  11.4139   N.ar      1 RES1   0.0000
    25 N7      10.3889   7.4017   9.8271   N.2       1 RES1   0.0000
    26 N8      11.4178   7.2362   8.9494   N.2       1 RES1   0.0000
    27 N9      10.9893   5.3092  10.0082   N.pl3     1 RES1   0.0000
    28 N10      7.5874   5.4225  13.0970   N.ar      1 RES1   0.0000
    29 C11      7.3894   7.6480  12.2527   C.ar      1 RES1   0.0000
    30 H8       6.9270   8.4783  12.2834   H         1 RES1   0.0000
    31 C12      6.9854   6.6111  13.0695   C.ar      1 RES1   0.0000
    32 H9       6.2389   6.7511  13.6401   H         1 RES1   0.0000
    33 C13      8.6149   5.2632  12.2572   C.ar      1 RES1   0.0000
    34 H10      9.0682   4.4285  12.2383   H         1 RES1   0.0000
    35 C14      9.0394   6.2769  11.4126   C.ar      1 RES1   0.0000
    36 C15     10.1276   6.2669  10.4587   C.2       1 RES1   0.0000
    37 C16     11.7738   5.9577   9.0617   C.2       1 RES1   0.0000
    38 C17     12.7490   5.2254   8.3613   C.2       1 RES1   0.0000
    39 H11     13.3210   5.6520   7.7329   H         1 RES1   0.0000
    40 C18     12.8547   3.8979   8.6050   C.2       1 RES1   0.0000
    41 H12     13.5012   3.3873   8.1330   H         1 RES1   0.0000
    42 C19     12.0142   3.2558   9.5531   C.2       1 RES1   0.0000
    43 H13     12.1002   2.3204   9.6968   H         1 RES1   0.0000
    44 C20     11.0942   3.9523  10.2519   C.2       1 RES1   0.0000
    45 H14     10.5365   3.5238  10.8901   H         1 RES1   0.0000
    46 N11     10.3250   9.6277  11.6858   N.ar      1 RES1   0.0000
    47 N12      8.0194  10.2659  10.8575   N.2       1 RES1   0.0000
    48 N13      6.7592  10.6467  10.5024   N.2       1 RES1   0.0000
    49 N14      7.5593  11.9941  12.1101   N.pl3     1 RES1   0.0000
    50 N15     11.8456  11.1248  13.4997   N.ar      1 RES1   0.0000
    51 C21     11.5539   9.2546  12.0530   C.ar      1 RES1   0.0000
    52 H15     11.9242   8.4582  11.6917   H         1 RES1   0.0000
    53 C22     12.3014   9.9975  12.9437   C.ar      1 RES1   0.0000
    54 H16     13.1733   9.6965  13.1709   H         1 RES1   0.0000
    55 C23     10.6104  11.4775  13.1737   C.ar      1 RES1   0.0000
    56 H17     10.2393  12.2580  13.5696   H         1 RES1   0.0000
    57 C24      9.8382  10.7523  12.2776   C.ar      1 RES1   0.0000
    58 C25      8.5053  11.0512  11.8075   C.2       1 RES1   0.0000
    59 C26      6.4806  11.6999  11.2788   C.2       1 RES1   0.0000
    60 C27      5.3196  12.4950  11.3419   C.2       1 RES1   0.0000
    61 H18      4.5705  12.3088  10.7886   H         1 RES1   0.0000
    62 C28      5.3009  13.5367  12.2172   C.2       1 RES1   0.0000
    63 H19      4.5322  14.0927  12.2679   H         1 RES1   0.0000
    64 C29      6.4110  13.7985  13.0526   C.2       1 RES1   0.0000
    65 H20      6.3723  14.5307  13.6584   H         1 RES1   0.0000
    66 C30      7.5194  13.0429  13.0129   C.2       1 RES1   0.0000
    67 H21      8.2548  13.2227  13.5879   H         1 RES1   0.0000
    68 B1      11.4460  14.2669  11.1113   B         2 RES2  -1.0000
    69 F1      12.5678  13.5752  10.7533   F         2 RES2   0.0000
    70 F2      10.3052  13.4851  10.9435   F         2 RES2   0.0000
    71 F3      11.3069  15.4116  10.3170   F         2 RES2   0.0000
    72 F4      11.5328  14.6642  12.4336   F         2 RES2   0.0000
    73 B2      12.0372   4.7735  13.7006   B         3 RES3  -1.0000
    74 F5      10.9235   4.0308  13.9148   F         3 RES3   0.0000
    75 F6      13.0420   4.0616  13.1182   F         3 RES3   0.0000
    76 F7      12.4979   5.2586  14.9295   F         3 RES3   0.0000
    77 F8      11.7032   5.8498  12.8965   F         3 RES3   0.0000
    78 O1      13.9529   6.9451  11.6226   O.3       4 RES4   0.0000
    79 H22     14.2128   7.5133  11.0436   H         4 RES4   0.0000
    80 H23     13.1596   6.6580  11.5029   H         4 RES4   0.0000
    81 N16      5.5737   4.9374   9.2587   N.1       5 RES5   0.0000
    82 C31      5.3867   4.3450  10.2068   C.1       5 RES5   0.0000
    83 C32      5.1373   3.5379  11.3972   C.3       5 RES5   0.0000
    84 H24      4.2838   3.8037  11.7987   H         5 RES5   0.0000
    85 H25      5.8598   3.6771  12.0439   H         5 RES5   0.0000
    86 H26      5.1007   2.5909  11.1465   H         5 RES5   0.0000
    87 N17      4.4049  11.1182   7.8034   N.1       6 RES6   0.0000
    88 C33      4.0874  10.3588   8.5909   C.1       6 RES6   0.0000
    89 C34      3.6847   9.3920   9.5912   C.3       6 RES6   0.0000
    90 H27      4.4775   9.0600  10.0631   H         6 RES6   0.0000
    91 H28      3.2263   8.6425   9.1558   H         6 RES6   0.0000
    92 H29      3.0775   9.8176  10.2322   H         6 RES6   0.0000
@<TRIPOS>BOND
     1     1     2    1
     2     2     7   ar
     3     3     1    1
     4     4     3    1
     5     5    14    1
     6     6     9   ar
     7     7     8    1
     8     9     7   ar
     9    10     9    1
    10    11     6   ar
    11    12    11    1
    12    13     2   ar
    13    14     3    2
    14    15     4    2
    15    16    15    1
    16    17    16    1
    17    18    16    2
    18    19    18    1
    19    20    18    1
    20    21    20    1
    21    22     5    1
    22    23    22    1
    23    24     1    1
    24    25     1    1
    25    26    25    1
    26    27    36    1
    27    28    31   ar
    28    29    24   ar
    29    30    29    1
    30    31    29   ar
    31    32    31    1
    32    33    28   ar
    33    34    33    1
    34    35    24   ar
    35    36    25    2
    36    37    26    2
    37    38    37    1
    38    39    38    1
    39    40    38    2
    40    41    40    1
    41    42    40    1
    42    43    42    1
    43    44    27    1
    44    45    44    1
    45    46     1    1
    46    47     1    1
    47    48    47    1
    48    49    58    1
    49    50    53   ar
    50    51    46   ar
    51    52    51    1
    52    53    51   ar
    53    54    53    1
    54    55    50   ar
    55    56    55    1
    56    57    46   ar
    57    58    47    2
    58    59    48    2
    59    60    59    1
    60    61    60    1
    61    62    60    2
    62    63    62    1
    63    64    62    1
    64    65    64    1
    65    66    49    1
    66    67    66    1
    67     5    15    1
    68    11    13   ar
    69    13    14    1
    70    20    22    2
    71    27    37    1
    72    33    35   ar
    73    35    36    1
    74    42    44    2
    75    49    59    1
    76    55    57   ar
    77    57    58    1
    78    64    66    2
    79    68    69    1
    80    70    68    1
    81    71    68    1
    82    72    68    1
    83    73    74    1
    84    75    73    1
    85    76    73    1
    86    77    73    1
    87    78    79    1
    88    80    78    1
    89    81    82    3
    90    82    83    1
    91    83    84    1
    92    85    83    1
    93    86    83    1
    94    87    88    3
    95    88    89    1
    96    89    90    1
    97    91    89    1
    98    92    89    1
@<TRIPOS>SUBSTRUCTURE
     1 RES1        1 GROUP             0 ****  ****    0  
     2 RES2       68 GROUP             0 ****  ****    0  
     3 RES3       73 GROUP             0 ****  ****    0  
     4 RES4       78 GROUP             0 ****  ****    0  
     5 RES5       81 GROUP             0 ****  ****    0  
     6 RES6       87 GROUP             0 ****  ****    0  
@<TRIPOS>CRYSIN
   10.4966   13.1250   14.2344   85.1350   82.4120   76.2250     2     1
