@<TRIPOS>MOLECULE
NEXVAQ
    76    80     4     0     0
SMALL
USER_CHARGES
****
Generated from the CSD

@<TRIPOS>ATOM
     1 Fe1      5.3976   3.7391   2.7926   Fe        1 RES1   0.0000
     2 O1       4.2273   4.7944   3.9214   O.3       1 RES1  -1.0000
     3 O2       6.7177   3.1115   1.3688   O.co2     1 RES1   0.0000
     4 O3       7.9818   3.6640  -0.3639   O.co2     1 RES1   0.0000
     5 O4       6.6954   3.5988   4.1909   O.3       1 RES1   0.0000
     6 O5       3.8617   3.3725   1.4608   O.co2     1 RES1   0.0000
     7 O6       2.2669   1.9771   0.7984   O.co2     1 RES1   0.0000
     8 N1       5.8249   5.5174   1.7731   N.2       1 RES1   0.0000
     9 N2       9.5537   7.2189  -0.0944   N.pl3     1 RES1   0.0000
    10 H1       8.9611   7.8593  -0.2103   H         1 RES1   0.0000
    11 N3      11.3144   6.0260  -0.3236   N.pl3     1 RES1   1.0000
    12 H2      12.0950   5.7357  -0.6057   H         1 RES1   0.0000
    13 N4       4.9426   1.7268   3.1520   N.2       1 RES1   0.0000
    14 N5       2.5115  -1.2821   4.4100   N.pl3     1 RES1   0.0000
    15 H3       2.0301  -1.5551   3.7262   H         1 RES1   0.0000
    16 N6       3.6315  -1.2995   6.2322   N.pl3     1 RES1   1.0000
    17 H4       4.0263  -1.5844   6.9651   H         1 RES1   0.0000
    18 C1       3.4702   5.8582   3.5562   C.ar      1 RES1   0.0000
    19 C2       2.3189   6.1285   4.2790   C.ar      1 RES1   0.0000
    20 H5       2.0771   5.5666   5.0056   H         1 RES1   0.0000
    21 C3       1.5099   7.2216   3.9504   C.ar      1 RES1   0.0000
    22 H6       0.7215   7.3960   4.4503   H         1 RES1   0.0000
    23 C4       1.8600   8.0497   2.8938   C.ar      1 RES1   0.0000
    24 H7       1.3087   8.7886   2.6634   H         1 RES1   0.0000
    25 C5       3.0041   7.8007   2.1836   C.ar      1 RES1   0.0000
    26 H8       3.2463   8.3826   1.4734   H         1 RES1   0.0000
    27 C6       3.8294   6.6970   2.4846   C.ar      1 RES1   0.0000
    28 C7       5.0202   6.5212   1.6937   C.2       1 RES1   0.0000
    29 H9       5.2300   7.2003   1.0641   H         1 RES1   0.0000
    30 C8       6.9984   5.4415   0.9092   C.3       1 RES1   0.0000
    31 H10      6.8373   5.9594   0.0693   H         1 RES1   0.0000
    32 C9       7.2586   3.9716   0.5717   C.2       1 RES1   0.0000
    33 C10      8.2202   6.0206   1.6585   C.3       1 RES1   0.0000
    34 H11      7.9798   6.9047   2.0312   H         1 RES1   0.0000
    35 H12      8.4464   5.4242   2.4153   H         1 RES1   0.0000
    36 C11      9.4207   6.1711   0.7858   C.2       1 RES1   0.0000
    37 C12     10.7100   7.1244  -0.7455   C.2       1 RES1   0.0000
    38 H13     11.0415   7.7342  -1.3953   H         1 RES1   0.0000
    39 C13     10.5324   5.4095   0.6284   C.2       1 RES1   0.0000
    40 H14     10.7332   4.6014   1.0868   H         1 RES1   0.0000
    41 C14      7.4370   2.5563   4.5359   C.ar      1 RES1   0.0000
    42 C15      8.6404   2.7600   5.2147   C.ar      1 RES1   0.0000
    43 H15      8.9313   3.6467   5.3960   H         1 RES1   0.0000
    44 C16      9.4113   1.6975   5.6214   C.ar      1 RES1   0.0000
    45 H16     10.2219   1.8626   6.0874   H         1 RES1   0.0000
    46 C17      9.0221   0.3808   5.3633   C.ar      1 RES1   0.0000
    47 H17      9.5651  -0.3488   5.6391   H         1 RES1   0.0000
    48 C18      7.8513   0.1638   4.7072   C.ar      1 RES1   0.0000
    49 H18      7.5740  -0.7309   4.5447   H         1 RES1   0.0000
    50 C19      7.0369   1.2209   4.2639   C.ar      1 RES1   0.0000
    51 C20      5.8047   0.8641   3.6192   C.2       1 RES1   0.0000
    52 H19      5.6031  -0.0599   3.5260   H         1 RES1   0.0000
    53 C21      3.6916   1.2369   2.5765   C.3       1 RES1   0.0000
    54 H20      3.8397   0.3462   2.1471   H         1 RES1   0.0000
    55 C22      3.2276   2.2594   1.5174   C.2       1 RES1   0.0000
    56 C23      2.6147   1.1210   3.6670   C.3       1 RES1   0.0000
    57 H21      2.5531   1.9785   4.1581   H         1 RES1   0.0000
    58 H22      1.7368   0.9493   3.2427   H         1 RES1   0.0000
    59 C24      2.9183   0.0226   4.6291   C.2       1 RES1   0.0000
    60 C25      2.9566  -2.0544   5.3872   C.2       1 RES1   0.0000
    61 H23      2.8155  -2.9903   5.4665   H         1 RES1   0.0000
    62 C26      3.6226  -0.0093   5.7940   C.2       1 RES1   0.0000
    63 H24      4.0323   0.7323   6.2221   H         1 RES1   0.0000
    64 P1       6.4575   9.5369   4.0459   P.3       2 RES2  -1.0000
    65 F1       6.1820   9.0855   2.5488   F         2 RES2   0.0000
    66 F2       5.0483   8.8925   4.4944   F         2 RES2   0.0000
    67 F3       5.6711  10.9016   3.7539   F         2 RES2   0.0000
    68 F4       7.8104  10.1786   3.6267   F         2 RES2   0.0000
    69 F5       7.1315   8.1536   4.3382   F         2 RES2   0.0000
    70 F6       6.6690  10.0109   5.5232   F         2 RES2   0.0000
    71 O7      10.1738  11.5833   2.5261   O.3       3 RES3   0.0000
    72 H25     10.1338  12.5153   2.3926   H         3 RES3   0.0000
    73 H26     10.3973  11.1705   1.7000   H         3 RES3   0.0000
    74 O8       5.3118  11.4967   0.9117   O.3       4 RES4   0.0000
    75 H27      5.4690  10.9575   1.6748   H         4 RES4   0.0000
    76 H28      5.6469  10.9708   0.1889   H         4 RES4   0.0000
@<TRIPOS>BOND
     1     1     2    1
     2     2    18    1
     3     3     1    1
     4     4    32    2
     5     5     1    1
     6     6     1    1
     7     7    55    2
     8     8     1    1
     9     9    10    1
    10    11    12    1
    11    13     1    1
    12    14    15    1
    13    16    17    1
    14    18    19   ar
    15    19    20    1
    16    21    19   ar
    17    22    21    1
    18    23    21   ar
    19    24    23    1
    20    25    23   ar
    21    26    25    1
    22    27    18   ar
    23    28     8    2
    24    29    28    1
    25    30     8    1
    26    31    30    1
    27    32     3    1
    28    33    30    1
    29    34    33    1
    30    35    33    1
    31    36     9    1
    32    37     9    1
    33    38    37    1
    34    39    11    1
    35    40    39    1
    36    41     5    1
    37    42    41   ar
    38    43    42    1
    39    44    42   ar
    40    45    44    1
    41    46    44   ar
    42    47    46    1
    43    48    46   ar
    44    49    48    1
    45    50    41   ar
    46    51    13    2
    47    52    51    1
    48    53    13    1
    49    54    53    1
    50    55     6    1
    51    56    53    1
    52    57    56    1
    53    58    56    1
    54    59    14    1
    55    60    14    1
    56    61    60    1
    57    62    16    1
    58    63    62    1
    59    11    37    2
    60    16    60    2
    61    25    27   ar
    62    27    28    1
    63    30    32    1
    64    33    36    1
    65    36    39    2
    66    48    50   ar
    67    50    51    1
    68    53    55    1
    69    56    59    1
    70    59    62    2
    71    64    65    1
    72    66    64    1
    73    67    64    1
    74    68    64    1
    75    69    64    1
    76    70    64    1
    77    71    72    1
    78    73    71    1
    79    74    75    1
    80    76    74    1
@<TRIPOS>SUBSTRUCTURE
     1 RES1        1 GROUP             0 ****  ****    0  
     2 RES2       64 GROUP             0 ****  ****    0  
     3 RES3       71 GROUP             0 ****  ****    0  
     4 RES4       74 GROUP             0 ****  ****    0  
@<TRIPOS>CRYSIN
    9.5341   13.3141   12.6011   90.0000   92.0770   90.0000     4     1
