@<TRIPOS>MOLECULE
NEZBAZ
    92    96     3     0     0
SMALL
USER_CHARGES
****
Generated from the CSD

@<TRIPOS>ATOM
     1 Sb1      1.4423   2.3381   8.1755   Sb        1 RES1   0.0000
     2 F1       3.2935   2.2473   8.3916   F         1 RES1  -1.0000
     3 F2       1.5689   1.1515   6.7605   F         1 RES1   0.0000
     4 F3       1.2253   0.9285   9.3652   F         1 RES1   0.0000
     5 F4       1.7109   3.7524   7.0074   F         1 RES1   0.0000
     6 F5       1.3570   3.5199   9.6125   F         1 RES1   0.0000
     7 F6      -0.3882   2.4321   7.9346   F         1 RES1   0.0000
     8 Sb2      4.0002  11.4666   8.9151   Sb        2 RES2   0.0000
     9 F7       4.2932  12.4454  10.4450   F         2 RES2  -1.0000
    10 F8       3.2523  12.9535   8.0958   F         2 RES2   0.0000
    11 F9       3.7527  10.4960   7.3672   F         2 RES2   0.0000
    12 F10      4.6826   9.9799   9.7383   F         2 RES2   0.0000
    13 F11      5.6663  11.9820   8.3320   F         2 RES2   0.0000
    14 F12      2.3281  11.0120   9.4646   F         2 RES2   0.0000
    15 Se1      3.0540   7.9589   5.4522   Se        3 RES3   0.0000
    16 Fe1      6.7183   5.2271   7.3606   Fe        3 RES3   2.0000
    17 N1       6.3957   3.8798   8.9656   N.2       3 RES3   0.0000
    18 N2       5.0639   6.2450   8.6852   N.3       3 RES3   0.0000
    19 N3       7.7344   6.8471   8.2658   N.2       3 RES3   0.0000
    20 N4       8.4352   4.3226   6.4863   N.1       3 RES3   0.0000
    21 N5       6.5217   6.4871   5.5591   N.1       3 RES3   0.0000
    22 N6       5.0753   3.1137  10.5905   N.pl3     3 RES3   0.0000
    23 N7       7.8203   8.4844   9.7715   N.pl3     3 RES3   0.0000
    24 N8       5.4384   3.8703   6.1949   N.1       3 RES3   0.0000
    25 C1       6.9465   2.7012   9.4624   C.ar      3 RES3   0.0000
    26 C2       8.0906   2.0275   9.1113   C.ar      3 RES3   0.0000
    27 H1       8.6592   2.3524   8.4229   H         3 RES3   0.0000
    28 C3       8.3917   0.8553   9.7935   C.ar      3 RES3   0.0000
    29 H2       9.1753   0.3692   9.5688   H         3 RES3   0.0000
    30 C4       7.5592   0.3854  10.8047   C.ar      3 RES3   0.0000
    31 H3       7.7807  -0.4271  11.2423   H         3 RES3   0.0000
    32 C5       6.4175   1.0655  11.1888   C.ar      3 RES3   0.0000
    33 H4       5.8623   0.7551  11.8943   H         3 RES3   0.0000
    34 C6       6.1335   2.2155  10.4934   C.ar      3 RES3   0.0000
    35 C7       5.2528   4.0519   9.6412   C.2       3 RES3   0.0000
    36 C8       4.3127   5.1508   9.3056   C.3       3 RES3   0.0000
    37 H5       3.6185   4.8221   8.6818   H         3 RES3   0.0000
    38 H6       3.8651   5.4744  10.1273   H         3 RES3   0.0000
    39 C9       5.7911   6.9713   9.7670   C.3       3 RES3   0.0000
    40 H7       5.9338   6.3660  10.5373   H         3 RES3   0.0000
    41 H8       5.2466   7.7392  10.0759   H         3 RES3   0.0000
    42 C10      7.1183   7.4650   9.2593   C.2       3 RES3   0.0000
    43 C11      8.9964   8.5481   9.0716   C.ar      3 RES3   0.0000
    44 C12     10.1072   9.3938   9.1886   C.ar      3 RES3   0.0000
    45 H9      10.1335  10.0928   9.8316   H         3 RES3   0.0000
    46 C13     11.1527   9.1708   8.3364   C.ar      3 RES3   0.0000
    47 H10     11.9297   9.7128   8.4035   H         3 RES3   0.0000
    48 C14     11.1081   8.1642   7.3694   C.ar      3 RES3   0.0000
    49 H11     11.8509   8.0439   6.7892   H         3 RES3   0.0000
    50 C15      9.9995   7.3344   7.2326   C.ar      3 RES3   0.0000
    51 H12      9.9611   6.6647   6.5604   H         3 RES3   0.0000
    52 C16      8.9540   7.5271   8.1223   C.ar      3 RES3   0.0000
    53 C17      3.9829   2.9831  11.5443   C.3       3 RES3   0.0000
    54 H13      4.3254   3.1103  12.4533   H         3 RES3   0.0000
    55 H14      3.5860   2.0903  11.4664   H         3 RES3   0.0000
    56 H15      3.3006   3.6610  11.3544   H         3 RES3   0.0000
    57 C18      7.4653   9.3715  10.8820   C.3       3 RES3   0.0000
    58 H16      6.5955   9.1078  11.2464   H         3 RES3   0.0000
    59 H17      7.4174  10.2957  10.5576   H         3 RES3   0.0000
    60 H18      8.1474   9.3070  11.5826   H         3 RES3   0.0000
    61 C19      4.2073   7.2213   7.9589   C.3       3 RES3   0.0000
    62 H19      4.7738   7.9558   7.6131   H         3 RES3   0.0000
    63 H20      3.5552   7.6136   8.5921   H         3 RES3   0.0000
    64 C20      3.4584   6.5922   6.8065   C.3       3 RES3   0.0000
    65 H21      2.6163   6.1882   7.1358   H         3 RES3   0.0000
    66 H22      4.0081   5.8740   6.4032   H         3 RES3   0.0000
    67 C21      2.2228   6.7642   4.1969   C.ar      3 RES3   0.0000
    68 C22      0.8600   6.9442   3.9209   C.ar      3 RES3   0.0000
    69 H23      0.3584   7.6026   4.3888   H         3 RES3   0.0000
    70 C23      0.2531   6.1542   2.9628   C.ar      3 RES3   0.0000
    71 H24     -0.6708   6.2706   2.7771   H         3 RES3   0.0000
    72 C24      0.9700   5.2034   2.2784   C.ar      3 RES3   0.0000
    73 H25      0.5445   4.6662   1.6188   H         3 RES3   0.0000
    74 C25      2.3338   5.0314   2.5588   C.ar      3 RES3   0.0000
    75 H26      2.8390   4.3778   2.0892   H         3 RES3   0.0000
    76 C26      2.9328   5.8134   3.5147   C.ar      3 RES3   0.0000
    77 H27      3.8556   5.6914   3.7059   H         3 RES3   0.0000
    78 C27      9.3067   3.9451   5.8682   C.1       3 RES3   0.0000
    79 C28     10.4267   3.4880   5.0734   C.3       3 RES3   0.0000
    80 H28     10.3070   3.7751   4.1446   H         3 RES3   0.0000
    81 H29     10.4747   2.5096   5.1097   H         3 RES3   0.0000
    82 H30     11.2563   3.8689   5.4296   H         3 RES3   0.0000
    83 C29      6.4335   6.9808   4.5546   C.1       3 RES3   0.0000
    84 C30      6.3178   7.6291   3.2454   C.3       3 RES3   0.0000
    85 H31      5.9504   6.9916   2.5970   H         3 RES3   0.0000
    86 H32      7.2041   7.9228   2.9467   H         3 RES3   0.0000
    87 H33      5.7228   8.4039   3.3145   H         3 RES3   0.0000
    88 C31      4.8383   3.1392   5.5613   C.1       3 RES3   0.0000
    89 C32      4.0447   2.2266   4.7334   C.3       3 RES3   0.0000
    90 H34      3.3465   2.7332   4.2676   H         3 RES3   0.0000
    91 H35      3.6300   1.5455   5.3020   H         3 RES3   0.0000
    92 H36      4.6275   1.7935   4.0754   H         3 RES3   0.0000
@<TRIPOS>BOND
     1     1     2    1
     2     3     1    1
     3     4     1    1
     4     5     1    1
     5     6     1    1
     6     7     1    1
     7     8     9    1
     8    10     8    1
     9    11     8    1
    10    12     8    1
    11    13     8    1
    12    14     8    1
    13    15    64    1
    14    16    17    1
    15    17    25    1
    16    18    16    1
    17    19    16    1
    18    20    16    1
    19    21    16    1
    20    22    34    1
    21    23    42    1
    22    24    16    1
    23    25    26   ar
    24    26    27    1
    25    28    26   ar
    26    29    28    1
    27    30    28   ar
    28    31    30    1
    29    32    30   ar
    30    33    32    1
    31    34    25   ar
    32    35    17    2
    33    36    18    1
    34    37    36    1
    35    38    36    1
    36    39    18    1
    37    40    39    1
    38    41    39    1
    39    42    19    2
    40    43    23    1
    41    44    43   ar
    42    45    44    1
    43    46    44   ar
    44    47    46    1
    45    48    46   ar
    46    49    48    1
    47    50    48   ar
    48    51    50    1
    49    52    19    1
    50    53    22    1
    51    54    53    1
    52    55    53    1
    53    56    53    1
    54    57    23    1
    55    58    57    1
    56    59    57    1
    57    60    57    1
    58    61    18    1
    59    62    61    1
    60    63    61    1
    61    64    61    1
    62    65    64    1
    63    66    64    1
    64    67    15    1
    65    68    67   ar
    66    69    68    1
    67    70    68   ar
    68    71    70    1
    69    72    70   ar
    70    73    72    1
    71    74    72   ar
    72    75    74    1
    73    76    67   ar
    74    77    76    1
    75    78    20    3
    76    79    78    1
    77    80    79    1
    78    81    79    1
    79    82    79    1
    80    83    21    3
    81    84    83    1
    82    85    84    1
    83    86    84    1
    84    87    84    1
    85    88    24    3
    86    89    88    1
    87    90    89    1
    88    91    89    1
    89    92    89    1
    90    22    35    1
    91    32    34   ar
    92    35    36    1
    93    39    42    1
    94    43    52   ar
    95    50    52   ar
    96    74    76   ar
@<TRIPOS>SUBSTRUCTURE
     1 RES1        1 GROUP             0 ****  ****    0  
     2 RES2        8 GROUP             0 ****  ****    0  
     3 RES3       15 GROUP             0 ****  ****    0  
@<TRIPOS>CRYSIN
   11.4516   15.9271   22.0774   90.0000   90.0000   90.0000    19     1
