@<TRIPOS>MOLECULE
NEZWIC
    84    93     3     0     0
SMALL
USER_CHARGES
****
Generated from the CSD

@<TRIPOS>ATOM
     1 Fe1     13.5475   6.6158   6.8813   Fe        1 RES1   0.0000
     2 I1      14.8393   5.2673  13.3331   I         1 RES1   0.0000
     3 I2      11.8471   9.5745   1.0901   I         1 RES1   0.0000
     4 N1      15.2462   9.5436   9.0529   N.2       1 RES1   0.0000
     5 N2      14.3362   8.3069   7.3905   N.2       1 RES1   0.0000
     6 N3      14.0780   6.1604   8.6622   N.ar      1 RES1   0.0000
     7 N4      12.7539   2.8725   8.1184   N.2       1 RES1   0.0000
     8 N5      12.9347   4.7807   6.9173   N.2       1 RES1  -1.0000
     9 N6      16.0081   5.9234   3.7582   N.2       1 RES1   0.0000
    10 N7      15.0837   6.0487   5.8200   N.2       1 RES1  -1.0000
    11 N8      12.9927   7.2650   5.1743   N.ar      1 RES1   0.0000
    12 N9      11.7767   7.2404   7.3698   N.2       1 RES1   0.0000
    13 N10      9.9030   8.3164   6.7021   N.2       1 RES1   0.0000
    14 C1      14.7769   8.3614   8.6812   C.2       1 RES1   0.0000
    15 C2      15.1035  10.3159   7.9267   C.2       1 RES1   0.0000
    16 H1      15.3502  11.2304   7.8580   H         1 RES1   0.0000
    17 C3      14.5476   9.5640   6.9124   C.2       1 RES1   0.0000
    18 H2      14.3481   9.8699   6.0358   H         1 RES1   0.0000
    19 C4      14.6204   7.1315   9.4419   C.ar      1 RES1   0.0000
    20 C5      13.7404   4.9632   9.1492   C.ar      1 RES1   0.0000
    21 C6      13.9848   4.6581  10.4871   C.ar      1 RES1   0.0000
    22 H3      13.7717   3.8014  10.8396   H         1 RES1   0.0000
    23 C7      14.5439   5.6360  11.2891   C.ar      1 RES1   0.0000
    24 C8      14.8799   6.8863  10.7840   C.ar      1 RES1   0.0000
    25 H4      15.2740   7.5500  11.3382   H         1 RES1   0.0000
    26 C9      13.1395   4.1514   8.1060   C.2       1 RES1   0.0000
    27 C10     12.2802   2.6804   6.8526   C.2       1 RES1   0.0000
    28 H5      11.9313   1.8595   6.5249   H         1 RES1   0.0000
    29 C11     12.3774   3.8341   6.1187   C.2       1 RES1   0.0000
    30 H6      12.1047   3.9499   5.2157   H         1 RES1   0.0000
    31 C12     15.0018   6.3865   4.4962   C.2       1 RES1   0.0000
    32 C13     16.7737   5.2383   4.6674   C.2       1 RES1   0.0000
    33 H7      17.5781   4.7782   4.4577   H         1 RES1   0.0000
    34 C14     16.2186   5.3078   5.9249   C.2       1 RES1   0.0000
    35 H8      16.5629   4.9128   6.7164   H         1 RES1   0.0000
    36 C15     13.8253   7.1574   4.1231   C.ar      1 RES1   0.0000
    37 C16     13.5129   7.7744   2.9233   C.ar      1 RES1   0.0000
    38 H9      14.0802   7.6846   2.1670   H         1 RES1   0.0000
    39 C17     12.3480   8.5303   2.8532   C.ar      1 RES1   0.0000
    40 C18     11.4919   8.6556   3.9499   C.ar      1 RES1   0.0000
    41 H10     10.7021   9.1814   3.9039   H         1 RES1   0.0000
    42 C19     11.8429   7.9800   5.1085   C.ar      1 RES1   0.0000
    43 C20     11.1266   7.9010   6.3846   C.2       1 RES1   0.0000
    44 C21     10.8722   7.2078   8.3967   C.2       1 RES1   0.0000
    45 H11     11.0015   6.7998   9.2456   H         1 RES1   0.0000
    46 C22      9.7549   7.8670   7.9844   C.2       1 RES1   0.0000
    47 H12      8.9782   7.9967   8.5151   H         1 RES1   0.0000
    48 O1       8.2333   2.7758   5.6278   O.3       2 RES2   0.0000
    49 H13      7.8785   2.3170   5.0201   H         2 RES2   0.0000
    50 C23      8.4089   5.0640   6.2362   C.3       2 RES2   0.0000
    51 H14      8.3735   5.9659   5.8544   H         2 RES2   0.0000
    52 H15      9.2237   4.9687   6.7730   H         2 RES2   0.0000
    53 H16      7.6244   4.9206   6.8070   H         2 RES2   0.0000
    54 C24      8.4154   4.0915   5.1745   C.3       2 RES2   0.0000
    55 H17      7.6953   4.3129   4.5328   H         2 RES2   0.0000
    56 H18      9.2781   4.1491   4.6928   H         2 RES2   0.0000
    57 N11     11.6578  12.1328  11.3983   N.pl3     3 RES3   0.0000
    58 N12     12.0870  11.8127   9.1595   N.pl3     3 RES3   1.0000
    59 H19     12.3342  12.1659   8.3927   H         3 RES3   0.0000
    60 N13     12.4156  14.0178  10.0398   N.4       3 RES3   1.0000
    61 H20     11.7342  14.5461  10.3302   H         3 RES3   0.0000
    62 H21     12.5374  14.1842   9.1526   H         3 RES3   0.0000
    63 C25     11.3885  10.7081  11.6292   C.3       3 RES3   0.0000
    64 H22     10.4124  10.5474  11.6004   H         3 RES3   0.0000
    65 H23     11.7163  10.4511  12.5272   H         3 RES3   0.0000
    66 C26     12.0717   9.8582  10.5799   C.3       3 RES3   0.0000
    67 H24     13.0506   9.8721  10.7264   H         3 RES3   0.0000
    68 H25     11.7613   8.9215  10.6574   H         3 RES3   0.0000
    69 C27     11.7567  10.3867   9.1986   C.3       3 RES3   0.0000
    70 H26     12.2864   9.8969   8.5208   H         3 RES3   0.0000
    71 H27     10.7959  10.2556   8.9978   H         3 RES3   0.0000
    72 C28     12.0320  12.5863  10.2171   C.2       3 RES3   0.0000
    73 C29     11.5518  13.0208  12.5817   C.3       3 RES3   0.0000
    74 H28     11.1004  12.5304  13.3124   H         3 RES3   0.0000
    75 H29     10.9881  13.8008  12.3475   H         3 RES3   0.0000
    76 C30     12.8963  13.5166  13.0764   C.3       3 RES3   0.0000
    77 H30     13.5365  12.7628  13.0592   H         3 RES3   0.0000
    78 H31     12.7977  13.8033  14.0199   H         3 RES3   0.0000
    79 C31     13.4874  14.6811  12.2724   C.3       3 RES3   0.0000
    80 H32     12.8834  15.4610  12.3530   H         3 RES3   0.0000
    81 H33     14.3566  14.9336  12.6743   H         3 RES3   0.0000
    82 C32     13.7031  14.3883  10.8025   C.3       3 RES3   0.0000
    83 H34     14.3491  13.6430  10.7192   H         3 RES3   0.0000
    84 H35     14.1080  15.1852  10.3767   H         3 RES3   0.0000
@<TRIPOS>BOND
     1     1     5    1
     2     2    23    1
     3     3    39    1
     4     4    14    2
     5     5    14    1
     6     6     1    1
     7     7    26    2
     8     8     1    1
     9     9    31    2
    10    10     1    1
    11    11     1    1
    12    12     1    1
    13    13    43    2
    14    14    19    1
    15    15     4    1
    16    16    15    1
    17    17     5    1
    18    18    17    1
    19    19     6   ar
    20    20     6   ar
    21    21    20   ar
    22    22    21    1
    23    23    21   ar
    24    24    19   ar
    25    25    24    1
    26    26     8    1
    27    27     7    1
    28    28    27    1
    29    29     8    1
    30    30    29    1
    31    31    10    1
    32    32     9    1
    33    33    32    1
    34    34    10    1
    35    35    34    1
    36    36    11   ar
    37    37    36   ar
    38    38    37    1
    39    39    37   ar
    40    40    39   ar
    41    41    40    1
    42    42    11   ar
    43    43    12    1
    44    44    12    1
    45    45    44    1
    46    46    13    1
    47    47    46    1
    48    15    17    2
    49    20    26    1
    50    23    24   ar
    51    27    29    2
    52    31    36    1
    53    32    34    2
    54    40    42   ar
    55    42    43    1
    56    44    46    2
    57    48    49    1
    58    50    51    1
    59    52    50    1
    60    53    50    1
    61    54    48    1
    62    55    54    1
    63    56    54    1
    64    50    54    1
    65    57    63    1
    66    58    59    1
    67    60    61    1
    68    62    60    1
    69    63    64    1
    70    65    63    1
    71    66    63    1
    72    67    66    1
    73    68    66    1
    74    69    58    1
    75    70    69    1
    76    71    69    1
    77    72    57    1
    78    73    57    1
    79    74    73    1
    80    75    73    1
    81    76    73    1
    82    77    76    1
    83    78    76    1
    84    79    76    1
    85    80    79    1
    86    81    79    1
    87    82    60    1
    88    83    82    1
    89    84    82    1
    90    58    72    2
    91    60    72    1
    92    66    69    1
    93    79    82    1
@<TRIPOS>SUBSTRUCTURE
     1 RES1        1 GROUP             0 ****  ****    0  
     2 RES2       48 GROUP             0 ****  ****    0  
     3 RES3       57 GROUP             0 ****  ****    0  
@<TRIPOS>CRYSIN
   12.3243   13.6201   20.9825   90.0000  100.7315   90.0000   231     1
