@<TRIPOS>MOLECULE
NIBJOX
    82    84     2     0     0
SMALL
USER_CHARGES
****
Generated from the CSD

@<TRIPOS>ATOM
     1 Fe1     -0.4285   6.1755   6.8115   Fe        1 RES1   2.0000
     2 P1       1.7031   6.9178   6.9192   P.3       1 RES1   0.0000
     3 P2      -0.9666   8.2233   7.6494   P.3       1 RES1   0.0000
     4 N1      -0.2218   5.5518   8.5812   N.1       1 RES1   0.0000
     5 C1      -0.0923   5.2751   9.6887   C.1       1 RES1   0.0000
     6 C2       0.0601   5.0590  11.0973   C.ar      1 RES1   0.0000
     7 C3       1.1394   5.6469  11.7513   C.ar      1 RES1   0.0000
     8 C4       1.2613   5.5011  13.1204   C.ar      1 RES1   0.0000
     9 C5       0.3380   4.7786  13.8179   C.ar      1 RES1   0.0000
    10 C6      -0.7053   4.1796  13.1694   C.ar      1 RES1   0.0000
    11 C7      -0.8684   4.3130  11.8085   C.ar      1 RES1   0.0000
    12 C8       2.3647   7.6984   5.4302   C.3       1 RES1   0.0000
    13 C9       3.0608   5.8297   7.4341   C.3       1 RES1   0.0000
    14 C10      1.7289   8.2517   8.1711   C.3       1 RES1   0.0000
    15 C11     -1.9829   9.3831   6.6944   C.3       1 RES1   0.0000
    16 C12     -1.7392   8.2579   9.2937   C.3       1 RES1   0.0000
    17 C13      0.5626   9.1928   7.8864   C.3       1 RES1   0.0000
    18 H1       1.8014   6.1508  11.2527   H         1 RES1   0.0000
    19 H2       2.0070   5.9161  13.5822   H         1 RES1   0.0000
    20 H3       0.4238   4.6934  14.7810   H         1 RES1   0.0000
    21 H4      -1.3338   3.6559  13.6776   H         1 RES1   0.0000
    22 H5      -1.6063   3.8906  11.3616   H         1 RES1   0.0000
    23 H6       1.7063   8.3122   5.0678   H         1 RES1   0.0000
    24 H7       2.5726   7.0154   4.7681   H         1 RES1   0.0000
    25 H8       3.1772   8.1887   5.6536   H         1 RES1   0.0000
    26 H9       2.8053   5.3480   8.2420   H         1 RES1   0.0000
    27 H10      3.8573   6.3608   7.6153   H         1 RES1   0.0000
    28 H11      3.2526   5.1874   6.7298   H         1 RES1   0.0000
    29 H12      2.5709   8.7445   8.1193   H         1 RES1   0.0000
    30 H13      1.6312   7.8676   9.0593   H         1 RES1   0.0000
    31 H14     -2.8302   8.9792   6.4982   H         1 RES1   0.0000
    32 H15     -1.5242   9.5967   5.8579   H         1 RES1   0.0000
    33 H16     -2.1043  10.1896   7.2066   H         1 RES1   0.0000
    34 H17     -1.2496   7.6576   9.8903   H         1 RES1   0.0000
    35 H18     -2.6494   7.9664   9.2228   H         1 RES1   0.0000
    36 H19     -1.6964   9.1644   9.6451   H         1 RES1   0.0000
    37 H20      0.4471   9.7943   8.6370   H         1 RES1   0.0000
    38 H21      0.7540   9.7079   7.0840   H         1 RES1   0.0000
    39 P1B     -2.5602   5.4332   6.7039   P.3       1 RES1   0.0000
    40 C8B     -3.2218   4.6526   8.1929   C.3       1 RES1   0.0000
    41 H6B     -2.5634   4.0388   8.5553   H         1 RES1   0.0000
    42 H7B     -3.4297   5.3356   8.8550   H         1 RES1   0.0000
    43 H8B     -4.0343   4.1623   7.9695   H         1 RES1   0.0000
    44 C9B     -3.9179   6.5213   6.1890   C.3       1 RES1   0.0000
    45 H9B     -3.6624   7.0030   5.3811   H         1 RES1   0.0000
    46 H10B    -4.7143   5.9902   6.0078   H         1 RES1   0.0000
    47 H11B    -4.1097   7.1636   6.8933   H         1 RES1   0.0000
    48 C10B    -2.5860   4.0993   5.4520   C.3       1 RES1   0.0000
    49 C13B    -1.4197   3.1582   5.7367   C.3       1 RES1   0.0000
    50 P2B      0.1095   4.1277   5.9737   P.3       1 RES1   0.0000
    51 N1B     -0.6353   6.7992   5.0419   N.1       1 RES1   0.0000
    52 C1B     -0.7648   7.0759   3.9343   C.1       1 RES1   0.0000
    53 C2B     -0.9172   7.2920   2.5257   C.ar      1 RES1   0.0000
    54 C3B     -1.9965   6.7041   1.8718   C.ar      1 RES1   0.0000
    55 C4B     -2.1184   6.8499   0.5027   C.ar      1 RES1   0.0000
    56 C5B     -1.1951   7.5724  -0.1948   C.ar      1 RES1   0.0000
    57 C6B     -0.1518   8.1714   0.4536   C.ar      1 RES1   0.0000
    58 C7B      0.0113   8.0380   1.8146   C.ar      1 RES1   0.0000
    59 H5B      0.7492   8.4604   2.2614   H         1 RES1   0.0000
    60 H4B      0.4767   8.6951  -0.0545   H         1 RES1   0.0000
    61 H3B     -1.2809   7.6576  -1.1580   H         1 RES1   0.0000
    62 H2B     -2.8641   6.4349   0.0409   H         1 RES1   0.0000
    63 H1B     -2.6585   6.2002   2.3704   H         1 RES1   0.0000
    64 C11B     1.1258   2.9679   6.9287   C.3       1 RES1   0.0000
    65 H14B     1.9731   3.3718   7.1249   H         1 RES1   0.0000
    66 H15B     0.6671   2.7543   7.7651   H         1 RES1   0.0000
    67 H16B     1.2472   2.1614   6.4165   H         1 RES1   0.0000
    68 C12B     0.8821   4.0931   4.3294   C.3       1 RES1   0.0000
    69 H17B     0.3925   4.6934   3.7327   H         1 RES1   0.0000
    70 H18B     1.7923   4.3846   4.4002   H         1 RES1   0.0000
    71 H19B     0.8393   3.1866   3.9779   H         1 RES1   0.0000
    72 H20B    -1.3042   2.5567   4.9860   H         1 RES1   0.0000
    73 H21B    -1.6111   2.6431   6.5391   H         1 RES1   0.0000
    74 H12B    -3.4279   3.6065   5.5037   H         1 RES1   0.0000
    75 H13B    -2.4883   4.4834   4.5637   H         1 RES1   0.0000
    76 P3       5.3307   6.7758  10.7500   P.3       2 RES2  -1.0000
    77 F1       5.7796   7.1735   9.2828   F         2 RES2   0.0000
    78 F2       4.8767   6.3842  12.2117   F         2 RES2   0.0000
    79 F3       4.8832   5.3752  10.1846   F         2 RES2   0.0000
    80 F4       5.8141   8.1541  11.2894   F         2 RES2   0.0000
    81 F5       3.9137   7.3575  10.4448   F         2 RES2   0.0000
    82 F6       6.7683   6.1520  11.0279   F         2 RES2   0.0000
@<TRIPOS>BOND
     1     1     2    1
     2     2    12    1
     3     3     1    1
     4     4     1    1
     5     5     4    3
     6     6     5    1
     7     7     6   ar
     8     8     7   ar
     9     9     8   ar
    10    10     9   ar
    11    11     6   ar
    12    12    23    1
    13    13     2    1
    14    14     2    1
    15    15     3    1
    16    16     3    1
    17    17     3    1
    18    18     7    1
    19    19     8    1
    20    20     9    1
    21    21    10    1
    22    22    11    1
    23    24    12    1
    24    25    12    1
    25    26    13    1
    26    27    13    1
    27    28    13    1
    28    29    14    1
    29    30    14    1
    30    31    15    1
    31    32    15    1
    32    33    15    1
    33    34    16    1
    34    35    16    1
    35    36    16    1
    36    37    17    1
    37    38    17    1
    38    39     1    1
    39    40    39    1
    40    41    40    1
    41    42    40    1
    42    43    40    1
    43    44    39    1
    44    45    44    1
    45    46    44    1
    46    47    44    1
    47    48    39    1
    48    49    48    1
    49    50     1    1
    50    51     1    1
    51    52    51    3
    52    53    52    1
    53    54    53   ar
    54    55    54   ar
    55    56    55   ar
    56    57    56   ar
    57    58    53   ar
    58    59    58    1
    59    60    57    1
    60    61    56    1
    61    62    55    1
    62    63    54    1
    63    64    50    1
    64    65    64    1
    65    66    64    1
    66    67    64    1
    67    68    50    1
    68    69    68    1
    69    70    68    1
    70    71    68    1
    71    72    49    1
    72    73    49    1
    73    74    48    1
    74    75    48    1
    75    10    11   ar
    76    14    17    1
    77    49    50    1
    78    57    58   ar
    79    76    77    1
    80    78    76    1
    81    79    76    1
    82    80    76    1
    83    81    76    1
    84    82    76    1
@<TRIPOS>SUBSTRUCTURE
     1 RES1        1 GROUP             0 ****  ****    0  
     2 RES2       76 GROUP             0 ****  ****    0  
@<TRIPOS>CRYSIN
   11.0060   12.3510   13.6500   90.0000   93.6000   90.0000   231     1
