@<TRIPOS>MOLECULE
NICKIX04
    92    99     5     0     0
SMALL
USER_CHARGES
****
Generated from the CSD

@<TRIPOS>ATOM
     1 Fe1      2.9495   4.9297   7.6054   Fe        1 RES1   2.0000
     2 N1       2.5574   3.7927   9.1793   N.2       1 RES1   0.0000
     3 N2       1.6088   6.3023   7.8182   N.ar      1 RES1   0.0000
     4 N3       3.9362   6.2424   8.6948   N.2       1 RES1   0.0000
     5 N4       4.3287   3.5912   7.4415   N.ar      1 RES1   0.0000
     6 N5       1.6963   3.7764  10.2143   N.pl3     1 RES1   0.0000
     7 H1       1.0474   4.3590  10.3305   H         1 RES1   0.0000
     8 N6       3.8739   5.5506   5.9773   N.2       1 RES1   0.0000
     9 N7       5.1484   6.3602   9.2568   N.pl3     1 RES1   0.0000
    10 H2       5.7919   5.7628   9.1855   H         1 RES1   0.0000
    11 N8       1.4448   4.1455   6.5848   N.2       1 RES1   0.0000
    12 N9       3.7877   6.5769   5.1139   N.pl3     1 RES1   0.0000
    13 H3       3.1520   7.1855   5.1253   H         1 RES1   0.0000
    14 N10      1.1913   3.0292   5.8905   N.pl3     1 RES1   0.0000
    15 H4       1.7737   2.3831   5.7570   H         1 RES1   0.0000
    16 C1       5.2495   3.7030   6.4573   C.ar      1 RES1   0.0000
    17 C2       1.9044   7.4102   8.5201   C.ar      1 RES1   0.0000
    18 C3       0.2967   4.8604   6.5663   C.2       1 RES1   0.0000
    19 C4       4.9744   4.8625   5.6216   C.2       1 RES1   0.0000
    20 C5       4.4152   2.6049   8.3586   C.ar      1 RES1   0.0000
    21 C6       3.2618   7.3599   9.0361   C.2       1 RES1   0.0000
    22 C7       0.3881   6.1338   7.2704   C.ar      1 RES1   0.0000
    23 C8       3.3691   2.7405   9.3671   C.2       1 RES1   0.0000
    24 C9       5.4218   1.6524   8.2926   C.ar      1 RES1   0.0000
    25 H5       5.4752   0.9519   8.9321   H         1 RES1   0.0000
    26 C10      6.2866   2.7879   6.3468   C.ar      1 RES1   0.0000
    27 H6       6.9366   2.8694   5.6586   H         1 RES1   0.0000
    28 C11      5.2495   7.5128   9.9428   C.2       1 RES1   0.0000
    29 H7       6.0122   7.8075  10.4255   H         1 RES1   0.0000
    30 C12      6.3500   1.7538   7.2637   C.ar      1 RES1   0.0000
    31 H8       7.0381   1.1031   7.1887   H         1 RES1   0.0000
    32 C13      0.9689   8.4174   8.6979   C.ar      1 RES1   0.0000
    33 H9       1.1807   9.2009   9.1921   H         1 RES1   0.0000
    34 C14     -0.5960   7.1063   7.4150   C.ar      1 RES1   0.0000
    35 H10     -1.4578   6.9896   7.0320   H         1 RES1   0.0000
    36 C15      4.0582   8.1904   9.8270   C.2       1 RES1   0.0000
    37 H11      3.8285   9.0325  10.2005   H         1 RES1   0.0000
    38 C16     -0.6834   4.1773   5.8388   C.2       1 RES1   0.0000
    39 H12     -1.5764   4.4518   5.6686   H         1 RES1   0.0000
    40 C17     -0.2859   8.2461   8.1312   C.ar      1 RES1   0.0000
    41 H13     -0.9436   8.9243   8.2371   H         1 RES1   0.0000
    42 C18      4.8031   6.5506   4.2292   C.2       1 RES1   0.0000
    43 H14      4.9459   7.1717   3.5252   H         1 RES1   0.0000
    44 C19      5.5890   5.4778   4.5209   C.2       1 RES1   0.0000
    45 H15      6.3821   5.2044   4.0752   H         1 RES1   0.0000
    46 C20     -0.0704   3.0233   5.4251   C.2       1 RES1   0.0000
    47 H16     -0.4681   2.3385   4.9002   H         1 RES1   0.0000
    48 C21      3.0292   2.0617  10.5387   C.2       1 RES1   0.0000
    49 H17      3.4474   1.2904  10.9055   H         1 RES1   0.0000
    50 C22      1.9570   2.7565  11.0429   C.2       1 RES1   0.0000
    51 H18      1.4834   2.5498  11.8406   H         1 RES1   0.0000
    52 S1       1.5221   6.8164  12.0339   S.3       2 RES2   0.0000
    53 S2       1.7628   8.7035  12.7170   S.3       2 RES2   0.0000
    54 N11     -0.3839   5.6501  10.7444   N.ar      2 RES2   0.0000
    55 N12      1.4744   9.8389  15.0068   N.ar      2 RES2   0.0000
    56 C23      1.3682   8.6303  14.4614   C.ar      2 RES2   0.0000
    57 C24      1.0250   7.4879  15.1369   C.ar      2 RES2   0.0000
    58 H19      0.9743   6.6477  14.6957   H         2 RES2   0.0000
    59 C25     -1.1661   7.6188  11.8606   C.ar      2 RES2   0.0000
    60 H20     -0.9729   8.3762  12.4006   H         2 RES2   0.0000
    61 C26     -0.1817   6.7176  11.5082   C.ar      2 RES2   0.0000
    62 C27     -1.6368   5.4346  10.3072   C.ar      2 RES2   0.0000
    63 H21     -1.8045   4.6786   9.7588   H         2 RES2   0.0000
    64 C28      0.7531   7.6116  16.4908   C.ar      2 RES2   0.0000
    65 H22      0.5167   6.8504  17.0059   H         2 RES2   0.0000
    66 C29     -2.6849   6.2662  10.6222   C.ar      2 RES2   0.0000
    67 H23     -3.5626   6.0790  10.3105   H         2 RES2   0.0000
    68 C30      0.8336   8.8538  17.0775   C.ar      2 RES2   0.0000
    69 H24      0.6383   8.9638  18.0009   H         2 RES2   0.0000
    70 C31     -2.4378   7.3728  11.3989   C.ar      2 RES2   0.0000
    71 H25     -3.1455   7.9690  11.6156   H         2 RES2   0.0000
    72 C32      1.1988   9.9277  16.3092   C.ar      2 RES2   0.0000
    73 H26      1.2571  10.7799  16.7258   H         2 RES2   0.0000
    74 F1       8.0918   5.8087   6.6268   F         3 RES3   0.0000
    75 F2      10.2546   6.2456   6.1851   F         3 RES3   0.0000
    76 F3       9.2991   4.4298   5.3333   F         3 RES3   0.0000
    77 F4       9.6566   4.5051   7.5337   F         3 RES3   0.0000
    78 B1       9.3451   5.2491   6.4137   B         3 RES3  -1.0000
    79 F5       1.6514   8.4593   5.0103   F         4 RES4   0.0000
    80 F6       2.9314   8.8310   3.2328   F         4 RES4   0.0000
    81 F7       1.3898  10.3262   3.7619   F         4 RES4   0.0000
    82 F8       0.6917   8.3830   3.0322   F         4 RES4   0.0000
    83 B2       1.6632   8.9913   3.7352   B         4 RES4  -1.0000
    84 O1       7.1663   4.5791   9.1208   O.3       5 RES5   0.0000
    85 H27      7.8005   4.6821   8.5788   H         5 RES5   0.0000
    86 C33      6.6040   3.8711  11.2839   C.3       5 RES5   0.0000
    87 H28      5.9317   3.2096  11.0139   H         5 RES5   0.0000
    88 H29      6.1771   4.7474  11.3856   H         5 RES5   0.0000
    89 H30      7.0020   3.5996  12.1373   H         5 RES5   0.0000
    90 C34      7.6363   3.9501  10.2739   C.3       5 RES5   0.0000
    91 H31      8.4081   4.4553  10.6322   H         5 RES5   0.0000
    92 H32      7.9452   3.0378  10.0472   H         5 RES5   0.0000
@<TRIPOS>BOND
     1     1     2    1
     2     2     6    1
     3     3     1    1
     4     4     1    1
     5     5     1    1
     6     6     7    1
     7     8     1    1
     8     9     4    1
     9    10     9    1
    10    11     1    1
    11    12     8    1
    12    13    12    1
    13    14    11    1
    14    15    14    1
    15    16     5   ar
    16    17     3   ar
    17    18    11    2
    18    19     8    2
    19    20     5   ar
    20    21     4    2
    21    22     3   ar
    22    23     2    2
    23    24    20   ar
    24    25    24    1
    25    26    16   ar
    26    27    26    1
    27    28     9    1
    28    29    28    1
    29    30    24   ar
    30    31    30    1
    31    32    17   ar
    32    33    32    1
    33    34    22   ar
    34    35    34    1
    35    36    21    1
    36    37    36    1
    37    38    18    1
    38    39    38    1
    39    40    32   ar
    40    41    40    1
    41    42    12    1
    42    43    42    1
    43    44    19    1
    44    45    44    1
    45    46    14    1
    46    47    46    1
    47    48    23    1
    48    49    48    1
    49    50     6    1
    50    51    50    1
    51    16    19    1
    52    17    21    1
    53    18    22    1
    54    20    23    1
    55    26    30   ar
    56    28    36    2
    57    34    40   ar
    58    38    46    2
    59    42    44    2
    60    48    50    2
    61    52    53    1
    62    53    56    1
    63    54    61   ar
    64    55    56   ar
    65    56    57   ar
    66    57    58    1
    67    59    60    1
    68    61    52    1
    69    62    54   ar
    70    63    62    1
    71    64    57   ar
    72    65    64    1
    73    66    62   ar
    74    67    66    1
    75    68    64   ar
    76    69    68    1
    77    70    59   ar
    78    71    70    1
    79    72    55   ar
    80    73    72    1
    81    59    61   ar
    82    66    70   ar
    83    68    72   ar
    84    74    78    1
    85    75    78    1
    86    76    78    1
    87    77    78    1
    88    79    83    1
    89    80    83    1
    90    81    83    1
    91    82    83    1
    92    84    85    1
    93    86    87    1
    94    88    86    1
    95    89    86    1
    96    90    84    1
    97    91    90    1
    98    92    90    1
    99    86    90    1
@<TRIPOS>SUBSTRUCTURE
     1 RES1        1 GROUP             0 ****  ****    0  
     2 RES2       52 GROUP             0 ****  ****    0  
     3 RES3       74 GROUP             0 ****  ****    0  
     4 RES4       79 GROUP             0 ****  ****    0  
     5 RES5       84 GROUP             0 ****  ****    0  
@<TRIPOS>CRYSIN
   13.8382   17.1819   17.1885   90.0000  104.1429   90.0000   231     1
