@<TRIPOS>MOLECULE
NICKUG01
    91   103     1     0     0
SMALL
NO_CHARGES
****
Generated from the CSD

@<TRIPOS>ATOM
     1 Fe1      8.2665   2.0818  10.6414   Fe        1 RES1   0.0000
     2 N1       7.7304   2.1977   8.7293   N.2       1 RES1   0.0000
     3 N2       6.3536   2.2321  11.1864   N.2       1 RES1   0.0000
     4 N3       8.8384   2.1288  12.5607   N.2       1 RES1   0.0000
     5 N4      10.2112   2.0250  10.0972   N.2       1 RES1   0.0000
     6 C1       5.2817   2.1880   8.9782   C.2       1 RES1   0.0000
     7 C2       6.6297   2.2806  13.6305   C.2       1 RES1   0.0000
     8 C3      11.2899   2.0206  12.3038   C.2       1 RES1   0.0000
     9 C4       9.9488   2.2117   7.6630   C.2       1 RES1   0.0000
    10 C5       8.5608   2.2720   7.6425   C.2       1 RES1   0.0000
    11 C6       6.4539   2.2318   8.2292   C.2       1 RES1   0.0000
    12 C7       5.2568   2.1522  10.3674   C.2       1 RES1   0.0000
    13 C8       5.8683   2.2091  12.4675   C.2       1 RES1   0.0000
    14 C9       8.0200   2.2699  13.6491   C.2       1 RES1   0.0000
    15 C10     10.1182   2.1473  13.0507   C.2       1 RES1   0.0000
    16 C11     11.3085   1.9329  10.9154   C.2       1 RES1   0.0000
    17 C12     10.7041   2.0586   8.8192   C.2       1 RES1   0.0000
    18 C13      7.7873   2.3818   6.4342   C.2       1 RES1   0.0000
    19 H1       8.1273   2.4591   5.5508   H         1 RES1   0.0000
    20 C14      6.4866   2.3534   6.7963   C.2       1 RES1   0.0000
    21 H2       5.7368   2.4049   6.2157   H         1 RES1   0.0000
    22 C15      4.0578   2.0549  11.1566   C.2       1 RES1   0.0000
    23 H3       3.1695   1.9744  10.8279   H         1 RES1   0.0000
    24 C16      4.4361   2.0993  12.4553   C.2       1 RES1   0.0000
    25 H4       3.8650   2.0643  13.2127   H         1 RES1   0.0000
    26 C17      8.8053   2.4092  14.8506   C.2       1 RES1   0.0000
    27 H5       8.4753   2.5340  15.7328   H         1 RES1   0.0000
    28 C18     10.1020   2.3283  14.4762   C.2       1 RES1   0.0000
    29 H6      10.8587   2.3805  15.0473   H         1 RES1   0.0000
    30 C19     12.5114   1.8582  10.1309   C.2       1 RES1   0.0000
    31 H7      13.3987   1.7742  10.4601   H         1 RES1   0.0000
    32 C20     12.1368   1.9325   8.8293   C.2       1 RES1   0.0000
    33 H8      12.7092   1.9070   8.0724   H         1 RES1   0.0000
    34 F1       0.4729   2.4919   6.1295   F         1 RES1   0.0000
    35 C21      3.9878   2.2400   8.2416   C.ar      1 RES1   0.0000
    36 C22      3.5993   1.2110   7.3933   C.ar      1 RES1   0.0000
    37 H9       4.1535   0.4454   7.3030   H         1 RES1   0.0000
    38 C23      2.4138   1.2857   6.6751   C.ar      1 RES1   0.0000
    39 H10      2.1504   0.5820   6.0936   H         1 RES1   0.0000
    40 C24      1.6335   2.4047   6.8273   C.ar      1 RES1   0.0000
    41 C25      1.9827   3.4458   7.6499   C.ar      1 RES1   0.0000
    42 H11      1.4244   4.2109   7.7311   H         1 RES1   0.0000
    43 C26      3.1722   3.3548   8.3596   C.ar      1 RES1   0.0000
    44 H12      3.4313   4.0667   8.9330   H         1 RES1   0.0000
    45 F2       4.2065   3.0255  18.6066   F         1 RES1   0.0000
    46 C27      5.9212   2.4225  14.9303   C.ar      1 RES1   0.0000
    47 C28      5.2723   3.6165  15.2275   C.ar      1 RES1   0.0000
    48 H13      5.2363   4.3026  14.5721   H         1 RES1   0.0000
    49 C29      4.6766   3.8223  16.4637   C.ar      1 RES1   0.0000
    50 H14      4.2373   4.6394  16.6656   H         1 RES1   0.0000
    51 C30      4.7437   2.8048  17.3872   C.ar      1 RES1   0.0000
    52 C31      5.3334   1.5896  17.1272   C.ar      1 RES1   0.0000
    53 H15      5.3349   0.8964  17.7778   H         1 RES1   0.0000
    54 C32      5.9271   1.4072  15.8851   C.ar      1 RES1   0.0000
    55 H16      6.3440   0.5783  15.6828   H         1 RES1   0.0000
    56 F3      16.1665   2.3970  15.0323   F         1 RES1   0.0000
    57 C33     12.5907   2.0959  13.0314   C.ar      1 RES1   0.0000
    58 C34     13.3441   0.9661  13.3083   C.ar      1 RES1   0.0000
    59 H17     13.0281   0.1142  13.0332   H         1 RES1   0.0000
    60 C35     14.5564   1.0621  13.9827   C.ar      1 RES1   0.0000
    61 H18     15.0725   0.2863  14.1675   H         1 RES1   0.0000
    62 C36     14.9873   2.3010  14.3748   C.ar      1 RES1   0.0000
    63 C37     14.2644   3.4434  14.1478   C.ar      1 RES1   0.0000
    64 H19     14.5779   4.2876  14.4500   H         1 RES1   0.0000
    65 C38     13.0617   3.3316  13.4629   C.ar      1 RES1   0.0000
    66 H20     12.5516   4.1135  13.2863   H         1 RES1   0.0000
    67 F4      12.5033   2.8271   2.7246   F         1 RES1   0.0000
    68 C39     10.6589   2.3440   6.3583   C.ar      1 RES1   0.0000
    69 C40     11.1559   3.5779   5.9732   C.ar      1 RES1   0.0000
    70 H21     11.0641   4.3213   6.5585   H         1 RES1   0.0000
    71 C41     11.7851   3.7478   4.7493   C.ar      1 RES1   0.0000
    72 H22     12.1277   4.5945   4.4886   H         1 RES1   0.0000
    73 C42     11.8981   2.6585   3.9297   C.ar      1 RES1   0.0000
    74 C43     11.4192   1.4220   4.2605   C.ar      1 RES1   0.0000
    75 H23     11.5112   0.6868   3.6647   H         1 RES1   0.0000
    76 C44     10.7952   1.2702   5.4909   C.ar      1 RES1   0.0000
    77 H24     10.4566   0.4192   5.7420   H         1 RES1   0.0000
    78 N5       8.0149   0.3532  10.5775   N.2       1 RES1   0.0000
    79 O1       7.1589  -0.3868  10.2394   O.2       1 RES1   0.0000
    80 N6       8.4003   4.2086  10.6631   N.2       1 RES1   0.0000
    81 N7       8.0082   6.3659  10.4422   N.pl3     1 RES1   0.0000
    82 C45      7.5215   5.1189  10.2868   C.2       1 RES1   0.0000
    83 H25      6.6562   4.9201   9.9496   H         1 RES1   0.0000
    84 C46      9.2701   6.2446  10.9530   C.2       1 RES1   0.0000
    85 H26      9.8668   6.9507  11.1736   H         1 RES1   0.0000
    86 C47      9.5010   4.9138  11.0818   C.2       1 RES1   0.0000
    87 H27     10.3040   4.5271  11.4120   H         1 RES1   0.0000
    88 C48      7.3404   7.6256  10.1598   C.3       1 RES1   0.0000
    89 H28      6.8151   7.5402   9.3376   H         1 RES1   0.0000
    90 H29      8.0105   8.3319  10.0467   H         1 RES1   0.0000
    91 H30      6.7466   7.8546  10.9044   H         1 RES1   0.0000
@<TRIPOS>BOND
     1     1     2    1
     2     2    10    1
     3     3     1    1
     4     4     1    1
     5     5     1    1
     6     6    11    2
     7     7    13    2
     8     8    15    1
     9     9    10    2
    10    10    18    1
    11    11     2    1
    12    12     3    2
    13    13     3    1
    14    14     4    1
    15    15     4    1
    16    16     5    1
    17    17     5    2
    18    18    19    1
    19    20    11    1
    20    21    20    1
    21    22    12    1
    22    23    22    1
    23    24    13    1
    24    25    24    1
    25    26    14    2
    26    27    26    1
    27    28    15    2
    28    29    28    1
    29    30    16    1
    30    31    30    1
    31    32    17    1
    32    33    32    1
    33    34    40    1
    34    35     6    1
    35    36    35   ar
    36    37    36    1
    37    38    36   ar
    38    39    38    1
    39    40    38   ar
    40    41    40   ar
    41    42    41    1
    42    43    35   ar
    43    44    43    1
    44    45    51    1
    45    46     7    1
    46    47    46   ar
    47    48    47    1
    48    49    47   ar
    49    50    49    1
    50    51    49   ar
    51    52    51   ar
    52    53    52    1
    53    54    46   ar
    54    55    54    1
    55    56    62    1
    56    57     8    1
    57    58    57   ar
    58    59    58    1
    59    60    58   ar
    60    61    60    1
    61    62    60   ar
    62    63    62   ar
    63    64    63    1
    64    65    57   ar
    65    66    65    1
    66    67    73    1
    67    68     9    1
    68    69    68   ar
    69    70    69    1
    70    71    69   ar
    71    72    71    1
    72    73    71   ar
    73    74    73   ar
    74    75    74    1
    75    76    68   ar
    76    77    76    1
    77    78     1    1
    78    79    78    2
    79    80     1    1
    80    81    82    1
    81    82    80    2
    82    83    82    1
    83    84    81    1
    84    85    84    1
    85    86    80    1
    86    87    86    1
    87    88    81    1
    88    89    88    1
    89    90    88    1
    90    91    88    1
    91     6    12    1
    92     7    14    1
    93     8    16    2
    94     9    17    1
    95    18    20    2
    96    22    24    2
    97    26    28    1
    98    30    32    2
    99    41    43   ar
   100    52    54   ar
   101    63    65   ar
   102    74    76   ar
   103    84    86    2
@<TRIPOS>SUBSTRUCTURE
     1 RES1        1 GROUP             0 ****  ****    0  
@<TRIPOS>CRYSIN
   14.1135   18.7149   14.8501   90.0000   97.8247   90.0000   231     1
