@<TRIPOS>MOLECULE
NICKUG05
    91   103     1     0     0
SMALL
NO_CHARGES
****
Generated from the CSD

@<TRIPOS>ATOM
     1 Fe1      3.3121   1.1397   3.5027   Fe        1 RES1   0.0000
     2 N1       3.9887   1.7527   1.7219   N.2       1 RES1   0.0000
     3 N2       2.1807  -0.2450   2.6002   N.2       1 RES1   0.0000
     4 N3       2.5106   0.6280   5.2832   N.2       1 RES1   0.0000
     5 N4       4.3500   2.6096   4.4015   N.2       1 RES1   0.0000
     6 C1       2.8731   0.1068   0.2573   C.2       1 RES1   0.0000
     7 C2       1.0809  -1.2498   4.5754   C.2       1 RES1   0.0000
     8 C3       3.6435   2.2628   6.7424   C.2       1 RES1   0.0000
     9 C4       5.4484   3.6124   2.4357   C.2       1 RES1   0.0000
    10 C5       4.8161   2.8242   1.4739   C.2       1 RES1   0.0000
    11 C6       3.6688   1.2359   0.4865   C.2       1 RES1   0.0000
    12 C7       2.2232  -0.6001   1.2702   C.2       1 RES1   0.0000
    13 C8       1.4086  -1.2024   3.2177   C.2       1 RES1   0.0000
    14 C9       1.5878  -0.3647   5.5236   C.2       1 RES1   0.0000
    15 C10      2.7625   1.2072   6.5068   C.2       1 RES1   0.0000
    16 C11      4.4040   2.8816   5.7489   C.2       1 RES1   0.0000
    17 C12      5.2391   3.4740   3.8088   C.2       1 RES1   0.0000
    18 C13      4.9713   3.0180   0.0554   C.2       1 RES1   0.0000
    19 H1       5.4727   3.7033  -0.3714   H         1 RES1   0.0000
    20 C14      4.2640   2.0348  -0.5525   C.2       1 RES1   0.0000
    21 H2       4.1767   1.8982  -1.4883   H         1 RES1   0.0000
    22 C15      1.4787  -1.8173   1.0606   C.2       1 RES1   0.0000
    23 H3       1.3661  -2.2759   0.2365   H         1 RES1   0.0000
    24 C16      0.9719  -2.1832   2.2598   C.2       1 RES1   0.0000
    25 H4       0.4304  -2.9438   2.4369   H         1 RES1   0.0000
    26 C17      1.2333  -0.3873   6.9225   C.2       1 RES1   0.0000
    27 H5       0.6077  -0.9692   7.3384   H         1 RES1   0.0000
    28 C18      1.9621   0.5787   7.5270   C.2       1 RES1   0.0000
    29 H6       1.9486   0.8013   8.4511   H         1 RES1   0.0000
    30 C19      5.3780   3.9119   6.0036   C.2       1 RES1   0.0000
    31 H7       5.6067   4.2740   6.8516   H         1 RES1   0.0000
    32 C20      5.9072   4.2683   4.8078   C.2       1 RES1   0.0000
    33 H8       6.5855   4.9160   4.6581   H         1 RES1   0.0000
    34 F1       2.2605  -1.6478  -5.0337   F         1 RES1   0.0000
    35 C21      2.7106  -0.3623  -1.1512   C.ar      1 RES1   0.0000
    36 C22      3.8254  -0.6812  -1.9300   C.ar      1 RES1   0.0000
    37 H9       4.6951  -0.6080  -1.5536   H         1 RES1   0.0000
    38 C23      3.6831  -1.1030  -3.2448   C.ar      1 RES1   0.0000
    39 H10      4.4439  -1.3016  -3.7791   H         1 RES1   0.0000
    40 C24      2.4122  -1.2249  -3.7528   C.ar      1 RES1   0.0000
    41 C25      1.2837  -0.9300  -3.0208   C.ar      1 RES1   0.0000
    42 H11      0.4181  -1.0289  -3.3980   H         1 RES1   0.0000
    43 C26      1.4450  -0.4857  -1.7196   C.ar      1 RES1   0.0000
    44 H12      0.6787  -0.2604  -1.2045   H         1 RES1   0.0000
    45 F2      -2.3950  -5.2971   6.3150   F         1 RES1   0.0000
    46 C27      0.1532  -2.3337   5.0313   C.ar      1 RES1   0.0000
    47 C28      0.6042  -3.3272   5.8930   C.ar      1 RES1   0.0000
    48 H13      1.5047  -3.3119   6.1951   H         1 RES1   0.0000
    49 C29     -0.2489  -4.3460   6.3198   C.ar      1 RES1   0.0000
    50 H14      0.0590  -5.0319   6.9003   H         1 RES1   0.0000
    51 C30     -1.5421  -4.3252   5.8766   C.ar      1 RES1   0.0000
    52 C31     -2.0304  -3.3733   5.0235   C.ar      1 RES1   0.0000
    53 H15     -2.9335  -3.3988   4.7318   H         1 RES1   0.0000
    54 C32     -1.1710  -2.3691   4.5958   C.ar      1 RES1   0.0000
    55 H16     -1.4881  -1.7005   4.0002   H         1 RES1   0.0000
    56 F3       3.9323   4.1688  12.0157   F         1 RES1   0.0000
    57 C33      3.7594   2.7804   8.1478   C.ar      1 RES1   0.0000
    58 C34      3.2868   4.0513   8.4663   C.ar      1 RES1   0.0000
    59 H17      2.9042   4.5911   7.7849   H         1 RES1   0.0000
    60 C35      3.3657   4.5421   9.7640   C.ar      1 RES1   0.0000
    61 H18      3.0604   5.4164   9.9756   H         1 RES1   0.0000
    62 C36      3.8994   3.7255  10.7314   C.ar      1 RES1   0.0000
    63 C37      4.3809   2.4676  10.4631   C.ar      1 RES1   0.0000
    64 H19      4.7523   1.9309  11.1536   H         1 RES1   0.0000
    65 C38      4.3117   1.9988   9.1548   C.ar      1 RES1   0.0000
    66 H20      4.6465   1.1334   8.9477   H         1 RES1   0.0000
    67 F4       9.1921   7.4044   0.6725   F         1 RES1   0.0000
    68 C39      6.4348   4.6349   1.9649   C.ar      1 RES1   0.0000
    69 C40      6.2139   5.9951   2.1545   C.ar      1 RES1   0.0000
    70 H21      5.4190   6.2856   2.5857   H         1 RES1   0.0000
    71 C41      7.1431   6.9363   1.7196   C.ar      1 RES1   0.0000
    72 H22      6.9953   7.8649   1.8541   H         1 RES1   0.0000
    73 C42      8.2720   6.4900   1.0951   C.ar      1 RES1   0.0000
    74 C43      8.5318   5.1614   0.8683   C.ar      1 RES1   0.0000
    75 H23      9.3229   4.8857   0.4201   H         1 RES1   0.0000
    76 C44      7.5994   4.2330   1.3157   C.ar      1 RES1   0.0000
    77 H24      7.7593   3.3066   1.1753   H         1 RES1   0.0000
    78 N5       4.6050  -0.0344   3.5777   N.2       1 RES1   0.0000
    79 O1       5.1043  -0.8530   2.8886   O.2       1 RES1   0.0000
    80 N6       1.7235   2.6020   3.2631   N.2       1 RES1   0.0000
    81 N7       0.1659   4.1031   3.6987   N.pl3     1 RES1   0.0000
    82 C45      1.0094   3.1863   4.2108   C.2       1 RES1   0.0000
    83 H25      1.0817   2.9853   5.1366   H         1 RES1   0.0000
    84 C46      0.3576   4.1140   2.3453   C.2       1 RES1   0.0000
    85 H26     -0.0893   4.6622   1.7108   H         1 RES1   0.0000
    86 C47      1.3112   3.1892   2.0877   C.2       1 RES1   0.0000
    87 H27      1.6462   2.9764   1.2240   H         1 RES1   0.0000
    88 C48     -0.7531   4.9668   4.4264   C.3       1 RES1   0.0000
    89 H28     -0.7637   4.7092   5.3717   H         1 RES1   0.0000
    90 H29     -1.6545   4.8740   4.0517   H         1 RES1   0.0000
    91 H30     -0.4611   5.8988   4.3452   H         1 RES1   0.0000
@<TRIPOS>BOND
     1     1     2    1
     2     2    10    1
     3     3     1    1
     4     4     1    1
     5     5     1    1
     6     6    11    2
     7     7    13    2
     8     8    15    1
     9     9    10    2
    10    10    18    1
    11    11     2    1
    12    12     3    2
    13    13     3    1
    14    14     4    1
    15    15     4    1
    16    16     5    1
    17    17     5    2
    18    18    19    1
    19    20    11    1
    20    21    20    1
    21    22    12    1
    22    23    22    1
    23    24    13    1
    24    25    24    1
    25    26    14    2
    26    27    26    1
    27    28    15    2
    28    29    28    1
    29    30    16    1
    30    31    30    1
    31    32    17    1
    32    33    32    1
    33    34    40    1
    34    35     6    1
    35    36    35   ar
    36    37    36    1
    37    38    36   ar
    38    39    38    1
    39    40    38   ar
    40    41    40   ar
    41    42    41    1
    42    43    35   ar
    43    44    43    1
    44    45    51    1
    45    46     7    1
    46    47    46   ar
    47    48    47    1
    48    49    47   ar
    49    50    49    1
    50    51    49   ar
    51    52    51   ar
    52    53    52    1
    53    54    46   ar
    54    55    54    1
    55    56    62    1
    56    57     8    1
    57    58    57   ar
    58    59    58    1
    59    60    58   ar
    60    61    60    1
    61    62    60   ar
    62    63    62   ar
    63    64    63    1
    64    65    57   ar
    65    66    65    1
    66    67    73    1
    67    68     9    1
    68    69    68   ar
    69    70    69    1
    70    71    69   ar
    71    72    71    1
    72    73    71   ar
    73    74    73   ar
    74    75    74    1
    75    76    68   ar
    76    77    76    1
    77    78     1    1
    78    79    78    2
    79    80     1    1
    80    81    82    1
    81    82    80    2
    82    83    82    1
    83    84    81    1
    84    85    84    1
    85    86    80    1
    86    87    86    1
    87    88    81    1
    88    89    88    1
    89    90    88    1
    90    91    88    1
    91     6    12    1
    92     7    14    1
    93     8    16    2
    94     9    17    1
    95    18    20    2
    96    22    24    2
    97    26    28    1
    98    30    32    2
    99    41    43   ar
   100    52    54   ar
   101    63    65   ar
   102    74    76   ar
   103    84    86    2
@<TRIPOS>SUBSTRUCTURE
     1 RES1        1 GROUP             0 ****  ****    0  
@<TRIPOS>CRYSIN
   11.4758   12.2062   14.3005   92.7860  102.4470   99.8760     2     1
