@<TRIPOS>MOLECULE
NICKUG04
    91   103     1     0     0
SMALL
NO_CHARGES
****
Generated from the CSD

@<TRIPOS>ATOM
     1 Fe1      3.2839   1.1406   3.5166   Fe        1 RES1   0.0000
     2 N1       3.9678   1.7507   1.7383   N.2       1 RES1   0.0000
     3 N2       2.1447  -0.2385   2.6087   N.2       1 RES1   0.0000
     4 N3       2.4785   0.6300   5.2962   N.2       1 RES1   0.0000
     5 N4       4.3331   2.6035   4.4226   N.2       1 RES1   0.0000
     6 C1       2.8536   0.1068   0.2656   C.2       1 RES1   0.0000
     7 C2       1.0288  -1.2357   4.5824   C.2       1 RES1   0.0000
     8 C3       3.6218   2.2542   6.7641   C.2       1 RES1   0.0000
     9 C4       5.4361   3.6084   2.4560   C.2       1 RES1   0.0000
    10 C5       4.7962   2.8265   1.4914   C.2       1 RES1   0.0000
    11 C6       3.6455   1.2369   0.5003   C.2       1 RES1   0.0000
    12 C7       2.1941  -0.5968   1.2786   C.2       1 RES1   0.0000
    13 C8       1.3611  -1.1905   3.2246   C.2       1 RES1   0.0000
    14 C9       1.5418  -0.3551   5.5335   C.2       1 RES1   0.0000
    15 C10      2.7334   1.2022   6.5233   C.2       1 RES1   0.0000
    16 C11      4.3872   2.8707   5.7714   C.2       1 RES1   0.0000
    17 C12      5.2274   3.4647   3.8290   C.2       1 RES1   0.0000
    18 C13      4.9498   3.0238   0.0724   C.2       1 RES1   0.0000
    19 H1       5.4507   3.7098  -0.3529   H         1 RES1   0.0000
    20 C14      4.2386   2.0394  -0.5414   C.2       1 RES1   0.0000
    21 H2       4.1492   1.9063  -1.4784   H         1 RES1   0.0000
    22 C15      1.4460  -1.8137   1.0653   C.2       1 RES1   0.0000
    23 H3       1.3364  -2.2741   0.2413   H         1 RES1   0.0000
    24 C16      0.9292  -2.1735   2.2695   C.2       1 RES1   0.0000
    25 H4       0.3849  -2.9320   2.4464   H         1 RES1   0.0000
    26 C17      1.1838  -0.3777   6.9339   C.2       1 RES1   0.0000
    27 H5       0.5514  -0.9536   7.3475   H         1 RES1   0.0000
    28 C18      1.9240   0.5787   7.5433   C.2       1 RES1   0.0000
    29 H6       1.9121   0.7976   8.4675   H         1 RES1   0.0000
    30 C19      5.3683   3.8973   6.0320   C.2       1 RES1   0.0000
    31 H7       5.6002   4.2557   6.8802   H         1 RES1   0.0000
    32 C20      5.8977   4.2536   4.8326   C.2       1 RES1   0.0000
    33 H8       6.5785   4.8986   4.6835   H         1 RES1   0.0000
    34 F1       2.2771  -1.6678  -5.0265   F         1 RES1   0.0000
    35 C21      2.6979  -0.3624  -1.1410   C.ar      1 RES1   0.0000
    36 C22      3.8214  -0.6661  -1.9164   C.ar      1 RES1   0.0000
    37 H9       4.6880  -0.5794  -1.5370   H         1 RES1   0.0000
    38 C23      3.6908  -1.0940  -3.2370   C.ar      1 RES1   0.0000
    39 H10      4.4557  -1.2789  -3.7700   H         1 RES1   0.0000
    40 C24      2.4187  -1.2412  -3.7471   C.ar      1 RES1   0.0000
    41 C25      1.2807  -0.9603  -3.0200   C.ar      1 RES1   0.0000
    42 H11      0.4174  -1.0721  -3.4018   H         1 RES1   0.0000
    43 C26      1.4296  -0.5090  -1.7127   C.ar      1 RES1   0.0000
    44 H12      0.6584  -0.2967  -1.2009   H         1 RES1   0.0000
    45 F2      -2.5132  -5.2277   6.3260   F         1 RES1   0.0000
    46 C27      0.0881  -2.3062   5.0321   C.ar      1 RES1   0.0000
    47 C28      0.5209  -3.2956   5.9154   C.ar      1 RES1   0.0000
    48 H13      1.4175  -3.2862   6.2289   H         1 RES1   0.0000
    49 C29     -0.3504  -4.3016   6.3447   C.ar      1 RES1   0.0000
    50 H14     -0.0568  -4.9826   6.9388   H         1 RES1   0.0000
    51 C30     -1.6438  -4.2760   5.8822   C.ar      1 RES1   0.0000
    52 C31     -2.1121  -3.3278   5.0031   C.ar      1 RES1   0.0000
    53 H15     -3.0105  -3.3494   4.6947   H         1 RES1   0.0000
    54 C32     -1.2332  -2.3329   4.5756   C.ar      1 RES1   0.0000
    55 H16     -1.5344  -1.6671   3.9680   H         1 RES1   0.0000
    56 F3       3.8695   4.1416  12.0489   F         1 RES1   0.0000
    57 C33      3.7338   2.7665   8.1658   C.ar      1 RES1   0.0000
    58 C34      3.2626   4.0442   8.4860   C.ar      1 RES1   0.0000
    59 H17      2.8906   4.5893   7.8022   H         1 RES1   0.0000
    60 C35      3.3295   4.5322   9.7902   C.ar      1 RES1   0.0000
    61 H18      3.0251   5.4066  10.0031   H         1 RES1   0.0000
    62 C36      3.8514   3.7035  10.7635   C.ar      1 RES1   0.0000
    63 C37      4.3319   2.4427  10.4951   C.ar      1 RES1   0.0000
    64 H19      4.6925   1.9018  11.1872   H         1 RES1   0.0000
    65 C38      4.2762   1.9794   9.1818   C.ar      1 RES1   0.0000
    66 H20      4.6125   1.1154   8.9751   H         1 RES1   0.0000
    67 F4       9.1819   7.3848   0.6569   F         1 RES1   0.0000
    68 C39      6.4244   4.6231   1.9843   C.ar      1 RES1   0.0000
    69 C40      6.2176   5.9892   2.1920   C.ar      1 RES1   0.0000
    70 H21      5.4334   6.2824   2.6416   H         1 RES1   0.0000
    71 C41      7.1487   6.9281   1.7462   C.ar      1 RES1   0.0000
    72 H22      7.0123   7.8566   1.8913   H         1 RES1   0.0000
    73 C42      8.2674   6.4743   1.0931   C.ar      1 RES1   0.0000
    74 C43      8.5093   5.1408   0.8511   C.ar      1 RES1   0.0000
    75 H23      9.2888   4.8614   0.3849   H         1 RES1   0.0000
    76 C44      7.5757   4.2139   1.3105   C.ar      1 RES1   0.0000
    77 H24      7.7253   3.2872   1.1618   H         1 RES1   0.0000
    78 N5       4.5777  -0.0489   3.5948   N.2       1 RES1   0.0000
    79 O1       5.0691  -0.8648   2.8910   O.2       1 RES1   0.0000
    80 N6       1.7122   2.6138   3.2824   N.2       1 RES1   0.0000
    81 N7       0.1592   4.1206   3.7203   N.pl3     1 RES1   0.0000
    82 C45      0.9986   3.1978   4.2368   C.2       1 RES1   0.0000
    83 H25      1.0689   2.9939   5.1619   H         1 RES1   0.0000
    84 C46      0.3510   4.1345   2.3659   C.2       1 RES1   0.0000
    85 H26     -0.0950   4.6860   1.7337   H         1 RES1   0.0000
    86 C47      1.3058   3.2049   2.1019   C.2       1 RES1   0.0000
    87 H27      1.6424   2.9940   1.2385   H         1 RES1   0.0000
    88 C48     -0.7526   4.9942   4.4516   C.3       1 RES1   0.0000
    89 H28     -0.7737   4.7285   5.3948   H         1 RES1   0.0000
    90 H29     -1.6532   4.9196   4.0712   H         1 RES1   0.0000
    91 H30     -0.4438   5.9213   4.3795   H         1 RES1   0.0000
@<TRIPOS>BOND
     1     1     2    1
     2     2    10    1
     3     3     1    1
     4     4     1    1
     5     5     1    1
     6     6    11    2
     7     7    13    2
     8     8    15    1
     9     9    10    2
    10    10    18    1
    11    11     2    1
    12    12     3    2
    13    13     3    1
    14    14     4    1
    15    15     4    1
    16    16     5    1
    17    17     5    2
    18    18    19    1
    19    20    11    1
    20    21    20    1
    21    22    12    1
    22    23    22    1
    23    24    13    1
    24    25    24    1
    25    26    14    2
    26    27    26    1
    27    28    15    2
    28    29    28    1
    29    30    16    1
    30    31    30    1
    31    32    17    1
    32    33    32    1
    33    34    40    1
    34    35     6    1
    35    36    35   ar
    36    37    36    1
    37    38    36   ar
    38    39    38    1
    39    40    38   ar
    40    41    40   ar
    41    42    41    1
    42    43    35   ar
    43    44    43    1
    44    45    51    1
    45    46     7    1
    46    47    46   ar
    47    48    47    1
    48    49    47   ar
    49    50    49    1
    50    51    49   ar
    51    52    51   ar
    52    53    52    1
    53    54    46   ar
    54    55    54    1
    55    56    62    1
    56    57     8    1
    57    58    57   ar
    58    59    58    1
    59    60    58   ar
    60    61    60    1
    61    62    60   ar
    62    63    62   ar
    63    64    63    1
    64    65    57   ar
    65    66    65    1
    66    67    73    1
    67    68     9    1
    68    69    68   ar
    69    70    69    1
    70    71    69   ar
    71    72    71    1
    72    73    71   ar
    73    74    73   ar
    74    75    74    1
    75    76    68   ar
    76    77    76    1
    77    78     1    1
    78    79    78    2
    79    80     1    1
    80    81    82    1
    81    82    80    2
    82    83    82    1
    83    84    81    1
    84    85    84    1
    85    86    80    1
    86    87    86    1
    87    88    81    1
    88    89    88    1
    89    90    88    1
    90    91    88    1
    91     6    12    1
    92     7    14    1
    93     8    16    2
    94     9    17    1
    95    18    20    2
    96    22    24    2
    97    26    28    1
    98    30    32    2
    99    41    43   ar
   100    52    54   ar
   101    63    65   ar
   102    74    76   ar
   103    84    86    2
@<TRIPOS>SUBSTRUCTURE
     1 RES1        1 GROUP             0 ****  ****    0  
@<TRIPOS>CRYSIN
   11.4169   12.1503   14.3515   92.8140  102.6570   99.5570     2     1
