@<TRIPOS>MOLECULE
NICKIX02
    92    99     5     0     0
SMALL
USER_CHARGES
****
Generated from the CSD

@<TRIPOS>ATOM
     1 Fe1      2.9396   4.9195   7.5869   Fe        1 RES1   2.0000
     2 N1       2.5451   3.7854   9.1567   N.2       1 RES1   0.0000
     3 N2       1.6072   6.2897   7.8041   N.ar      1 RES1   0.0000
     4 N3       3.9298   6.2251   8.6751   N.2       1 RES1   0.0000
     5 N4       4.3164   3.5838   7.4176   N.ar      1 RES1   0.0000
     6 N5       1.6834   3.7679  10.1893   N.pl3     1 RES1   0.0000
     7 H1       1.0347   4.3520  10.3070   H         1 RES1   0.0000
     8 N6       3.8635   5.5399   5.9610   N.2       1 RES1   0.0000
     9 N7       5.1487   6.3402   9.2329   N.pl3     1 RES1   0.0000
    10 H2       5.7910   5.7432   9.1579   H         1 RES1   0.0000
    11 N8       1.4333   4.1400   6.5697   N.2       1 RES1   0.0000
    12 N9       3.7770   6.5721   5.1004   N.pl3     1 RES1   0.0000
    13 H3       3.1422   7.1824   5.1152   H         1 RES1   0.0000
    14 N10      1.1753   3.0248   5.8790   N.pl3     1 RES1   0.0000
    15 H4       1.7572   2.3776   5.7438   H         1 RES1   0.0000
    16 C1       5.2377   3.6972   6.4368   C.ar      1 RES1   0.0000
    17 C2       1.9028   7.4017   8.5075   C.ar      1 RES1   0.0000
    18 C3       0.2873   4.8531   6.5555   C.2       1 RES1   0.0000
    19 C4       4.9662   4.8556   5.6062   C.2       1 RES1   0.0000
    20 C5       4.4060   2.5951   8.3351   C.ar      1 RES1   0.0000
    21 C6       3.2637   7.3452   9.0165   C.2       1 RES1   0.0000
    22 C7       0.3808   6.1297   7.2613   C.ar      1 RES1   0.0000
    23 C8       3.3601   2.7302   9.3423   C.2       1 RES1   0.0000
    24 C9       5.4134   1.6444   8.2717   C.ar      1 RES1   0.0000
    25 H5       5.4678   0.9435   8.9118   H         1 RES1   0.0000
    26 C10      6.2769   2.7836   6.3259   C.ar      1 RES1   0.0000
    27 H6       6.9271   2.8665   5.6391   H         1 RES1   0.0000
    28 C11      5.2524   7.4938   9.9212   C.2       1 RES1   0.0000
    29 H7       6.0164   7.7880  10.4018   H         1 RES1   0.0000
    30 C12      6.3408   1.7487   7.2428   C.ar      1 RES1   0.0000
    31 H8       7.0300   1.0996   7.1673   H         1 RES1   0.0000
    32 C13      0.9700   8.4110   8.6874   C.ar      1 RES1   0.0000
    33 H9       1.1835   9.1929   9.1828   H         1 RES1   0.0000
    34 C14     -0.6007   7.1035   7.4061   C.ar      1 RES1   0.0000
    35 H10     -1.4630   6.9886   7.0243   H         1 RES1   0.0000
    36 C15      4.0654   8.1707   9.8078   C.2       1 RES1   0.0000
    37 H11      3.8396   9.0128  10.1839   H         1 RES1   0.0000
    38 C16     -0.6996   4.1710   5.8335   C.2       1 RES1   0.0000
    39 H12     -1.5941   4.4481   5.6690   H         1 RES1   0.0000
    40 C17     -0.2868   8.2448   8.1210   C.ar      1 RES1   0.0000
    41 H13     -0.9414   8.9253   8.2266   H         1 RES1   0.0000
    42 C18      4.7938   6.5463   4.2128   C.2       1 RES1   0.0000
    43 H14      4.9360   7.1687   3.5088   H         1 RES1   0.0000
    44 C19      5.5822   5.4680   4.5025   C.2       1 RES1   0.0000
    45 H15      6.3735   5.1925   4.0543   H         1 RES1   0.0000
    46 C20     -0.0920   3.0186   5.4157   C.2       1 RES1   0.0000
    47 H16     -0.4921   2.3347   4.8924   H         1 RES1   0.0000
    48 C21      3.0159   2.0460  10.5152   C.2       1 RES1   0.0000
    49 H17      3.4311   1.2745  10.8807   H         1 RES1   0.0000
    50 C22      1.9422   2.7411  11.0204   C.2       1 RES1   0.0000
    51 H18      1.4668   2.5337  11.8153   H         1 RES1   0.0000
    52 S1       1.5168   6.8026  11.9964   S.3       2 RES2   0.0000
    53 S2       1.7599   8.6898  12.6772   S.3       2 RES2   0.0000
    54 N11     -0.3950   5.6362  10.7144   N.ar      2 RES2   0.0000
    55 N12      1.4826   9.8267  14.9656   N.ar      2 RES2   0.0000
    56 C23      1.3736   8.6150  14.4193   C.ar      2 RES2   0.0000
    57 C24      1.0278   7.4698  15.0990   C.ar      2 RES2   0.0000
    58 H19      0.9739   6.6301  14.6589   H         2 RES2   0.0000
    59 C25     -1.1705   7.6084  11.8263   C.ar      2 RES2   0.0000
    60 H20     -0.9737   8.3678  12.3607   H         2 RES2   0.0000
    61 C26     -0.1861   6.7030  11.4777   C.ar      2 RES2   0.0000
    62 C27     -1.6514   5.4217  10.2812   C.ar      2 RES2   0.0000
    63 H21     -1.8226   4.6608   9.7383   H         2 RES2   0.0000
    64 C28      0.7620   7.5958  16.4561   C.ar      2 RES2   0.0000
    65 H22      0.5274   6.8342  16.9721   H         2 RES2   0.0000
    66 C29     -2.6950   6.2561  10.5897   C.ar      2 RES2   0.0000
    67 H23     -3.5719   6.0726  10.2737   H         2 RES2   0.0000
    68 C30      0.8432   8.8395  17.0443   C.ar      2 RES2   0.0000
    69 H24      0.6536   8.9493  17.9682   H         2 RES2   0.0000
    70 C31     -2.4493   7.3677  11.3686   C.ar      2 RES2   0.0000
    71 H25     -3.1557   7.9629  11.5875   H         2 RES2   0.0000
    72 C32      1.2022   9.9151  16.2753   C.ar      2 RES2   0.0000
    73 H26      1.2540  10.7676  16.6894   H         2 RES2   0.0000
    74 F1       8.0511   5.7981   6.6101   F         3 RES3   0.0000
    75 F2      10.2231   6.2307   6.1827   F         3 RES3   0.0000
    76 F3       9.2657   4.4141   5.3125   F         3 RES3   0.0000
    77 F4       9.6099   4.4834   7.5215   F         3 RES3   0.0000
    78 B1       9.3014   5.2358   6.3941   B         3 RES3  -1.0000
    79 F5       1.6454   8.4491   5.0092   F         4 RES4   0.0000
    80 F6       2.9255   8.8165   3.2142   F         4 RES4   0.0000
    81 F7       1.3968  10.3299   3.7693   F         4 RES4   0.0000
    82 F8       0.6894   8.3875   3.0058   F         4 RES4   0.0000
    83 B2       1.6605   8.9821   3.7305   B         4 RES4  -1.0000
    84 O1       7.1551   4.5453   9.1067   O.3       5 RES5   0.0000
    85 H27      7.8096   4.7242   8.6108   H         5 RES5   0.0000
    86 C33      6.5609   3.8477  11.2657   C.3       5 RES5   0.0000
    87 H28      5.7611   3.4325  10.8791   H         5 RES5   0.0000
    88 H29      6.3465   4.7551  11.5642   H         5 RES5   0.0000
    89 H30      6.8683   3.3159  12.0298   H         5 RES5   0.0000
    90 C34      7.6088   3.9026  10.2654   C.3       5 RES5   0.0000
    91 H31      8.3894   4.3897  10.6296   H         5 RES5   0.0000
    92 H32      7.8989   2.9831  10.0393   H         5 RES5   0.0000
@<TRIPOS>BOND
     1     1     2    1
     2     2     6    1
     3     3     1    1
     4     4     1    1
     5     5     1    1
     6     6     7    1
     7     8     1    1
     8     9     4    1
     9    10     9    1
    10    11     1    1
    11    12     8    1
    12    13    12    1
    13    14    11    1
    14    15    14    1
    15    16     5   ar
    16    17     3   ar
    17    18    11    2
    18    19     8    2
    19    20     5   ar
    20    21     4    2
    21    22     3   ar
    22    23     2    2
    23    24    20   ar
    24    25    24    1
    25    26    16   ar
    26    27    26    1
    27    28     9    1
    28    29    28    1
    29    30    24   ar
    30    31    30    1
    31    32    17   ar
    32    33    32    1
    33    34    22   ar
    34    35    34    1
    35    36    21    1
    36    37    36    1
    37    38    18    1
    38    39    38    1
    39    40    32   ar
    40    41    40    1
    41    42    12    1
    42    43    42    1
    43    44    19    1
    44    45    44    1
    45    46    14    1
    46    47    46    1
    47    48    23    1
    48    49    48    1
    49    50     6    1
    50    51    50    1
    51    16    19    1
    52    17    21    1
    53    18    22    1
    54    20    23    1
    55    26    30   ar
    56    28    36    2
    57    34    40   ar
    58    38    46    2
    59    42    44    2
    60    48    50    2
    61    52    53    1
    62    53    56    1
    63    54    61   ar
    64    55    56   ar
    65    56    57   ar
    66    57    58    1
    67    59    60    1
    68    61    52    1
    69    62    54   ar
    70    63    62    1
    71    64    57   ar
    72    65    64    1
    73    66    62   ar
    74    67    66    1
    75    68    64   ar
    76    69    68    1
    77    70    59   ar
    78    71    70    1
    79    72    55   ar
    80    73    72    1
    81    59    61   ar
    82    66    70   ar
    83    68    72   ar
    84    74    78    1
    85    75    78    1
    86    76    78    1
    87    77    78    1
    88    79    83    1
    89    80    83    1
    90    81    83    1
    91    82    83    1
    92    84    85    1
    93    86    87    1
    94    88    86    1
    95    89    86    1
    96    90    84    1
    97    91    90    1
    98    92    90    1
    99    86    90    1
@<TRIPOS>SUBSTRUCTURE
     1 RES1        1 GROUP             0 ****  ****    0  
     2 RES2       52 GROUP             0 ****  ****    0  
     3 RES3       74 GROUP             0 ****  ****    0  
     4 RES4       79 GROUP             0 ****  ****    0  
     5 RES5       84 GROUP             0 ****  ****    0  
@<TRIPOS>CRYSIN
   13.8008   17.1541   17.1474   90.0000  104.1169   90.0000   231     1
