@<TRIPOS>MOLECULE
NICKUG13
    91   103     1     0     0
SMALL
NO_CHARGES
****
Generated from the CSD

@<TRIPOS>ATOM
     1 Fe1      8.2906   2.1027  10.6452   Fe        1 RES1   0.0000
     2 N1       7.7551   2.2113   8.7311   N.2       1 RES1   0.0000
     3 N2       6.3777   2.2463  11.1909   N.2       1 RES1   0.0000
     4 N3       8.8597   2.1476  12.5684   N.2       1 RES1   0.0000
     5 N4      10.2348   2.0437  10.0946   N.2       1 RES1   0.0000
     6 C1       5.3045   2.2030   8.9829   C.2       1 RES1   0.0000
     7 C2       6.6444   2.2979  13.6312   C.2       1 RES1   0.0000
     8 C3      11.3164   2.0341  12.3111   C.2       1 RES1   0.0000
     9 C4       9.9743   2.2209   7.6584   C.2       1 RES1   0.0000
    10 C5       8.5819   2.2917   7.6436   C.2       1 RES1   0.0000
    11 C6       6.4756   2.2532   8.2300   C.2       1 RES1   0.0000
    12 C7       5.2721   2.1720  10.3707   C.2       1 RES1   0.0000
    13 C8       5.8892   2.2230  12.4702   C.2       1 RES1   0.0000
    14 C9       8.0413   2.2837  13.6548   C.2       1 RES1   0.0000
    15 C10     10.1374   2.1589  13.0596   C.2       1 RES1   0.0000
    16 C11     11.3394   1.9520  10.9203   C.2       1 RES1   0.0000
    17 C12     10.7267   2.0756   8.8193   C.2       1 RES1   0.0000
    18 C13      7.8043   2.4026   6.4399   C.2       1 RES1   0.0000
    19 H1       8.1401   2.4825   5.5559   H         1 RES1   0.0000
    20 C14      6.5162   2.3720   6.8038   C.2       1 RES1   0.0000
    21 H2       5.7663   2.4205   6.2233   H         1 RES1   0.0000
    22 C15      4.0857   2.0738  11.1619   C.2       1 RES1   0.0000
    23 H3       3.1987   1.9920  10.8334   H         1 RES1   0.0000
    24 C16      4.4521   2.1177  12.4511   C.2       1 RES1   0.0000
    25 H4       3.8766   2.0860  13.2069   H         1 RES1   0.0000
    26 C17      8.8286   2.4248  14.8497   C.2       1 RES1   0.0000
    27 H5       8.5015   2.5577  15.7322   H         1 RES1   0.0000
    28 C18     10.1165   2.3333  14.4769   C.2       1 RES1   0.0000
    29 H6      10.8731   2.3773  15.0500   H         1 RES1   0.0000
    30 C19     12.5292   1.8717  10.1350   C.2       1 RES1   0.0000
    31 H7      13.4160   1.7815  10.4650   H         1 RES1   0.0000
    32 C20     12.1623   1.9465   8.8385   C.2       1 RES1   0.0000
    33 H8      12.7391   1.9187   8.0841   H         1 RES1   0.0000
    34 F1       0.4825   2.4932   6.1407   F         1 RES1   0.0000
    35 C21      4.0093   2.2530   8.2418   C.ar      1 RES1   0.0000
    36 C22      3.5965   1.2196   7.4167   C.ar      1 RES1   0.0000
    37 H9       4.1401   0.4454   7.3357   H         1 RES1   0.0000
    38 C23      2.4187   1.2905   6.7169   C.ar      1 RES1   0.0000
    39 H10      2.1427   0.5732   6.1585   H         1 RES1   0.0000
    40 C24      1.6553   2.4092   6.8407   C.ar      1 RES1   0.0000
    41 C25      2.0120   3.4559   7.6318   C.ar      1 RES1   0.0000
    42 H11      1.4618   4.2264   7.6996   H         1 RES1   0.0000
    43 C26      3.1953   3.3657   8.3331   C.ar      1 RES1   0.0000
    44 H12      3.4581   4.0855   8.8945   H         1 RES1   0.0000
    45 F2       4.2024   3.0233  18.6105   F         1 RES1   0.0000
    46 C27      5.9408   2.4402  14.9395   C.ar      1 RES1   0.0000
    47 C28      5.2984   3.6300  15.2416   C.ar      1 RES1   0.0000
    48 H13      5.2674   4.3223  14.5918   H         1 RES1   0.0000
    49 C29      4.6991   3.8269  16.4718   C.ar      1 RES1   0.0000
    50 H14      4.2652   4.6455  16.6795   H         1 RES1   0.0000
    51 C30      4.7513   2.8038  17.3853   C.ar      1 RES1   0.0000
    52 C31      5.3328   1.6011  17.1142   C.ar      1 RES1   0.0000
    53 H15      5.3264   0.9039  17.7580   H         1 RES1   0.0000
    54 C32      5.9339   1.4194  15.8810   C.ar      1 RES1   0.0000
    55 H16      6.3447   0.5882  15.6762   H         1 RES1   0.0000
    56 F3      16.2011   2.3900  15.0262   F         1 RES1   0.0000
    57 C33     12.6210   2.1091  13.0360   C.ar      1 RES1   0.0000
    58 C34     13.3512   0.9768  13.3321   C.ar      1 RES1   0.0000
    59 H17     13.0203   0.1240  13.0758   H         1 RES1   0.0000
    60 C35     14.5673   1.0712  14.0010   C.ar      1 RES1   0.0000
    61 H18     15.0736   0.2913  14.1970   H         1 RES1   0.0000
    62 C36     15.0140   2.2964  14.3708   C.ar      1 RES1   0.0000
    63 C37     14.3115   3.4371  14.1292   C.ar      1 RES1   0.0000
    64 H19     14.6363   4.2809  14.4194   H         1 RES1   0.0000
    65 C38     13.1125   3.3357  13.4500   C.ar      1 RES1   0.0000
    66 H20     12.6148   4.1231  13.2629   H         1 RES1   0.0000
    67 F4      12.5377   2.8384   2.7243   F         1 RES1   0.0000
    68 C39     10.6824   2.3562   6.3589   C.ar      1 RES1   0.0000
    69 C40     11.2038   3.5781   5.9699   C.ar      1 RES1   0.0000
    70 H21     11.1260   4.3223   6.5578   H         1 RES1   0.0000
    71 C41     11.8298   3.7472   4.7618   C.ar      1 RES1   0.0000
    72 H22     12.1851   4.5910   4.5084   H         1 RES1   0.0000
    73 C42     11.9296   2.6704   3.9353   C.ar      1 RES1   0.0000
    74 C43     11.4405   1.4414   4.2653   C.ar      1 RES1   0.0000
    75 H23     11.5276   0.7047   3.6715   H         1 RES1   0.0000
    76 C44     10.8175   1.2948   5.4822   C.ar      1 RES1   0.0000
    77 H24     10.4717   0.4435   5.7283   H         1 RES1   0.0000
    78 N5       8.0622   0.3698  10.6049   N.2       1 RES1   0.0000
    79 O1       7.1678  -0.3821  10.2711   O.2       1 RES1   0.0000
    80 N6       8.4204   4.2262  10.6670   N.2       1 RES1   0.0000
    81 N7       8.0276   6.3857  10.4578   N.pl3     1 RES1   0.0000
    82 C45      7.5440   5.1422  10.3015   C.2       1 RES1   0.0000
    83 H25      6.6760   4.9462   9.9685   H         1 RES1   0.0000
    84 C46      9.2772   6.2600  10.9571   C.2       1 RES1   0.0000
    85 H26      9.8729   6.9664  11.1825   H         1 RES1   0.0000
    86 C47      9.5186   4.9321  11.0735   C.2       1 RES1   0.0000
    87 H27     10.3279   4.5497  11.3918   H         1 RES1   0.0000
    88 C48      7.3491   7.6444  10.1763   C.3       1 RES1   0.0000
    89 H28      6.8536   7.5677   9.3350   H         1 RES1   0.0000
    90 H29      8.0125   8.3627  10.0997   H         1 RES1   0.0000
    91 H30      6.7277   7.8496  10.9056   H         1 RES1   0.0000
@<TRIPOS>BOND
     1     1     2    1
     2     2    10    1
     3     3     1    1
     4     4     1    1
     5     5     1    1
     6     6    11    2
     7     7    13    2
     8     8    15    1
     9     9    10    2
    10    10    18    1
    11    11     2    1
    12    12     3    2
    13    13     3    1
    14    14     4    1
    15    15     4    1
    16    16     5    1
    17    17     5    2
    18    18    19    1
    19    20    11    1
    20    21    20    1
    21    22    12    1
    22    23    22    1
    23    24    13    1
    24    25    24    1
    25    26    14    2
    26    27    26    1
    27    28    15    2
    28    29    28    1
    29    30    16    1
    30    31    30    1
    31    32    17    1
    32    33    32    1
    33    34    40    1
    34    35     6    1
    35    36    35   ar
    36    37    36    1
    37    38    36   ar
    38    39    38    1
    39    40    38   ar
    40    41    40   ar
    41    42    41    1
    42    43    35   ar
    43    44    43    1
    44    45    51    1
    45    46     7    1
    46    47    46   ar
    47    48    47    1
    48    49    47   ar
    49    50    49    1
    50    51    49   ar
    51    52    51   ar
    52    53    52    1
    53    54    46   ar
    54    55    54    1
    55    56    62    1
    56    57     8    1
    57    58    57   ar
    58    59    58    1
    59    60    58   ar
    60    61    60    1
    61    62    60   ar
    62    63    62   ar
    63    64    63    1
    64    65    57   ar
    65    66    65    1
    66    67    73    1
    67    68     9    1
    68    69    68   ar
    69    70    69    1
    70    71    69   ar
    71    72    71    1
    72    73    71   ar
    73    74    73   ar
    74    75    74    1
    75    76    68   ar
    76    77    76    1
    77    78     1    1
    78    79    78    2
    79    80     1    1
    80    81    82    1
    81    82    80    2
    82    83    82    1
    83    84    81    1
    84    85    84    1
    85    86    80    1
    86    87    86    1
    87    88    81    1
    88    89    88    1
    89    90    88    1
    90    91    88    1
    91     6    12    1
    92     7    14    1
    93     8    16    2
    94     9    17    1
    95    18    20    2
    96    22    24    2
    97    26    28    1
    98    30    32    2
    99    41    43   ar
   100    52    54   ar
   101    63    65   ar
   102    74    76   ar
   103    84    86    2
@<TRIPOS>SUBSTRUCTURE
     1 RES1        1 GROUP             0 ****  ****    0  
@<TRIPOS>CRYSIN
   14.1567   18.7925   14.8762   90.0000   97.9490   90.0000   231     1
