@<TRIPOS>MOLECULE
NICKUG
    91   103     1     0     0
SMALL
NO_CHARGES
****
Generated from the CSD

@<TRIPOS>ATOM
     1 Fe1      3.2894   1.1418   3.5141   Fe        1 RES1   0.0000
     2 N1       3.9711   1.7544   1.7343   N.2       1 RES1   0.0000
     3 N2       2.1505  -0.2386   2.6079   N.2       1 RES1   0.0000
     4 N3       2.4832   0.6317   5.2946   N.2       1 RES1   0.0000
     5 N4       4.3357   2.6076   4.4183   N.2       1 RES1   0.0000
     6 C1       2.8565   0.1068   0.2634   C.2       1 RES1   0.0000
     7 C2       1.0350  -1.2340   4.5796   C.2       1 RES1   0.0000
     8 C3       3.6245   2.2585   6.7614   C.2       1 RES1   0.0000
     9 C4       5.4370   3.6105   2.4527   C.2       1 RES1   0.0000
    10 C5       4.8003   2.8265   1.4892   C.2       1 RES1   0.0000
    11 C6       3.6501   1.2360   0.4987   C.2       1 RES1   0.0000
    12 C7       2.1992  -0.5969   1.2770   C.2       1 RES1   0.0000
    13 C8       1.3696  -1.1893   3.2216   C.2       1 RES1   0.0000
    14 C9       1.5516  -0.3537   5.5316   C.2       1 RES1   0.0000
    15 C10      2.7379   1.2057   6.5182   C.2       1 RES1   0.0000
    16 C11      4.3892   2.8766   5.7654   C.2       1 RES1   0.0000
    17 C12      5.2288   3.4689   3.8272   C.2       1 RES1   0.0000
    18 C13      4.9544   3.0218   0.0684   C.2       1 RES1   0.0000
    19 H1       5.4547   3.7069  -0.3579   H         1 RES1   0.0000
    20 C14      4.2466   2.0363  -0.5422   C.2       1 RES1   0.0000
    21 H2       4.1609   1.9000  -1.4790   H         1 RES1   0.0000
    22 C15      1.4509  -1.8134   1.0635   C.2       1 RES1   0.0000
    23 H3       1.3429  -2.2743   0.2395   H         1 RES1   0.0000
    24 C16      0.9325  -2.1732   2.2649   C.2       1 RES1   0.0000
    25 H4       0.3852  -2.9291   2.4414   H         1 RES1   0.0000
    26 C17      1.1932  -0.3787   6.9320   C.2       1 RES1   0.0000
    27 H5       0.5614  -0.9558   7.3450   H         1 RES1   0.0000
    28 C18      1.9338   0.5814   7.5414   C.2       1 RES1   0.0000
    29 H6       1.9242   0.8007   8.4661   H         1 RES1   0.0000
    30 C19      5.3659   3.9049   6.0263   C.2       1 RES1   0.0000
    31 H7       5.5942   4.2646   6.8757   H         1 RES1   0.0000
    32 C20      5.8966   4.2603   4.8278   C.2       1 RES1   0.0000
    33 H8       6.5772   4.9059   4.6780   H         1 RES1   0.0000
    34 F1       2.2718  -1.6685  -5.0268   F         1 RES1   0.0000
    35 C21      2.7010  -0.3646  -1.1419   C.ar      1 RES1   0.0000
    36 C22      3.8222  -0.6689  -1.9190   C.ar      1 RES1   0.0000
    37 H9       4.6897  -0.5813  -1.5417   H         1 RES1   0.0000
    38 C23      3.6907  -1.0984  -3.2388   C.ar      1 RES1   0.0000
    39 H10      4.4550  -1.2861  -3.7714   H         1 RES1   0.0000
    40 C24      2.4154  -1.2419  -3.7473   C.ar      1 RES1   0.0000
    41 C25      1.2809  -0.9593  -3.0180   C.ar      1 RES1   0.0000
    42 H11      0.4172  -1.0699  -3.3982   H         1 RES1   0.0000
    43 C26      1.4312  -0.5083  -1.7124   C.ar      1 RES1   0.0000
    44 H12      0.6610  -0.2940  -1.1991   H         1 RES1   0.0000
    45 F2      -2.4973  -5.2359   6.3186   F         1 RES1   0.0000
    46 C27      0.0977  -2.3055   5.0305   C.ar      1 RES1   0.0000
    47 C28      0.5316  -3.3003   5.9078   C.ar      1 RES1   0.0000
    48 H13      1.4303  -3.2921   6.2170   H         1 RES1   0.0000
    49 C29     -0.3349  -4.3072   6.3370   C.ar      1 RES1   0.0000
    50 H14     -0.0383  -4.9884   6.9286   H         1 RES1   0.0000
    51 C30     -1.6297  -4.2816   5.8771   C.ar      1 RES1   0.0000
    52 C31     -2.1020  -3.3272   5.0028   C.ar      1 RES1   0.0000
    53 H15     -3.0014  -3.3467   4.6989   H         1 RES1   0.0000
    54 C32     -1.2267  -2.3339   4.5779   C.ar      1 RES1   0.0000
    55 H16     -1.5311  -1.6671   3.9733   H         1 RES1   0.0000
    56 F3       3.8708   4.1541  12.0424   F         1 RES1   0.0000
    57 C33      3.7362   2.7755   8.1609   C.ar      1 RES1   0.0000
    58 C34      3.2650   4.0528   8.4795   C.ar      1 RES1   0.0000
    59 H17      2.8938   4.5966   7.7949   H         1 RES1   0.0000
    60 C35      3.3311   4.5413   9.7815   C.ar      1 RES1   0.0000
    61 H18      3.0256   5.4158   9.9925   H         1 RES1   0.0000
    62 C36      3.8532   3.7160  10.7584   C.ar      1 RES1   0.0000
    63 C37      4.3338   2.4530  10.4906   C.ar      1 RES1   0.0000
    64 H19      4.6958   1.9119  11.1833   H         1 RES1   0.0000
    65 C38      4.2762   1.9879   9.1781   C.ar      1 RES1   0.0000
    66 H20      4.6100   1.1226   8.9731   H         1 RES1   0.0000
    67 F4       9.1831   7.3909   0.6611   F         1 RES1   0.0000
    68 C39      6.4256   4.6279   1.9822   C.ar      1 RES1   0.0000
    69 C40      6.2150   5.9938   2.1860   C.ar      1 RES1   0.0000
    70 H21      5.4287   6.2866   2.6322   H         1 RES1   0.0000
    71 C41      7.1458   6.9334   1.7425   C.ar      1 RES1   0.0000
    72 H22      7.0063   7.8627   1.8843   H         1 RES1   0.0000
    73 C42      8.2683   6.4798   1.0952   C.ar      1 RES1   0.0000
    74 C43      8.5152   5.1457   0.8565   C.ar      1 RES1   0.0000
    75 H23      9.2976   4.8666   0.3955   H         1 RES1   0.0000
    76 C44      7.5817   4.2179   1.3133   C.ar      1 RES1   0.0000
    77 H24      7.7335   3.2921   1.1671   H         1 RES1   0.0000
    78 N5       4.5767  -0.0446   3.5864   N.2       1 RES1   0.0000
    79 O1       5.0711  -0.8608   2.8893   O.2       1 RES1   0.0000
    80 N6       1.7136   2.6132   3.2773   N.2       1 RES1   0.0000
    81 N7       0.1633   4.1241   3.7140   N.pl3     1 RES1   0.0000
    82 C45      1.0013   3.2000   4.2283   C.2       1 RES1   0.0000
    83 H25      1.0718   2.9968   5.1529   H         1 RES1   0.0000
    84 C46      0.3547   4.1362   2.3587   C.2       1 RES1   0.0000
    85 H26     -0.0905   4.6873   1.7255   H         1 RES1   0.0000
    86 C47      1.3091   3.2035   2.0967   C.2       1 RES1   0.0000
    87 H27      1.6457   2.9911   1.2339   H         1 RES1   0.0000
    88 C48     -0.7470   4.9968   4.4436   C.3       1 RES1   0.0000
    89 H28     -0.7850   4.7174   5.3827   H         1 RES1   0.0000
    90 H29     -1.6426   4.9390   4.0485   H         1 RES1   0.0000
    91 H30     -0.4268   5.9218   4.3911   H         1 RES1   0.0000
@<TRIPOS>BOND
     1     1     2    1
     2     2    10    1
     3     3     1    1
     4     4     1    1
     5     5     1    1
     6     6    11    2
     7     7    13    2
     8     8    15    1
     9     9    10    2
    10    10    18    1
    11    11     2    1
    12    12     3    2
    13    13     3    1
    14    14     4    1
    15    15     4    1
    16    16     5    1
    17    17     5    2
    18    18    19    1
    19    20    11    1
    20    21    20    1
    21    22    12    1
    22    23    22    1
    23    24    13    1
    24    25    24    1
    25    26    14    2
    26    27    26    1
    27    28    15    2
    28    29    28    1
    29    30    16    1
    30    31    30    1
    31    32    17    1
    32    33    32    1
    33    34    40    1
    34    35     6    1
    35    36    35   ar
    36    37    36    1
    37    38    36   ar
    38    39    38    1
    39    40    38   ar
    40    41    40   ar
    41    42    41    1
    42    43    35   ar
    43    44    43    1
    44    45    51    1
    45    46     7    1
    46    47    46   ar
    47    48    47    1
    48    49    47   ar
    49    50    49    1
    50    51    49   ar
    51    52    51   ar
    52    53    52    1
    53    54    46   ar
    54    55    54    1
    55    56    62    1
    56    57     8    1
    57    58    57   ar
    58    59    58    1
    59    60    58   ar
    60    61    60    1
    61    62    60   ar
    62    63    62   ar
    63    64    63    1
    64    65    57   ar
    65    66    65    1
    66    67    73    1
    67    68     9    1
    68    69    68   ar
    69    70    69    1
    70    71    69   ar
    71    72    71    1
    72    73    71   ar
    73    74    73   ar
    74    75    74    1
    75    76    68   ar
    76    77    76    1
    77    78     1    1
    78    79    78    2
    79    80     1    1
    80    81    82    1
    81    82    80    2
    82    83    82    1
    83    84    81    1
    84    85    84    1
    85    86    80    1
    86    87    86    1
    87    88    81    1
    88    89    88    1
    89    90    88    1
    90    91    88    1
    91     6    12    1
    92     7    14    1
    93     8    16    2
    94     9    17    1
    95    18    20    2
    96    22    24    2
    97    26    28    1
    98    30    32    2
    99    41    43   ar
   100    52    54   ar
   101    63    65   ar
   102    74    76   ar
   103    84    86    2
@<TRIPOS>SUBSTRUCTURE
     1 RES1        1 GROUP             0 ****  ****    0  
@<TRIPOS>CRYSIN
   11.4205   12.1603   14.3296   92.7890  102.6510   99.5850     2     1
