@<TRIPOS>MOLECULE
NICKUG06
    91   103     1     0     0
SMALL
NO_CHARGES
****
Generated from the CSD

@<TRIPOS>ATOM
     1 Fe1      3.3268   1.1378   3.4963   Fe        1 RES1   0.0000
     2 N1       3.9990   1.7510   1.7141   N.2       1 RES1   0.0000
     3 N2       2.1991  -0.2487   2.5964   N.2       1 RES1   0.0000
     4 N3       2.5235   0.6261   5.2787   N.2       1 RES1   0.0000
     5 N4       4.3591   2.6139   4.3939   N.2       1 RES1   0.0000
     6 C1       2.8859   0.1061   0.2542   C.2       1 RES1   0.0000
     7 C2       1.1078  -1.2573   4.5733   C.2       1 RES1   0.0000
     8 C3       3.6558   2.2611   6.7346   C.2       1 RES1   0.0000
     9 C4       5.4574   3.6137   2.4293   C.2       1 RES1   0.0000
    10 C5       4.8289   2.8270   1.4677   C.2       1 RES1   0.0000
    11 C6       3.6790   1.2364   0.4819   C.2       1 RES1   0.0000
    12 C7       2.2342  -0.6015   1.2671   C.2       1 RES1   0.0000
    13 C8       1.4322  -1.2120   3.2121   C.2       1 RES1   0.0000
    14 C9       1.6089  -0.3700   5.5208   C.2       1 RES1   0.0000
    15 C10      2.7824   1.2050   6.4983   C.2       1 RES1   0.0000
    16 C11      4.4193   2.8864   5.7429   C.2       1 RES1   0.0000
    17 C12      5.2478   3.4776   3.8025   C.2       1 RES1   0.0000
    18 C13      4.9829   3.0094   0.0496   C.2       1 RES1   0.0000
    19 H1       5.4862   3.6904  -0.3808   H         1 RES1   0.0000
    20 C14      4.2797   2.0344  -0.5523   C.2       1 RES1   0.0000
    21 H2       4.1962   1.8981  -1.4885   H         1 RES1   0.0000
    22 C15      1.4962  -1.8195   1.0574   C.2       1 RES1   0.0000
    23 H3       1.3832  -2.2767   0.2321   H         1 RES1   0.0000
    24 C16      0.9964  -2.1876   2.2555   C.2       1 RES1   0.0000
    25 H4       0.4573  -2.9494   2.4323   H         1 RES1   0.0000
    26 C17      1.2566  -0.3895   6.9161   C.2       1 RES1   0.0000
    27 H5       0.6333  -0.9729   7.3329   H         1 RES1   0.0000
    28 C18      1.9760   0.5770   7.5187   C.2       1 RES1   0.0000
    29 H6       1.9572   0.8038   8.4406   H         1 RES1   0.0000
    30 C19      5.3880   3.9138   5.9916   C.2       1 RES1   0.0000
    31 H7       5.6201   4.2762   6.8381   H         1 RES1   0.0000
    32 C20      5.9077   4.2691   4.8004   C.2       1 RES1   0.0000
    33 H8       6.5827   4.9201   4.6505   H         1 RES1   0.0000
    34 F1       2.2489  -1.6363  -5.0355   F         1 RES1   0.0000
    35 C21      2.7171  -0.3632  -1.1571   C.ar      1 RES1   0.0000
    36 C22      3.8199  -0.6841  -1.9332   C.ar      1 RES1   0.0000
    37 H9       4.6904  -0.6153  -1.5594   H         1 RES1   0.0000
    38 C23      3.6738  -1.1058  -3.2467   C.ar      1 RES1   0.0000
    39 H10      4.4323  -1.3145  -3.7804   H         1 RES1   0.0000
    40 C24      2.4070  -1.2134  -3.7525   C.ar      1 RES1   0.0000
    41 C25      1.2876  -0.9129  -3.0204   C.ar      1 RES1   0.0000
    42 H11      0.4203  -1.0056  -3.3968   H         1 RES1   0.0000
    43 C26      1.4524  -0.4750  -1.7261   C.ar      1 RES1   0.0000
    44 H12      0.6874  -0.2441  -1.2120   H         1 RES1   0.0000
    45 F2      -2.3430  -5.3329   6.3126   F         1 RES1   0.0000
    46 C27      0.1869  -2.3481   5.0314   C.ar      1 RES1   0.0000
    47 C28      0.6398  -3.3429   5.8829   C.ar      1 RES1   0.0000
    48 H13      1.5405  -3.3254   6.1835   H         1 RES1   0.0000
    49 C29     -0.2059  -4.3692   6.3062   C.ar      1 RES1   0.0000
    50 H14      0.1091  -5.0581   6.8784   H         1 RES1   0.0000
    51 C30     -1.4927  -4.3507   5.8738   C.ar      1 RES1   0.0000
    52 C31     -1.9878  -3.4012   5.0303   C.ar      1 RES1   0.0000
    53 H15     -2.8918  -3.4329   4.7394   H         1 RES1   0.0000
    54 C32     -1.1401  -2.3871   4.6074   C.ar      1 RES1   0.0000
    55 H16     -1.4682  -1.7128   4.0236   H         1 RES1   0.0000
    56 F3       3.9683   4.1740  12.0012   F         1 RES1   0.0000
    57 C33      3.7748   2.7833   8.1365   C.ar      1 RES1   0.0000
    58 C34      3.3044   4.0472   8.4601   C.ar      1 RES1   0.0000
    59 H17      2.9168   4.5867   7.7804   H         1 RES1   0.0000
    60 C35      3.3890   4.5432   9.7521   C.ar      1 RES1   0.0000
    61 H18      3.0847   5.4171   9.9639   H         1 RES1   0.0000
    62 C36      3.9279   3.7237  10.7175   C.ar      1 RES1   0.0000
    63 C37      4.4085   2.4719  10.4468   C.ar      1 RES1   0.0000
    64 H19      4.7856   1.9352  11.1342   H         1 RES1   0.0000
    65 C38      4.3304   2.0045   9.1447   C.ar      1 RES1   0.0000
    66 H20      4.6620   1.1386   8.9382   H         1 RES1   0.0000
    67 F4       9.1937   7.4204   0.6764   F         1 RES1   0.0000
    68 C39      6.4436   4.6444   1.9550   C.ar      1 RES1   0.0000
    69 C40      6.2187   5.9934   2.1355   C.ar      1 RES1   0.0000
    70 H21      5.4205   6.2816   2.5629   H         1 RES1   0.0000
    71 C41      7.1440   6.9424   1.7006   C.ar      1 RES1   0.0000
    72 H22      6.9867   7.8726   1.8221   H         1 RES1   0.0000
    73 C42      8.2764   6.4954   1.0966   C.ar      1 RES1   0.0000
    74 C43      8.5424   5.1796   0.8810   C.ar      1 RES1   0.0000
    75 H23      9.3386   4.9071   0.4406   H         1 RES1   0.0000
    76 C44      7.6153   4.2445   1.3229   C.ar      1 RES1   0.0000
    77 H24      7.7846   3.3188   1.1911   H         1 RES1   0.0000
    78 N5       4.6197  -0.0282   3.5763   N.2       1 RES1   0.0000
    79 O1       5.1225  -0.8496   2.8901   O.2       1 RES1   0.0000
    80 N6       1.7316   2.5936   3.2603   N.2       1 RES1   0.0000
    81 N7       0.1696   4.0936   3.6961   N.pl3     1 RES1   0.0000
    82 C45      1.0199   3.1773   4.1977   C.2       1 RES1   0.0000
    83 H25      1.0963   2.9772   5.1230   H         1 RES1   0.0000
    84 C46      0.3600   4.1001   2.3391   C.2       1 RES1   0.0000
    85 H26     -0.0927   4.6428   1.7040   H         1 RES1   0.0000
    86 C47      1.3160   3.1843   2.0834   C.2       1 RES1   0.0000
    87 H27      1.6549   2.9764   1.2203   H         1 RES1   0.0000
    88 C48     -0.7551   4.9557   4.4156   C.3       1 RES1   0.0000
    89 H28     -0.7600   4.7088   5.3649   H         1 RES1   0.0000
    90 H29     -1.6559   4.8479   4.0459   H         1 RES1   0.0000
    91 H30     -0.4723   5.8883   4.3225   H         1 RES1   0.0000
@<TRIPOS>BOND
     1     1     2    1
     2     2    10    1
     3     3     1    1
     4     4     1    1
     5     5     1    1
     6     6    11    2
     7     7    13    2
     8     8    15    1
     9     9    10    2
    10    10    18    1
    11    11     2    1
    12    12     3    2
    13    13     3    1
    14    14     4    1
    15    15     4    1
    16    16     5    1
    17    17     5    2
    18    18    19    1
    19    20    11    1
    20    21    20    1
    21    22    12    1
    22    23    22    1
    23    24    13    1
    24    25    24    1
    25    26    14    2
    26    27    26    1
    27    28    15    2
    28    29    28    1
    29    30    16    1
    30    31    30    1
    31    32    17    1
    32    33    32    1
    33    34    40    1
    34    35     6    1
    35    36    35   ar
    36    37    36    1
    37    38    36   ar
    38    39    38    1
    39    40    38   ar
    40    41    40   ar
    41    42    41    1
    42    43    35   ar
    43    44    43    1
    44    45    51    1
    45    46     7    1
    46    47    46   ar
    47    48    47    1
    48    49    47   ar
    49    50    49    1
    50    51    49   ar
    51    52    51   ar
    52    53    52    1
    53    54    46   ar
    54    55    54    1
    55    56    62    1
    56    57     8    1
    57    58    57   ar
    58    59    58    1
    59    60    58   ar
    60    61    60    1
    61    62    60   ar
    62    63    62   ar
    63    64    63    1
    64    65    57   ar
    65    66    65    1
    66    67    73    1
    67    68     9    1
    68    69    68   ar
    69    70    69    1
    70    71    69   ar
    71    72    71    1
    72    73    71   ar
    73    74    73   ar
    74    75    74    1
    75    76    68   ar
    76    77    76    1
    77    78     1    1
    78    79    78    2
    79    80     1    1
    80    81    82    1
    81    82    80    2
    82    83    82    1
    83    84    81    1
    84    85    84    1
    85    86    80    1
    86    87    86    1
    87    88    81    1
    88    89    88    1
    89    90    88    1
    90    91    88    1
    91     6    12    1
    92     7    14    1
    93     8    16    2
    94     9    17    1
    95    18    20    2
    96    22    24    2
    97    26    28    1
    98    30    32    2
    99    41    43   ar
   100    52    54   ar
   101    63    65   ar
   102    74    76   ar
   103    84    86    2
@<TRIPOS>SUBSTRUCTURE
     1 RES1        1 GROUP             0 ****  ****    0  
@<TRIPOS>CRYSIN
   11.5060   12.2372   14.2842   92.8100  102.3300  100.0210     2     1
