@<TRIPOS>MOLECULE
NICKIX07
    92    99     5     0     0
SMALL
USER_CHARGES
****
Generated from the CSD

@<TRIPOS>ATOM
     1 Fe1      2.9430   4.9234   7.5937   Fe        1 RES1   2.0000
     2 N1       2.5484   3.7862   9.1663   N.2       1 RES1   0.0000
     3 N2       1.6078   6.2942   7.8092   N.ar      1 RES1   0.0000
     4 N3       3.9322   6.2305   8.6815   N.2       1 RES1   0.0000
     5 N4       4.3217   3.5882   7.4256   N.ar      1 RES1   0.0000
     6 N5       1.6882   3.7711  10.1999   N.pl3     1 RES1   0.0000
     7 H1       1.0406   4.3559  10.3176   H         1 RES1   0.0000
     8 N6       3.8675   5.5451   5.9677   N.2       1 RES1   0.0000
     9 N7       5.1488   6.3469   9.2402   N.pl3     1 RES1   0.0000
    10 H2       5.7910   5.7495   9.1658   H         1 RES1   0.0000
    11 N8       1.4367   4.1444   6.5767   N.2       1 RES1   0.0000
    12 N9       3.7815   6.5731   5.1055   N.pl3     1 RES1   0.0000
    13 H3       3.1462   7.1825   5.1180   H         1 RES1   0.0000
    14 N10      1.1803   3.0258   5.8822   N.pl3     1 RES1   0.0000
    15 H4       1.7626   2.3805   5.7472   H         1 RES1   0.0000
    16 C1       5.2410   3.6994   6.4447   C.ar      1 RES1   0.0000
    17 C2       1.9046   7.4048   8.5116   C.ar      1 RES1   0.0000
    18 C3       0.2895   4.8550   6.5594   C.2       1 RES1   0.0000
    19 C4       4.9682   4.8591   5.6092   C.2       1 RES1   0.0000
    20 C5       4.4084   2.5994   8.3416   C.ar      1 RES1   0.0000
    21 C6       3.2638   7.3499   9.0234   C.2       1 RES1   0.0000
    22 C7       0.3822   6.1277   7.2621   C.ar      1 RES1   0.0000
    23 C8       3.3615   2.7326   9.3526   C.2       1 RES1   0.0000
    24 C9       5.4163   1.6488   8.2781   C.ar      1 RES1   0.0000
    25 H5       5.4708   0.9491   8.9179   H         1 RES1   0.0000
    26 C10      6.2810   2.7836   6.3325   C.ar      1 RES1   0.0000
    27 H6       6.9301   2.8662   5.6440   H         1 RES1   0.0000
    28 C11      5.2526   7.4978   9.9281   C.2       1 RES1   0.0000
    29 H7       6.0182   7.7901  10.4092   H         1 RES1   0.0000
    30 C12      6.3458   1.7526   7.2475   C.ar      1 RES1   0.0000
    31 H8       7.0356   1.1036   7.1736   H         1 RES1   0.0000
    32 C13      0.9714   8.4116   8.6922   C.ar      1 RES1   0.0000
    33 H9       1.1851   9.1923   9.1891   H         1 RES1   0.0000
    34 C14     -0.5988   7.1029   7.4117   C.ar      1 RES1   0.0000
    35 H10     -1.4617   6.9869   7.0321   H         1 RES1   0.0000
    36 C15      4.0639   8.1776   9.8170   C.2       1 RES1   0.0000
    37 H11      3.8371   9.0189  10.1944   H         1 RES1   0.0000
    38 C16     -0.6941   4.1746   5.8377   C.2       1 RES1   0.0000
    39 H12     -1.5882   4.4503   5.6739   H         1 RES1   0.0000
    40 C17     -0.2883   8.2447   8.1243   C.ar      1 RES1   0.0000
    41 H13     -0.9437   8.9246   8.2288   H         1 RES1   0.0000
    42 C18      4.7981   6.5467   4.2183   C.2       1 RES1   0.0000
    43 H14      4.9411   7.1688   3.5135   H         1 RES1   0.0000
    44 C19      5.5830   5.4714   4.5100   C.2       1 RES1   0.0000
    45 H15      6.3759   5.1968   4.0645   H         1 RES1   0.0000
    46 C20     -0.0846   3.0187   5.4176   C.2       1 RES1   0.0000
    47 H16     -0.4838   2.3358   4.8917   H         1 RES1   0.0000
    48 C21      3.0179   2.0494  10.5203   C.2       1 RES1   0.0000
    49 H17      3.4317   1.2752  10.8835   H         1 RES1   0.0000
    50 C22      1.9457   2.7464  11.0300   C.2       1 RES1   0.0000
    51 H18      1.4729   2.5401  11.8272   H         1 RES1   0.0000
    52 S1       1.5185   6.8069  12.0105   S.3       2 RES2   0.0000
    53 S2       1.7610   8.6937  12.6922   S.3       2 RES2   0.0000
    54 N11     -0.3918   5.6407  10.7261   N.ar      2 RES2   0.0000
    55 N12      1.4821   9.8307  14.9798   N.ar      2 RES2   0.0000
    56 C23      1.3692   8.6182  14.4357   C.ar      2 RES2   0.0000
    57 C24      1.0269   7.4741  15.1142   C.ar      2 RES2   0.0000
    58 H19      0.9745   6.6333  14.6750   H         2 RES2   0.0000
    59 C25     -1.1714   7.6147  11.8394   C.ar      2 RES2   0.0000
    60 H20     -0.9751   8.3771  12.3715   H         2 RES2   0.0000
    61 C26     -0.1860   6.7082  11.4902   C.ar      2 RES2   0.0000
    62 C27     -1.6462   5.4292  10.2956   C.ar      2 RES2   0.0000
    63 H21     -1.8155   4.6665   9.7550   H         2 RES2   0.0000
    64 C28      0.7625   7.5996  16.4671   C.ar      2 RES2   0.0000
    65 H22      0.5316   6.8359  16.9835   H         2 RES2   0.0000
    66 C29     -2.6933   6.2609  10.5972   C.ar      2 RES2   0.0000
    67 H23     -3.5689   6.0790  10.2727   H         2 RES2   0.0000
    68 C30      0.8377   8.8422  17.0571   C.ar      2 RES2   0.0000
    69 H24      0.6399   8.9520  17.9805   H         2 RES2   0.0000
    70 C31     -2.4470   7.3679  11.3862   C.ar      2 RES2   0.0000
    71 H25     -3.1550   7.9566  11.6142   H         2 RES2   0.0000
    72 C32      1.2022   9.9200  16.2895   C.ar      2 RES2   0.0000
    73 H26      1.2591  10.7712  16.7056   H         2 RES2   0.0000
    74 F1       8.0645   5.7984   6.6158   F         3 RES3   0.0000
    75 F2      10.2329   6.2341   6.1832   F         3 RES3   0.0000
    76 F3       9.2744   4.4180   5.3199   F         3 RES3   0.0000
    77 F4       9.6256   4.4889   7.5254   F         3 RES3   0.0000
    78 B1       9.3211   5.2415   6.4079   B         3 RES3  -1.0000
    79 F5       1.6458   8.4510   5.0085   F         4 RES4   0.0000
    80 F6       2.9279   8.8219   3.2223   F         4 RES4   0.0000
    81 F7       1.3944  10.3290   3.7674   F         4 RES4   0.0000
    82 F8       0.6915   8.3805   3.0104   F         4 RES4   0.0000
    83 B2       1.6617   8.9834   3.7329   B         4 RES4  -1.0000
    84 O1       7.1586   4.5556   9.1126   O.3       5 RES5   0.0000
    85 H27      7.8041   4.6923   8.5933   H         5 RES5   0.0000
    86 C33      6.5758   3.8496  11.2730   C.3       5 RES5   0.0000
    87 H28      5.7487   3.5149  10.8652   H         5 RES5   0.0000
    88 H29      6.4192   4.7437  11.6425   H         5 RES5   0.0000
    89 H30      6.8539   3.2437  11.9903   H         5 RES5   0.0000
    90 C34      7.6166   3.9182  10.2660   C.3       5 RES5   0.0000
    91 H31      8.3924   4.4142  10.6305   H         5 RES5   0.0000
    92 H32      7.9167   3.0035  10.0397   H         5 RES5   0.0000
@<TRIPOS>BOND
     1     1     2    1
     2     2     6    1
     3     3     1    1
     4     4     1    1
     5     5     1    1
     6     6     7    1
     7     8     1    1
     8     9     4    1
     9    10     9    1
    10    11     1    1
    11    12     8    1
    12    13    12    1
    13    14    11    1
    14    15    14    1
    15    16     5   ar
    16    17     3   ar
    17    18    11    2
    18    19     8    2
    19    20     5   ar
    20    21     4    2
    21    22     3   ar
    22    23     2    2
    23    24    20   ar
    24    25    24    1
    25    26    16   ar
    26    27    26    1
    27    28     9    1
    28    29    28    1
    29    30    24   ar
    30    31    30    1
    31    32    17   ar
    32    33    32    1
    33    34    22   ar
    34    35    34    1
    35    36    21    1
    36    37    36    1
    37    38    18    1
    38    39    38    1
    39    40    32   ar
    40    41    40    1
    41    42    12    1
    42    43    42    1
    43    44    19    1
    44    45    44    1
    45    46    14    1
    46    47    46    1
    47    48    23    1
    48    49    48    1
    49    50     6    1
    50    51    50    1
    51    16    19    1
    52    17    21    1
    53    18    22    1
    54    20    23    1
    55    26    30   ar
    56    28    36    2
    57    34    40   ar
    58    38    46    2
    59    42    44    2
    60    48    50    2
    61    52    53    1
    62    53    56    1
    63    54    61   ar
    64    55    56   ar
    65    56    57   ar
    66    57    58    1
    67    59    60    1
    68    61    52    1
    69    62    54   ar
    70    63    62    1
    71    64    57   ar
    72    65    64    1
    73    66    62   ar
    74    67    66    1
    75    68    64   ar
    76    69    68    1
    77    70    59   ar
    78    71    70    1
    79    72    55   ar
    80    73    72    1
    81    59    61   ar
    82    66    70   ar
    83    68    72   ar
    84    74    78    1
    85    75    78    1
    86    76    78    1
    87    77    78    1
    88    79    83    1
    89    80    83    1
    90    81    83    1
    91    82    83    1
    92    84    85    1
    93    86    87    1
    94    88    86    1
    95    89    86    1
    96    90    84    1
    97    91    90    1
    98    92    90    1
    99    86    90    1
@<TRIPOS>SUBSTRUCTURE
     1 RES1        1 GROUP             0 ****  ****    0  
     2 RES2       52 GROUP             0 ****  ****    0  
     3 RES3       74 GROUP             0 ****  ****    0  
     4 RES4       79 GROUP             0 ****  ****    0  
     5 RES5       84 GROUP             0 ****  ****    0  
@<TRIPOS>CRYSIN
   13.8140   17.1626   17.1630   90.0000  104.1263   90.0000   231     1
