@<TRIPOS>MOLECULE
NICKIX05
    92    99     5     0     0
SMALL
USER_CHARGES
****
Generated from the CSD

@<TRIPOS>ATOM
     1 Fe1      2.9458   4.9273   7.5997   Fe        1 RES1   2.0000
     2 N1       2.5531   3.7919   9.1725   N.2       1 RES1   0.0000
     3 N2       1.6097   6.2993   7.8151   N.ar      1 RES1   0.0000
     4 N3       3.9350   6.2382   8.6892   N.2       1 RES1   0.0000
     5 N4       4.3251   3.5882   7.4333   N.ar      1 RES1   0.0000
     6 N5       1.6922   3.7771  10.2072   N.pl3     1 RES1   0.0000
     7 H1       1.0449   4.3622  10.3254   H         1 RES1   0.0000
     8 N6       3.8698   5.5464   5.9727   N.2       1 RES1   0.0000
     9 N7       5.1487   6.3541   9.2506   N.pl3     1 RES1   0.0000
    10 H2       5.7920   5.7568   9.1778   H         1 RES1   0.0000
    11 N8       1.4407   4.1443   6.5815   N.2       1 RES1   0.0000
    12 N9       3.7851   6.5763   5.1086   N.pl3     1 RES1   0.0000
    13 H3       3.1500   7.1857   5.1202   H         1 RES1   0.0000
    14 N10      1.1867   3.0307   5.8869   N.pl3     1 RES1   0.0000
    15 H4       1.7695   2.3872   5.7499   H         1 RES1   0.0000
    16 C1       5.2467   3.7024   6.4516   C.ar      1 RES1   0.0000
    17 C2       1.9052   7.4098   8.5164   C.ar      1 RES1   0.0000
    18 C3       0.2942   4.8582   6.5642   C.2       1 RES1   0.0000
    19 C4       4.9697   4.8615   5.6166   C.2       1 RES1   0.0000
    20 C5       4.4113   2.6041   8.3510   C.ar      1 RES1   0.0000
    21 C6       3.2652   7.3567   9.0294   C.2       1 RES1   0.0000
    22 C7       0.3877   6.1319   7.2659   C.ar      1 RES1   0.0000
    23 C8       3.3658   2.7396   9.3595   C.2       1 RES1   0.0000
    24 C9       5.4161   1.6516   8.2853   C.ar      1 RES1   0.0000
    25 H5       5.4677   0.9497   8.9229   H         1 RES1   0.0000
    26 C10      6.2822   2.7891   6.3402   C.ar      1 RES1   0.0000
    27 H6       6.9312   2.8715   5.6516   H         1 RES1   0.0000
    28 C11      5.2486   7.5027   9.9362   C.2       1 RES1   0.0000
    29 H7       6.0137   7.7971  10.4170   H         1 RES1   0.0000
    30 C12      6.3473   1.7564   7.2548   C.ar      1 RES1   0.0000
    31 H8       7.0371   1.1077   7.1807   H         1 RES1   0.0000
    32 C13      0.9734   8.4160   8.6929   C.ar      1 RES1   0.0000
    33 H9       1.1869   9.2002   9.1844   H         1 RES1   0.0000
    34 C14     -0.5971   7.1034   7.4130   C.ar      1 RES1   0.0000
    35 H10     -1.4592   6.9865   7.0324   H         1 RES1   0.0000
    36 C15      4.0601   8.1837   9.8249   C.2       1 RES1   0.0000
    37 H11      3.8306   9.0250  10.2038   H         1 RES1   0.0000
    38 C16     -0.6855   4.1773   5.8373   C.2       1 RES1   0.0000
    39 H12     -1.5771   4.4550   5.6666   H         1 RES1   0.0000
    40 C17     -0.2864   8.2455   8.1289   C.ar      1 RES1   0.0000
    41 H13     -0.9425   8.9237   8.2367   H         1 RES1   0.0000
    42 C18      4.8011   6.5518   4.2229   C.2       1 RES1   0.0000
    43 H14      4.9464   7.1754   3.5195   H         1 RES1   0.0000
    44 C19      5.5861   5.4744   4.5144   C.2       1 RES1   0.0000
    45 H15      6.3789   5.1986   4.0675   H         1 RES1   0.0000
    46 C20     -0.0802   3.0230   5.4247   C.2       1 RES1   0.0000
    47 H16     -0.4810   2.3374   4.9037   H         1 RES1   0.0000
    48 C21      3.0255   2.0583  10.5301   C.2       1 RES1   0.0000
    49 H17      3.4433   1.2881  10.8967   H         1 RES1   0.0000
    50 C22      1.9515   2.7523  11.0348   C.2       1 RES1   0.0000
    51 H18      1.4764   2.5435  11.8295   H         1 RES1   0.0000
    52 S1       1.5205   6.8121  12.0231   S.3       2 RES2   0.0000
    53 S2       1.7614   8.6992  12.7055   S.3       2 RES2   0.0000
    54 N11     -0.3886   5.6464  10.7348   N.ar      2 RES2   0.0000
    55 N12      1.4858   9.8353  14.9936   N.ar      2 RES2   0.0000
    56 C23      1.3683   8.6237  14.4499   C.ar      2 RES2   0.0000
    57 C24      1.0215   7.4828  15.1302   C.ar      2 RES2   0.0000
    58 H19      0.9652   6.6430  14.6895   H         2 RES2   0.0000
    59 C25     -1.1651   7.6162  11.8503   C.ar      2 RES2   0.0000
    60 H20     -0.9699   8.3759  12.3875   H         2 RES2   0.0000
    61 C26     -0.1824   6.7125  11.4999   C.ar      2 RES2   0.0000
    62 C27     -1.6394   5.4305  10.3021   C.ar      2 RES2   0.0000
    63 H21     -1.8082   4.6697   9.7591   H         2 RES2   0.0000
    64 C28      0.7582   7.6030  16.4784   C.ar      2 RES2   0.0000
    65 H22      0.5287   6.8405  16.9947   H         2 RES2   0.0000
    66 C29     -2.6884   6.2669  10.6086   C.ar      2 RES2   0.0000
    67 H23     -3.5645   6.0848  10.2888   H         2 RES2   0.0000
    68 C30      0.8351   8.8516  17.0680   C.ar      2 RES2   0.0000
    69 H24      0.6374   8.9632  17.9908   H         2 RES2   0.0000
    70 C31     -2.4440   7.3729  11.3898   C.ar      2 RES2   0.0000
    71 H25     -3.1509   7.9654  11.6113   H         2 RES2   0.0000
    72 C32      1.2003   9.9233  16.3035   C.ar      2 RES2   0.0000
    73 H26      1.2549  10.7751  16.7182   H         2 RES2   0.0000
    74 F1       8.0776   5.8035   6.6255   F         3 RES3   0.0000
    75 F2      10.2433   6.2390   6.1866   F         3 RES3   0.0000
    76 F3       9.2846   4.4251   5.3256   F         3 RES3   0.0000
    77 F4       9.6360   4.4996   7.5319   F         3 RES3   0.0000
    78 B1       9.3315   5.2433   6.4078   B         3 RES3  -1.0000
    79 F5       1.6500   8.4557   5.0103   F         4 RES4   0.0000
    80 F6       2.9303   8.8301   3.2254   F         4 RES4   0.0000
    81 F7       1.3930  10.3294   3.7637   F         4 RES4   0.0000
    82 F8       0.6916   8.3862   3.0188   F         4 RES4   0.0000
    83 B2       1.6589   8.9855   3.7344   B         4 RES4  -1.0000
    84 O1       7.1613   4.5663   9.1197   O.3       5 RES5   0.0000
    85 H27      7.8107   4.7555   8.6215   H         5 RES5   0.0000
    86 C33      6.5872   3.8590  11.2798   C.3       5 RES5   0.0000
    87 H28      5.8255   3.3524  10.9284   H         5 RES5   0.0000
    88 H29      6.2982   4.7641  11.5164   H         5 RES5   0.0000
    89 H30      6.9384   3.4091  12.0760   H         5 RES5   0.0000
    90 C34      7.6269   3.9312  10.2688   C.3       5 RES5   0.0000
    91 H31      8.4013   4.4309  10.6302   H         5 RES5   0.0000
    92 H32      7.9304   3.0175  10.0406   H         5 RES5   0.0000
@<TRIPOS>BOND
     1     1     2    1
     2     2     6    1
     3     3     1    1
     4     4     1    1
     5     5     1    1
     6     6     7    1
     7     8     1    1
     8     9     4    1
     9    10     9    1
    10    11     1    1
    11    12     8    1
    12    13    12    1
    13    14    11    1
    14    15    14    1
    15    16     5   ar
    16    17     3   ar
    17    18    11    2
    18    19     8    2
    19    20     5   ar
    20    21     4    2
    21    22     3   ar
    22    23     2    2
    23    24    20   ar
    24    25    24    1
    25    26    16   ar
    26    27    26    1
    27    28     9    1
    28    29    28    1
    29    30    24   ar
    30    31    30    1
    31    32    17   ar
    32    33    32    1
    33    34    22   ar
    34    35    34    1
    35    36    21    1
    36    37    36    1
    37    38    18    1
    38    39    38    1
    39    40    32   ar
    40    41    40    1
    41    42    12    1
    42    43    42    1
    43    44    19    1
    44    45    44    1
    45    46    14    1
    46    47    46    1
    47    48    23    1
    48    49    48    1
    49    50     6    1
    50    51    50    1
    51    16    19    1
    52    17    21    1
    53    18    22    1
    54    20    23    1
    55    26    30   ar
    56    28    36    2
    57    34    40   ar
    58    38    46    2
    59    42    44    2
    60    48    50    2
    61    52    53    1
    62    53    56    1
    63    54    61   ar
    64    55    56   ar
    65    56    57   ar
    66    57    58    1
    67    59    60    1
    68    61    52    1
    69    62    54   ar
    70    63    62    1
    71    64    57   ar
    72    65    64    1
    73    66    62   ar
    74    67    66    1
    75    68    64   ar
    76    69    68    1
    77    70    59   ar
    78    71    70    1
    79    72    55   ar
    80    73    72    1
    81    59    61   ar
    82    66    70   ar
    83    68    72   ar
    84    74    78    1
    85    75    78    1
    86    76    78    1
    87    77    78    1
    88    79    83    1
    89    80    83    1
    90    81    83    1
    91    82    83    1
    92    84    85    1
    93    86    87    1
    94    88    86    1
    95    89    86    1
    96    90    84    1
    97    91    90    1
    98    92    90    1
    99    86    90    1
@<TRIPOS>SUBSTRUCTURE
     1 RES1        1 GROUP             0 ****  ****    0  
     2 RES2       52 GROUP             0 ****  ****    0  
     3 RES3       74 GROUP             0 ****  ****    0  
     4 RES4       79 GROUP             0 ****  ****    0  
     5 RES5       84 GROUP             0 ****  ****    0  
@<TRIPOS>CRYSIN
   13.8240   17.1742   17.1762   90.0000  104.1290   90.0000   231     1
