@<TRIPOS>MOLECULE
NICKIX10
    92    99     5     0     0
SMALL
USER_CHARGES
****
Generated from the CSD

@<TRIPOS>ATOM
     1 Fe1      2.9514   4.9304   7.6118   Fe        1 RES1   2.0000
     2 N1       2.5581   3.7959   9.1857   N.2       1 RES1   0.0000
     3 N2       1.6086   6.3037   7.8231   N.ar      1 RES1   0.0000
     4 N3       3.9344   6.2491   8.7061   N.2       1 RES1   0.0000
     5 N4       4.3336   3.5948   7.4493   N.ar      1 RES1   0.0000
     6 N5       1.6964   3.7771  10.2254   N.pl3     1 RES1   0.0000
     7 H1       1.0449   4.3571  10.3423   H         1 RES1   0.0000
     8 N6       3.8804   5.5483   5.9840   N.2       1 RES1   0.0000
     9 N7       5.1451   6.3699   9.2671   N.pl3     1 RES1   0.0000
    10 H2       5.7896   5.7750   9.1947   H         1 RES1   0.0000
    11 N8       1.4472   4.1486   6.5931   N.2       1 RES1   0.0000
    12 N9       3.7926   6.5784   5.1198   N.pl3     1 RES1   0.0000
    13 H3       3.1579   7.1879   5.1328   H         1 RES1   0.0000
    14 N10      1.1897   3.0333   5.8983   N.pl3     1 RES1   0.0000
    15 H4       1.7723   2.3874   5.7650   H         1 RES1   0.0000
    16 C1       5.2534   3.7031   6.4680   C.ar      1 RES1   0.0000
    17 C2       1.9034   7.4108   8.5273   C.ar      1 RES1   0.0000
    18 C3       0.2966   4.8608   6.5677   C.2       1 RES1   0.0000
    19 C4       4.9775   4.8631   5.6291   C.2       1 RES1   0.0000
    20 C5       4.4192   2.6039   8.3671   C.ar      1 RES1   0.0000
    21 C6       3.2610   7.3616   9.0430   C.2       1 RES1   0.0000
    22 C7       0.3912   6.1346   7.2768   C.ar      1 RES1   0.0000
    23 C8       3.3710   2.7466   9.3808   C.2       1 RES1   0.0000
    24 C9       5.4224   1.6517   8.3006   C.ar      1 RES1   0.0000
    25 H5       5.4731   0.9488   8.9394   H         1 RES1   0.0000
    26 C10      6.2880   2.7875   6.3589   C.ar      1 RES1   0.0000
    27 H6       6.9380   2.8703   5.6716   H         1 RES1   0.0000
    28 C11      5.2440   7.5124   9.9512   C.2       1 RES1   0.0000
    29 H7       6.0069   7.8049  10.4357   H         1 RES1   0.0000
    30 C12      6.3545   1.7549   7.2697   C.ar      1 RES1   0.0000
    31 H8       7.0430   1.1069   7.1929   H         1 RES1   0.0000
    32 C13      0.9659   8.4180   8.7016   C.ar      1 RES1   0.0000
    33 H9       1.1762   9.2005   9.1963   H         1 RES1   0.0000
    34 C14     -0.5968   7.1052   7.4180   C.ar      1 RES1   0.0000
    35 H10     -1.4572   6.9868   7.0345   H         1 RES1   0.0000
    36 C15      4.0542   8.1944   9.8352   C.2       1 RES1   0.0000
    37 H11      3.8242   9.0372  10.2089   H         1 RES1   0.0000
    38 C16     -0.6779   4.1797   5.8463   C.2       1 RES1   0.0000
    39 H12     -1.5720   4.4550   5.6783   H         1 RES1   0.0000
    40 C17     -0.2857   8.2500   8.1337   C.ar      1 RES1   0.0000
    41 H13     -0.9407   8.9307   8.2372   H         1 RES1   0.0000
    42 C18      4.8080   6.5519   4.2317   C.2       1 RES1   0.0000
    43 H14      4.9505   7.1707   3.5247   H         1 RES1   0.0000
    44 C19      5.5948   5.4760   4.5284   C.2       1 RES1   0.0000
    45 H15      6.3896   5.2010   4.0852   H         1 RES1   0.0000
    46 C20     -0.0676   3.0250   5.4314   C.2       1 RES1   0.0000
    47 H16     -0.4655   2.3410   4.9059   H         1 RES1   0.0000
    48 C21      3.0336   2.0642  10.5475   C.2       1 RES1   0.0000
    49 H17      3.4506   1.2925  10.9095   H         1 RES1   0.0000
    50 C22      1.9627   2.7569  11.0580   C.2       1 RES1   0.0000
    51 H18      1.4937   2.5506  11.8570   H         1 RES1   0.0000
    52 S1       1.5194   6.8195  12.0473   S.3       2 RES2   0.0000
    53 S2       1.7562   8.7062  12.7314   S.3       2 RES2   0.0000
    54 N11     -0.3825   5.6508  10.7505   N.ar      2 RES2   0.0000
    55 N12      1.4729   9.8382  15.0231   N.ar      2 RES2   0.0000
    56 C23      1.3607   8.6333  14.4743   C.ar      2 RES2   0.0000
    57 C24      1.0165   7.4869  15.1465   C.ar      2 RES2   0.0000
    58 H19      0.9632   6.6482  14.7045   H         2 RES2   0.0000
    59 C25     -1.1676   7.6175  11.8687   C.ar      2 RES2   0.0000
    60 H20     -0.9759   8.3790  12.4041   H         2 RES2   0.0000
    61 C26     -0.1809   6.7161  11.5212   C.ar      2 RES2   0.0000
    62 C27     -1.6325   5.4416  10.3190   C.ar      2 RES2   0.0000
    63 H21     -1.7996   4.6819   9.7735   H         2 RES2   0.0000
    64 C28      0.7521   7.6107  16.5010   C.ar      2 RES2   0.0000
    65 H22      0.5250   6.8458  17.0165   H         2 RES2   0.0000
    66 C29     -2.6812   6.2666  10.6209   C.ar      2 RES2   0.0000
    67 H23     -3.5539   6.0827  10.2973   H         2 RES2   0.0000
    68 C30      0.8201   8.8482  17.0932   C.ar      2 RES2   0.0000
    69 H24      0.6191   8.9530  18.0157   H         2 RES2   0.0000
    70 C31     -2.4362   7.3666  11.4066   C.ar      2 RES2   0.0000
    71 H25     -3.1465   7.9579  11.6301   H         2 RES2   0.0000
    72 C32      1.1853   9.9310  16.3325   C.ar      2 RES2   0.0000
    73 H26      1.2379  10.7835  16.7496   H         2 RES2   0.0000
    74 F1       8.1078   5.8077   6.6389   F         3 RES3   0.0000
    75 F2      10.2621   6.2486   6.1854   F         3 RES3   0.0000
    76 F3       9.3132   4.4335   5.3446   F         3 RES3   0.0000
    77 F4       9.6658   4.5083   7.5366   F         3 RES3   0.0000
    78 B1       9.3578   5.2560   6.4189   B         3 RES3  -1.0000
    79 F5       1.6586   8.4609   5.0105   F         4 RES4   0.0000
    80 F6       2.9321   8.8322   3.2395   F         4 RES4   0.0000
    81 F7       1.3897  10.3201   3.7633   F         4 RES4   0.0000
    82 F8       0.6942   8.3790   3.0393   F         4 RES4   0.0000
    83 B2       1.6703   8.9874   3.7383   B         4 RES4  -1.0000
    84 O1       7.1654   4.5848   9.1278   O.3       5 RES5   0.0000
    85 H27      7.8118   4.7885   8.6308   H         5 RES5   0.0000
    86 C33      6.6159   3.8861  11.2882   C.3       5 RES5   0.0000
    87 H28      5.8170   3.4650  10.9078   H         5 RES5   0.0000
    88 H29      6.3921   4.7885  11.5984   H         5 RES5   0.0000
    89 H30      6.9395   3.3516  12.0421   H         5 RES5   0.0000
    90 C34      7.6423   3.9652  10.2789   C.3       5 RES5   0.0000
    91 H31      8.4133   4.4774  10.6326   H         5 RES5   0.0000
    92 H32      7.9564   3.0542  10.0554   H         5 RES5   0.0000
@<TRIPOS>BOND
     1     1     2    1
     2     2     6    1
     3     3     1    1
     4     4     1    1
     5     5     1    1
     6     6     7    1
     7     8     1    1
     8     9     4    1
     9    10     9    1
    10    11     1    1
    11    12     8    1
    12    13    12    1
    13    14    11    1
    14    15    14    1
    15    16     5   ar
    16    17     3   ar
    17    18    11    2
    18    19     8    2
    19    20     5   ar
    20    21     4    2
    21    22     3   ar
    22    23     2    2
    23    24    20   ar
    24    25    24    1
    25    26    16   ar
    26    27    26    1
    27    28     9    1
    28    29    28    1
    29    30    24   ar
    30    31    30    1
    31    32    17   ar
    32    33    32    1
    33    34    22   ar
    34    35    34    1
    35    36    21    1
    36    37    36    1
    37    38    18    1
    38    39    38    1
    39    40    32   ar
    40    41    40    1
    41    42    12    1
    42    43    42    1
    43    44    19    1
    44    45    44    1
    45    46    14    1
    46    47    46    1
    47    48    23    1
    48    49    48    1
    49    50     6    1
    50    51    50    1
    51    16    19    1
    52    17    21    1
    53    18    22    1
    54    20    23    1
    55    26    30   ar
    56    28    36    2
    57    34    40   ar
    58    38    46    2
    59    42    44    2
    60    48    50    2
    61    52    53    1
    62    53    56    1
    63    54    61   ar
    64    55    56   ar
    65    56    57   ar
    66    57    58    1
    67    59    60    1
    68    61    52    1
    69    62    54   ar
    70    63    62    1
    71    64    57   ar
    72    65    64    1
    73    66    62   ar
    74    67    66    1
    75    68    64   ar
    76    69    68    1
    77    70    59   ar
    78    71    70    1
    79    72    55   ar
    80    73    72    1
    81    59    61   ar
    82    66    70   ar
    83    68    72   ar
    84    74    78    1
    85    75    78    1
    86    76    78    1
    87    77    78    1
    88    79    83    1
    89    80    83    1
    90    81    83    1
    91    82    83    1
    92    84    85    1
    93    86    87    1
    94    88    86    1
    95    89    86    1
    96    90    84    1
    97    91    90    1
    98    92    90    1
    99    86    90    1
@<TRIPOS>SUBSTRUCTURE
     1 RES1        1 GROUP             0 ****  ****    0  
     2 RES2       52 GROUP             0 ****  ****    0  
     3 RES3       74 GROUP             0 ****  ****    0  
     4 RES4       79 GROUP             0 ****  ****    0  
     5 RES5       84 GROUP             0 ****  ****    0  
@<TRIPOS>CRYSIN
   13.8527   17.1876   17.2045   90.0000  104.1680   90.0000   231     1
