@<TRIPOS>MOLECULE
NICKIX06
    92    99     5     0     0
SMALL
USER_CHARGES
****
Generated from the CSD

@<TRIPOS>ATOM
     1 Fe1      2.9811   4.9161   7.6258   Fe        1 RES1   2.0000
     2 N1       2.6003   3.7729   9.2169   N.2       1 RES1   0.0000
     3 N2       1.6123   6.3056   7.8276   N.ar      1 RES1   0.0000
     4 N3       3.9479   6.2802   8.7337   N.2       1 RES1   0.0000
     5 N4       4.3891   3.5717   7.4849   N.ar      1 RES1   0.0000
     6 N5       1.7306   3.7540  10.2601   N.pl3     1 RES1   0.0000
     7 H1       1.0759   4.3301  10.3721   H         1 RES1   0.0000
     8 N6       3.9373   5.5184   5.9718   N.2       1 RES1   0.0000
     9 N7       5.1450   6.4126   9.2971   N.pl3     1 RES1   0.0000
    10 H2       5.7953   5.8227   9.2353   H         1 RES1   0.0000
    11 N8       1.4486   4.1306   6.5938   N.2       1 RES1   0.0000
    12 N9       3.8453   6.5364   5.1092   N.pl3     1 RES1   0.0000
    13 H3       3.2041   7.1383   5.1075   H         1 RES1   0.0000
    14 N10      1.1979   3.0059   5.9150   N.pl3     1 RES1   0.0000
    15 H4       1.7766   2.3542   5.7946   H         1 RES1   0.0000
    16 C1       5.3066   3.6818   6.5118   C.ar      1 RES1   0.0000
    17 C2       1.8974   7.4100   8.5080   C.ar      1 RES1   0.0000
    18 C3       0.3143   4.8494   6.5687   C.2       1 RES1   0.0000
    19 C4       5.0347   4.8339   5.6642   C.2       1 RES1   0.0000
    20 C5       4.4665   2.5915   8.4211   C.ar      1 RES1   0.0000
    21 C6       3.2490   7.3876   9.0631   C.2       1 RES1   0.0000
    22 C7       0.3967   6.1306   7.2658   C.ar      1 RES1   0.0000
    23 C8       3.4314   2.7205   9.4225   C.2       1 RES1   0.0000
    24 C9       5.4720   1.6423   8.3592   C.ar      1 RES1   0.0000
    25 H5       5.5241   0.9424   8.9995   H         1 RES1   0.0000
    26 C10      6.3474   2.7686   6.4099   C.ar      1 RES1   0.0000
    27 H6       7.0011   2.8495   5.7261   H         1 RES1   0.0000
    28 C11      5.2241   7.5699   9.9742   C.2       1 RES1   0.0000
    29 H7       5.9807   7.8812  10.4557   H         1 RES1   0.0000
    30 C12      6.4071   1.7437   7.3277   C.ar      1 RES1   0.0000
    31 H8       7.0960   1.0954   7.2575   H         1 RES1   0.0000
    32 C13      0.9528   8.4177   8.6769   C.ar      1 RES1   0.0000
    33 H9       1.1606   9.2087   9.1617   H         1 RES1   0.0000
    34 C14     -0.5926   7.0901   7.4013   C.ar      1 RES1   0.0000
    35 H10     -1.4495   6.9663   7.0117   H         1 RES1   0.0000
    36 C15      4.0310   8.2268   9.8505   C.2       1 RES1   0.0000
    37 H11      3.7897   9.0694  10.2217   H         1 RES1   0.0000
    38 C16     -0.6666   4.1684   5.8481   C.2       1 RES1   0.0000
    39 H12     -1.5597   4.4453   5.6776   H         1 RES1   0.0000
    40 C17     -0.2935   8.2337   8.1202   C.ar      1 RES1   0.0000
    41 H13     -0.9594   8.9026   8.2322   H         1 RES1   0.0000
    42 C18      4.8579   6.5106   4.2565   C.2       1 RES1   0.0000
    43 H14      5.0019   7.1331   3.5543   H         1 RES1   0.0000
    44 C19      5.6543   5.4564   4.5491   C.2       1 RES1   0.0000
    45 H15      6.4525   5.1916   4.1044   H         1 RES1   0.0000
    46 C20     -0.0580   3.0111   5.4402   C.2       1 RES1   0.0000
    47 H16     -0.4574   2.3284   4.9119   H         1 RES1   0.0000
    48 C21      3.0886   2.0619  10.5978   C.2       1 RES1   0.0000
    49 H17      3.5143   1.3035  10.9790   H         1 RES1   0.0000
    50 C22      1.9989   2.7514  11.0894   C.2       1 RES1   0.0000
    51 H18      1.5212   2.5434  11.8835   H         1 RES1   0.0000
    52 S1       1.5315   6.8194  12.0759   S.3       2 RES2   0.0000
    53 S2       1.7440   8.7073  12.7724   S.3       2 RES2   0.0000
    54 N11     -0.3546   5.6319  10.7801   N.ar      2 RES2   0.0000
    55 N12      1.4618   9.8209  15.0466   N.ar      2 RES2   0.0000
    56 C23      1.3542   8.6292  14.5033   C.ar      2 RES2   0.0000
    57 C24      1.0149   7.4770  15.1820   C.ar      2 RES2   0.0000
    58 H19      0.9575   6.6413  14.7323   H         2 RES2   0.0000
    59 C25     -1.1566   7.5785  11.9086   C.ar      2 RES2   0.0000
    60 H20     -0.9841   8.3197  12.4770   H         2 RES2   0.0000
    61 C26     -0.1604   6.6912  11.5374   C.ar      2 RES2   0.0000
    62 C27     -1.6066   5.4135  10.3170   C.ar      2 RES2   0.0000
    63 H21     -1.7559   4.6688   9.7452   H         2 RES2   0.0000
    64 C28      0.7629   7.5733  16.5279   C.ar      2 RES2   0.0000
    65 H22      0.5612   6.7978  17.0395   H         2 RES2   0.0000
    66 C29     -2.6642   6.2131  10.6329   C.ar      2 RES2   0.0000
    67 H23     -3.5404   6.0067  10.3303   H         2 RES2   0.0000
    68 C30      0.8065   8.8201  17.1247   C.ar      2 RES2   0.0000
    69 H24      0.6008   8.9250  18.0476   H         2 RES2   0.0000
    70 C31     -2.4293   7.3171  11.3953   C.ar      2 RES2   0.0000
    71 H25     -3.1415   7.9190  11.5792   H         2 RES2   0.0000
    72 C32      1.1512   9.9000  16.3590   C.ar      2 RES2   0.0000
    73 H26      1.1741  10.7530  16.7736   H         2 RES2   0.0000
    74 F1       8.2176   5.8124   6.6740   F         3 RES3   0.0000
    75 F2      10.3539   6.2733   6.2226   F         3 RES3   0.0000
    76 F3       9.4249   4.4505   5.3917   F         3 RES3   0.0000
    77 F4       9.7860   4.5416   7.5517   F         3 RES3   0.0000
    78 B1       9.4827   5.2673   6.4433   B         3 RES3  -1.0000
    79 F5       1.7048   8.4435   4.9955   F         4 RES4   0.0000
    80 F6       2.9541   8.8321   3.2852   F         4 RES4   0.0000
    81 F7       1.4127  10.2749   3.7717   F         4 RES4   0.0000
    82 F8       0.6864   8.3816   3.1163   F         4 RES4   0.0000
    83 B2       1.7161   8.9714   3.7550   B         4 RES4  -1.0000
    84 O1       7.1867   4.6482   9.1400   O.3       5 RES5   0.0000
    85 H27      7.7644   5.1590   8.8039   H         5 RES5   0.0000
    86 C33      6.6835   3.9535  11.3017   C.3       5 RES5   0.0000
    87 H28      6.0493   3.2450  11.0643   H         5 RES5   0.0000
    88 H29      6.2073   4.8064  11.3769   H         5 RES5   0.0000
    89 H30      7.1067   3.7385  12.1593   H         5 RES5   0.0000
    90 C34      7.6999   4.0567  10.2752   C.3       5 RES5   0.0000
    91 H31      8.4596   4.5932  10.6129   H         5 RES5   0.0000
    92 H32      8.0389   3.1521  10.0528   H         5 RES5   0.0000
@<TRIPOS>BOND
     1     1     2    1
     2     2     6    1
     3     3     1    1
     4     4     1    1
     5     5     1    1
     6     6     7    1
     7     8     1    1
     8     9     4    1
     9    10     9    1
    10    11     1    1
    11    12     8    1
    12    13    12    1
    13    14    11    1
    14    15    14    1
    15    16     5   ar
    16    17     3   ar
    17    18    11    2
    18    19     8    2
    19    20     5   ar
    20    21     4    2
    21    22     3   ar
    22    23     2    2
    23    24    20   ar
    24    25    24    1
    25    26    16   ar
    26    27    26    1
    27    28     9    1
    28    29    28    1
    29    30    24   ar
    30    31    30    1
    31    32    17   ar
    32    33    32    1
    33    34    22   ar
    34    35    34    1
    35    36    21    1
    36    37    36    1
    37    38    18    1
    38    39    38    1
    39    40    32   ar
    40    41    40    1
    41    42    12    1
    42    43    42    1
    43    44    19    1
    44    45    44    1
    45    46    14    1
    46    47    46    1
    47    48    23    1
    48    49    48    1
    49    50     6    1
    50    51    50    1
    51    16    19    1
    52    17    21    1
    53    18    22    1
    54    20    23    1
    55    26    30   ar
    56    28    36    2
    57    34    40   ar
    58    38    46    2
    59    42    44    2
    60    48    50    2
    61    52    53    1
    62    53    56    1
    63    54    61   ar
    64    55    56   ar
    65    56    57   ar
    66    57    58    1
    67    59    60    1
    68    61    52    1
    69    62    54   ar
    70    63    62    1
    71    64    57   ar
    72    65    64    1
    73    66    62   ar
    74    67    66    1
    75    68    64   ar
    76    69    68    1
    77    70    59   ar
    78    71    70    1
    79    72    55   ar
    80    73    72    1
    81    59    61   ar
    82    66    70   ar
    83    68    72   ar
    84    74    78    1
    85    75    78    1
    86    76    78    1
    87    77    78    1
    88    79    83    1
    89    80    83    1
    90    81    83    1
    91    82    83    1
    92    84    85    1
    93    86    87    1
    94    88    86    1
    95    89    86    1
    96    90    84    1
    97    91    90    1
    98    92    90    1
    99    86    90    1
@<TRIPOS>SUBSTRUCTURE
     1 RES1        1 GROUP             0 ****  ****    0  
     2 RES2       52 GROUP             0 ****  ****    0  
     3 RES3       74 GROUP             0 ****  ****    0  
     4 RES4       79 GROUP             0 ****  ****    0  
     5 RES5       84 GROUP             0 ****  ****    0  
@<TRIPOS>CRYSIN
   13.9787   17.1965   17.2525   90.0000  104.2930   90.0000   231     1
