@<TRIPOS>MOLECULE
NICKIX11
    92    99     5     0     0
SMALL
USER_CHARGES
****
Generated from the CSD

@<TRIPOS>ATOM
     1 Fe1      2.9695   4.9274   7.6216   Fe        1 RES1   2.0000
     2 N1       2.5793   3.7858   9.2096   N.2       1 RES1   0.0000
     3 N2       1.6083   6.3106   7.8231   N.ar      1 RES1   0.0000
     4 N3       3.9404   6.2724   8.7335   N.2       1 RES1   0.0000
     5 N4       4.3649   3.5879   7.4639   N.ar      1 RES1   0.0000
     6 N5       1.7202   3.7686  10.2487   N.pl3     1 RES1   0.0000
     7 H1       1.0691   4.3503  10.3656   H         1 RES1   0.0000
     8 N6       3.9106   5.5394   5.9738   N.2       1 RES1   0.0000
     9 N7       5.1438   6.4032   9.2831   N.pl3     1 RES1   0.0000
    10 H2       5.7950   5.8164   9.2096   H         1 RES1   0.0000
    11 N8       1.4519   4.1438   6.5969   N.2       1 RES1   0.0000
    12 N9       3.8166   6.5581   5.1218   N.pl3     1 RES1   0.0000
    13 H3       3.1781   7.1638   5.1285   H         1 RES1   0.0000
    14 N10      1.1964   3.0218   5.9086   N.pl3     1 RES1   0.0000
    15 H4       1.7762   2.3730   5.7817   H         1 RES1   0.0000
    16 C1       5.2894   3.6912   6.4967   C.ar      1 RES1   0.0000
    17 C2       1.8989   7.4219   8.5046   C.ar      1 RES1   0.0000
    18 C3       0.3154   4.8613   6.5735   C.2       1 RES1   0.0000
    19 C4       5.0089   4.8545   5.6547   C.2       1 RES1   0.0000
    20 C5       4.4498   2.6053   8.3961   C.ar      1 RES1   0.0000
    21 C6       3.2486   7.3824   9.0542   C.2       1 RES1   0.0000
    22 C7       0.3974   6.1348   7.2701   C.ar      1 RES1   0.0000
    23 C8       3.4120   2.7361   9.4034   C.2       1 RES1   0.0000
    24 C9       5.4542   1.6554   8.3309   C.ar      1 RES1   0.0000
    25 H5       5.5051   0.9533   8.9691   H         1 RES1   0.0000
    26 C10      6.3165   2.7826   6.3914   C.ar      1 RES1   0.0000
    27 H6       6.9643   2.8600   5.7015   H         1 RES1   0.0000
    28 C11      5.2265   7.5630   9.9714   C.2       1 RES1   0.0000
    29 H7       5.9831   7.8642  10.4592   H         1 RES1   0.0000
    30 C12      6.3911   1.7587   7.3035   C.ar      1 RES1   0.0000
    31 H8       7.0857   1.1151   7.2350   H         1 RES1   0.0000
    32 C13      0.9536   8.4200   8.6884   C.ar      1 RES1   0.0000
    33 H9       1.1604   9.2030   9.1845   H         1 RES1   0.0000
    34 C14     -0.5993   7.1070   7.4038   C.ar      1 RES1   0.0000
    35 H10     -1.4563   6.9935   7.0095   H         1 RES1   0.0000
    36 C15      4.0454   8.2273   9.8494   C.2       1 RES1   0.0000
    37 H11      3.8126   9.0722  10.2169   H         1 RES1   0.0000
    38 C16     -0.6679   4.1713   5.8435   C.2       1 RES1   0.0000
    39 H12     -1.5600   4.4466   5.6698   H         1 RES1   0.0000
    40 C17     -0.2848   8.2428   8.1338   C.ar      1 RES1   0.0000
    41 H13     -0.9465   8.9156   8.2541   H         1 RES1   0.0000
    42 C18      4.8340   6.5271   4.2548   C.2       1 RES1   0.0000
    43 H14      4.9742   7.1483   3.5499   H         1 RES1   0.0000
    44 C19      5.6256   5.4757   4.5388   C.2       1 RES1   0.0000
    45 H15      6.4207   5.2107   4.0911   H         1 RES1   0.0000
    46 C20     -0.0608   3.0201   5.4392   C.2       1 RES1   0.0000
    47 H16     -0.4587   2.3352   4.9164   H         1 RES1   0.0000
    48 C21      3.0693   2.0633  10.5761   C.2       1 RES1   0.0000
    49 H17      3.4874   1.2975  10.9536   H         1 RES1   0.0000
    50 C22      1.9798   2.7654  11.0689   C.2       1 RES1   0.0000
    51 H18      1.5008   2.5606  11.8624   H         1 RES1   0.0000
    52 S1       1.5256   6.8252  12.0685   S.3       2 RES2   0.0000
    53 S2       1.7467   8.7158  12.7610   S.3       2 RES2   0.0000
    54 N11     -0.3623   5.6598  10.7732   N.ar      2 RES2   0.0000
    55 N12      1.4642   9.8380  15.0364   N.ar      2 RES2   0.0000
    56 C23      1.3489   8.6368  14.5035   C.ar      2 RES2   0.0000
    57 C24      1.0124   7.4891  15.1751   C.ar      2 RES2   0.0000
    58 H19      0.9646   6.6527  14.7274   H         2 RES2   0.0000
    59 C25     -1.1594   7.6061  11.9025   C.ar      2 RES2   0.0000
    60 H20     -0.9877   8.3512  12.4655   H         2 RES2   0.0000
    61 C26     -0.1589   6.7181  11.5350   C.ar      2 RES2   0.0000
    62 C27     -1.6158   5.4292  10.3222   C.ar      2 RES2   0.0000
    63 H21     -1.7712   4.6755   9.7659   H         2 RES2   0.0000
    64 C28      0.7467   7.5957  16.5215   C.ar      2 RES2   0.0000
    65 H22      0.5279   6.8248  17.0310   H         2 RES2   0.0000
    66 C29     -2.6686   6.2466  10.6379   C.ar      2 RES2   0.0000
    67 H23     -3.5449   6.0470  10.3305   H         2 RES2   0.0000
    68 C30      0.8054   8.8330  17.1179   C.ar      2 RES2   0.0000
    69 H24      0.6091   8.9380  18.0433   H         2 RES2   0.0000
    70 C31     -2.4393   7.3393  11.3963   C.ar      2 RES2   0.0000
    71 H25     -3.1532   7.9347  11.5901   H         2 RES2   0.0000
    72 C32      1.1525   9.9223  16.3444   C.ar      2 RES2   0.0000
    73 H26      1.1721  10.7793  16.7554   H         2 RES2   0.0000
    74 F1       8.1768   5.8198   6.6587   F         3 RES3   0.0000
    75 F2      10.3257   6.2638   6.2077   F         3 RES3   0.0000
    76 F3       9.3742   4.4397   5.3691   F         3 RES3   0.0000
    77 F4       9.7471   4.5378   7.5408   F         3 RES3   0.0000
    78 B1       9.4394   5.2640   6.4549   B         3 RES3  -1.0000
    79 F5       1.6834   8.4596   5.0016   F         4 RES4   0.0000
    80 F6       2.9481   8.8433   3.2826   F         4 RES4   0.0000
    81 F7       1.3963  10.3026   3.7637   F         4 RES4   0.0000
    82 F8       0.6716   8.3925   3.0905   F         4 RES4   0.0000
    83 B2       1.6983   8.9862   3.7320   B         4 RES4  -1.0000
    84 O1       7.1791   4.6256   9.1361   O.3       5 RES5   0.0000
    85 H27      7.7798   5.0885   8.7736   H         5 RES5   0.0000
    86 C33      6.6536   3.9269  11.2961   C.3       5 RES5   0.0000
    87 H28      6.0894   3.1440  11.1257   H         5 RES5   0.0000
    88 H29      6.1005   4.7374  11.2794   H         5 RES5   0.0000
    89 H30      7.0762   3.8392  12.1765   H         5 RES5   0.0000
    90 C34      7.6847   4.0199  10.2654   C.3       5 RES5   0.0000
    91 H31      8.4513   4.5430  10.6095   H         5 RES5   0.0000
    92 H32      8.0086   3.1113  10.0382   H         5 RES5   0.0000
@<TRIPOS>BOND
     1     1     2    1
     2     2     6    1
     3     3     1    1
     4     4     1    1
     5     5     1    1
     6     6     7    1
     7     8     1    1
     8     9     4    1
     9    10     9    1
    10    11     1    1
    11    12     8    1
    12    13    12    1
    13    14    11    1
    14    15    14    1
    15    16     5   ar
    16    17     3   ar
    17    18    11    2
    18    19     8    2
    19    20     5   ar
    20    21     4    2
    21    22     3   ar
    22    23     2    2
    23    24    20   ar
    24    25    24    1
    25    26    16   ar
    26    27    26    1
    27    28     9    1
    28    29    28    1
    29    30    24   ar
    30    31    30    1
    31    32    17   ar
    32    33    32    1
    33    34    22   ar
    34    35    34    1
    35    36    21    1
    36    37    36    1
    37    38    18    1
    38    39    38    1
    39    40    32   ar
    40    41    40    1
    41    42    12    1
    42    43    42    1
    43    44    19    1
    44    45    44    1
    45    46    14    1
    46    47    46    1
    47    48    23    1
    48    49    48    1
    49    50     6    1
    50    51    50    1
    51    16    19    1
    52    17    21    1
    53    18    22    1
    54    20    23    1
    55    26    30   ar
    56    28    36    2
    57    34    40   ar
    58    38    46    2
    59    42    44    2
    60    48    50    2
    61    52    53    1
    62    53    56    1
    63    54    61   ar
    64    55    56   ar
    65    56    57   ar
    66    57    58    1
    67    59    60    1
    68    61    52    1
    69    62    54   ar
    70    63    62    1
    71    64    57   ar
    72    65    64    1
    73    66    62   ar
    74    67    66    1
    75    68    64   ar
    76    69    68    1
    77    70    59   ar
    78    71    70    1
    79    72    55   ar
    80    73    72    1
    81    59    61   ar
    82    66    70   ar
    83    68    72   ar
    84    74    78    1
    85    75    78    1
    86    76    78    1
    87    77    78    1
    88    79    83    1
    89    80    83    1
    90    81    83    1
    91    82    83    1
    92    84    85    1
    93    86    87    1
    94    88    86    1
    95    89    86    1
    96    90    84    1
    97    91    90    1
    98    92    90    1
    99    86    90    1
@<TRIPOS>SUBSTRUCTURE
     1 RES1        1 GROUP             0 ****  ****    0  
     2 RES2       52 GROUP             0 ****  ****    0  
     3 RES3       74 GROUP             0 ****  ****    0  
     4 RES4       79 GROUP             0 ****  ****    0  
     5 RES5       84 GROUP             0 ****  ****    0  
@<TRIPOS>CRYSIN
   13.9327   17.2083   17.2368   90.0000  104.2660   90.0000   231     1
