@<TRIPOS>MOLECULE
NICKIX
    92    99     5     0     0
SMALL
USER_CHARGES
****
Generated from the CSD

@<TRIPOS>ATOM
     1 Fe1      2.9328   4.9036   7.5688   Fe        1 RES1   2.0000
     2 N1       2.5365   3.7666   9.1382   N.2       1 RES1   0.0000
     3 N2       1.6040   6.2757   7.7878   N.ar      1 RES1   0.0000
     4 N3       3.9296   6.2045   8.6552   N.2       1 RES1   0.0000
     5 N4       4.3111   3.5662   7.3992   N.ar      1 RES1   0.0000
     6 N5       1.6749   3.7531  10.1709   N.pl3     1 RES1   0.0000
     7 H1       1.0274   4.3373  10.2878   H         1 RES1   0.0000
     8 N6       3.8543   5.5258   5.9433   N.2       1 RES1   0.0000
     9 N7       5.1483   6.3197   9.2102   N.pl3     1 RES1   0.0000
    10 H2       5.7894   5.7220   9.1345   H         1 RES1   0.0000
    11 N8       1.4222   4.1276   6.5571   N.2       1 RES1   0.0000
    12 N9       3.7720   6.5562   5.0850   N.pl3     1 RES1   0.0000
    13 H3       3.1365   7.1649   5.0991   H         1 RES1   0.0000
    14 N10      1.1611   3.0111   5.8645   N.pl3     1 RES1   0.0000
    15 H4       1.7425   2.3655   5.7263   H         1 RES1   0.0000
    16 C1       5.2317   3.6821   6.4182   C.ar      1 RES1   0.0000
    17 C2       1.9062   7.3852   8.4886   C.ar      1 RES1   0.0000
    18 C3       0.2778   4.8408   6.5422   C.2       1 RES1   0.0000
    19 C4       4.9579   4.8408   5.5851   C.2       1 RES1   0.0000
    20 C5       4.3984   2.5813   8.3180   C.ar      1 RES1   0.0000
    21 C6       3.2649   7.3265   8.9970   C.2       1 RES1   0.0000
    22 C7       0.3753   6.1150   7.2456   C.ar      1 RES1   0.0000
    23 C8       3.3511   2.7128   9.3245   C.2       1 RES1   0.0000
    24 C9       5.4079   1.6355   8.2541   C.ar      1 RES1   0.0000
    25 H5       5.4625   0.9363   8.8956   H         1 RES1   0.0000
    26 C10      6.2723   2.7677   6.3100   C.ar      1 RES1   0.0000
    27 H6       6.9216   2.8499   5.6218   H         1 RES1   0.0000
    28 C11      5.2571   7.4701   9.8957   C.2       1 RES1   0.0000
    29 H7       6.0251   7.7622  10.3740   H         1 RES1   0.0000
    30 C12      6.3411   1.7364   7.2252   C.ar      1 RES1   0.0000
    31 H8       7.0320   1.0886   7.1516   H         1 RES1   0.0000
    32 C13      0.9730   8.3966   8.6734   C.ar      1 RES1   0.0000
    33 H9       1.1892   9.1760   9.1710   H         1 RES1   0.0000
    34 C14     -0.6033   7.0891   7.3936   C.ar      1 RES1   0.0000
    35 H10     -1.4669   6.9749   7.0139   H         1 RES1   0.0000
    36 C15      4.0696   8.1540   9.7883   C.2       1 RES1   0.0000
    37 H11      3.8467   8.9963  10.1650   H         1 RES1   0.0000
    38 C16     -0.7100   4.1606   5.8229   C.2       1 RES1   0.0000
    39 H12     -1.6036   4.4383   5.6599   H         1 RES1   0.0000
    40 C17     -0.2840   8.2338   8.1107   C.ar      1 RES1   0.0000
    41 H13     -0.9357   8.9159   8.2169   H         1 RES1   0.0000
    42 C18      4.7892   6.5355   4.1992   C.2       1 RES1   0.0000
    43 H14      4.9343   7.1615   3.4995   H         1 RES1   0.0000
    44 C19      5.5747   5.4531   4.4873   C.2       1 RES1   0.0000
    45 H15      6.3656   5.1777   4.0404   H         1 RES1   0.0000
    46 C20     -0.1023   3.0037   5.4064   C.2       1 RES1   0.0000
    47 H16     -0.5044   2.3175   4.8850   H         1 RES1   0.0000
    48 C21      3.0089   2.0324  10.4960   C.2       1 RES1   0.0000
    49 H17      3.4253   1.2615  10.8619   H         1 RES1   0.0000
    50 C22      1.9353   2.7282  10.9998   C.2       1 RES1   0.0000
    51 H18      1.4600   2.5195  11.7961   H         1 RES1   0.0000
    52 S1       1.5140   6.7825  11.9582   S.3       2 RES2   0.0000
    53 S2       1.7596   8.6709  12.6398   S.3       2 RES2   0.0000
    54 N11     -0.4047   5.6153  10.6815   N.ar      2 RES2   0.0000
    55 N12      1.4889   9.8023  14.9313   N.ar      2 RES2   0.0000
    56 C23      1.3776   8.5917  14.3843   C.ar      2 RES2   0.0000
    57 C24      1.0373   7.4458  15.0654   C.ar      2 RES2   0.0000
    58 H19      0.9827   6.6052  14.6252   H         2 RES2   0.0000
    59 C25     -1.1707   7.5943  11.7966   C.ar      2 RES2   0.0000
    60 H20     -0.9710   8.3545  12.3304   H         2 RES2   0.0000
    61 C26     -0.1902   6.6856  11.4416   C.ar      2 RES2   0.0000
    62 C27     -1.6617   5.4026  10.2522   C.ar      2 RES2   0.0000
    63 H21     -1.8355   4.6402   9.7120   H         2 RES2   0.0000
    64 C28      0.7766   7.5680  16.4174   C.ar      2 RES2   0.0000
    65 H22      0.5480   6.8037  16.9333   H         2 RES2   0.0000
    66 C29     -2.7045   6.2425  10.5625   C.ar      2 RES2   0.0000
    67 H23     -3.5822   6.0626  10.2463   H         2 RES2   0.0000
    68 C30      0.8535   8.8115  17.0110   C.ar      2 RES2   0.0000
    69 H24      0.6628   8.9193  17.9355   H         2 RES2   0.0000
    70 C31     -2.4553   7.3518  11.3419   C.ar      2 RES2   0.0000
    71 H25     -3.1613   7.9471  11.5654   H         2 RES2   0.0000
    72 C32      1.2139   9.8876  16.2387   C.ar      2 RES2   0.0000
    73 H26      1.2693  10.7405  16.6545   H         2 RES2   0.0000
    74 F1       8.0146   5.7839   6.5923   F         3 RES3   0.0000
    75 F2      10.1975   6.2125   6.1793   F         3 RES3   0.0000
    76 F3       9.2296   4.3985   5.2867   F         3 RES3   0.0000
    77 F4       9.5790   4.4656   7.5106   F         3 RES3   0.0000
    78 B1       9.2662   5.2191   6.3812   B         3 RES3  -1.0000
    79 F5       1.6383   8.4274   5.0095   F         4 RES4   0.0000
    80 F6       2.9229   8.7950   3.2028   F         4 RES4   0.0000
    81 F7       1.4030  10.3251   3.7821   F         4 RES4   0.0000
    82 F8       0.6884   8.3769   2.9886   F         4 RES4   0.0000
    83 B2       1.6554   8.9696   3.7303   B         4 RES4  -1.0000
    84 O1       7.1464   4.5134   9.0937   O.3       5 RES5   0.0000
    85 H27      7.8028   4.6454   8.5853   H         5 RES5   0.0000
    86 C33      6.5220   3.8204  11.2525   C.3       5 RES5   0.0000
    87 H28      5.7242   3.4027  10.8652   H         5 RES5   0.0000
    88 H29      6.3070   4.7327  11.5389   H         5 RES5   0.0000
    89 H30      6.8211   3.2983  12.0251   H         5 RES5   0.0000
    90 C34      7.5790   3.8597  10.2562   C.3       5 RES5   0.0000
    91 H31      8.3643   4.3356  10.6279   H         5 RES5   0.0000
    92 H32      7.8569   2.9372  10.0322   H         5 RES5   0.0000
@<TRIPOS>BOND
     1     1     2    1
     2     2     6    1
     3     3     1    1
     4     4     1    1
     5     5     1    1
     6     6     7    1
     7     8     1    1
     8     9     4    1
     9    10     9    1
    10    11     1    1
    11    12     8    1
    12    13    12    1
    13    14    11    1
    14    15    14    1
    15    16     5   ar
    16    17     3   ar
    17    18    11    2
    18    19     8    2
    19    20     5   ar
    20    21     4    2
    21    22     3   ar
    22    23     2    2
    23    24    20   ar
    24    25    24    1
    25    26    16   ar
    26    27    26    1
    27    28     9    1
    28    29    28    1
    29    30    24   ar
    30    31    30    1
    31    32    17   ar
    32    33    32    1
    33    34    22   ar
    34    35    34    1
    35    36    21    1
    36    37    36    1
    37    38    18    1
    38    39    38    1
    39    40    32   ar
    40    41    40    1
    41    42    12    1
    42    43    42    1
    43    44    19    1
    44    45    44    1
    45    46    14    1
    46    47    46    1
    47    48    23    1
    48    49    48    1
    49    50     6    1
    50    51    50    1
    51    16    19    1
    52    17    21    1
    53    18    22    1
    54    20    23    1
    55    26    30   ar
    56    28    36    2
    57    34    40   ar
    58    38    46    2
    59    42    44    2
    60    48    50    2
    61    52    53    1
    62    53    56    1
    63    54    61   ar
    64    55    56   ar
    65    56    57   ar
    66    57    58    1
    67    59    60    1
    68    61    52    1
    69    62    54   ar
    70    63    62    1
    71    64    57   ar
    72    65    64    1
    73    66    62   ar
    74    67    66    1
    75    68    64   ar
    76    69    68    1
    77    70    59   ar
    78    71    70    1
    79    72    55   ar
    80    73    72    1
    81    59    61   ar
    82    66    70   ar
    83    68    72   ar
    84    74    78    1
    85    75    78    1
    86    76    78    1
    87    77    78    1
    88    79    83    1
    89    80    83    1
    90    81    83    1
    91    82    83    1
    92    84    85    1
    93    86    87    1
    94    88    86    1
    95    89    86    1
    96    90    84    1
    97    91    90    1
    98    92    90    1
    99    86    90    1
@<TRIPOS>SUBSTRUCTURE
     1 RES1        1 GROUP             0 ****  ****    0  
     2 RES2       52 GROUP             0 ****  ****    0  
     3 RES3       74 GROUP             0 ****  ****    0  
     4 RES4       79 GROUP             0 ****  ****    0  
     5 RES5       84 GROUP             0 ****  ****    0  
@<TRIPOS>CRYSIN
   13.7704   17.1163   17.1077   90.0000  104.0880   90.0000   231     1
