@<TRIPOS>MOLECULE
NICKIX03
    92    99     5     0     0
SMALL
USER_CHARGES
****
Generated from the CSD

@<TRIPOS>ATOM
     1 Fe1      2.9350   4.9146   7.5808   Fe        1 RES1   2.0000
     2 N1       2.5399   3.7779   9.1503   N.2       1 RES1   0.0000
     3 N2       1.6047   6.2857   7.7986   N.ar      1 RES1   0.0000
     4 N3       3.9288   6.2185   8.6679   N.2       1 RES1   0.0000
     5 N4       4.3125   3.5770   7.4101   N.ar      1 RES1   0.0000
     6 N5       1.6804   3.7604  10.1838   N.pl3     1 RES1   0.0000
     7 H1       1.0334   4.3454  10.2996   H         1 RES1   0.0000
     8 N6       3.8591   5.5392   5.9568   N.2       1 RES1   0.0000
     9 N7       5.1457   6.3337   9.2241   N.pl3     1 RES1   0.0000
    10 H2       5.7879   5.7374   9.1480   H         1 RES1   0.0000
    11 N8       1.4271   4.1360   6.5668   N.2       1 RES1   0.0000
    12 N9       3.7740   6.5679   5.0951   N.pl3     1 RES1   0.0000
    13 H3       3.1388   7.1773   5.1083   H         1 RES1   0.0000
    14 N10      1.1695   3.0202   5.8743   N.pl3     1 RES1   0.0000
    15 H4       1.7514   2.3741   5.7397   H         1 RES1   0.0000
    16 C1       5.2331   3.6929   6.4292   C.ar      1 RES1   0.0000
    17 C2       1.9008   7.3946   8.5004   C.ar      1 RES1   0.0000
    18 C3       0.2803   4.8515   6.5498   C.2       1 RES1   0.0000
    19 C4       4.9600   4.8508   5.5962   C.2       1 RES1   0.0000
    20 C5       4.4024   2.5925   8.3278   C.ar      1 RES1   0.0000
    21 C6       3.2642   7.3379   9.0089   C.2       1 RES1   0.0000
    22 C7       0.3785   6.1236   7.2559   C.ar      1 RES1   0.0000
    23 C8       3.3506   2.7243   9.3379   C.2       1 RES1   0.0000
    24 C9       5.4080   1.6432   8.2644   C.ar      1 RES1   0.0000
    25 H5       5.4614   0.9445   8.9054   H         1 RES1   0.0000
    26 C10      6.2745   2.7777   6.3177   C.ar      1 RES1   0.0000
    27 H6       6.9249   2.8610   5.6301   H         1 RES1   0.0000
    28 C11      5.2518   7.4863   9.9131   C.2       1 RES1   0.0000
    29 H7       6.0181   7.7789  10.3927   H         1 RES1   0.0000
    30 C12      6.3392   1.7440   7.2343   C.ar      1 RES1   0.0000
    31 H8       7.0282   1.0936   7.1605   H         1 RES1   0.0000
    32 C13      0.9702   8.4070   8.6824   C.ar      1 RES1   0.0000
    33 H9       1.1849   9.1897   9.1763   H         1 RES1   0.0000
    34 C14     -0.6020   7.0977   7.4010   C.ar      1 RES1   0.0000
    35 H10     -1.4643   6.9836   7.0176   H         1 RES1   0.0000
    36 C15      4.0647   8.1652   9.8036   C.2       1 RES1   0.0000
    37 H11      3.8374   9.0063  10.1816   H         1 RES1   0.0000
    38 C16     -0.7028   4.1694   5.8298   C.2       1 RES1   0.0000
    39 H12     -1.5975   4.4449   5.6666   H         1 RES1   0.0000
    40 C17     -0.2883   8.2371   8.1172   C.ar      1 RES1   0.0000
    41 H13     -0.9436   8.9155   8.2257   H         1 RES1   0.0000
    42 C18      4.7905   6.5441   4.2081   C.2       1 RES1   0.0000
    43 H14      4.9347   7.1670   3.5047   H         1 RES1   0.0000
    44 C19      5.5766   5.4633   4.5010   C.2       1 RES1   0.0000
    45 H15      6.3693   5.1888   4.0564   H         1 RES1   0.0000
    46 C20     -0.0943   3.0140   5.4115   C.2       1 RES1   0.0000
    47 H16     -0.4942   2.3296   4.8872   H         1 RES1   0.0000
    48 C21      3.0108   2.0431  10.5067   C.2       1 RES1   0.0000
    49 H17      3.4282   1.2702  10.8712   H         1 RES1   0.0000
    50 C22      1.9350   2.7399  11.0155   C.2       1 RES1   0.0000
    51 H18      1.4597   2.5336  11.8118   H         1 RES1   0.0000
    52 S1       1.5131   6.7959  11.9833   S.3       2 RES2   0.0000
    53 S2       1.7576   8.6837  12.6653   S.3       2 RES2   0.0000
    54 N11     -0.4002   5.6294  10.7046   N.ar      2 RES2   0.0000
    55 N12      1.4833   9.8173  14.9557   N.ar      2 RES2   0.0000
    56 C23      1.3731   8.6062  14.4076   C.ar      2 RES2   0.0000
    57 C24      1.0272   7.4641  15.0921   C.ar      2 RES2   0.0000
    58 H19      0.9716   6.6236  14.6518   H         2 RES2   0.0000
    59 C25     -1.1733   7.6056  11.8148   C.ar      2 RES2   0.0000
    60 H20     -0.9748   8.3669  12.3469   H         2 RES2   0.0000
    61 C26     -0.1908   6.6978  11.4655   C.ar      2 RES2   0.0000
    62 C27     -1.6555   5.4146  10.2723   C.ar      2 RES2   0.0000
    63 H21     -1.8255   4.6523   9.7313   H         2 RES2   0.0000
    64 C28      0.7628   7.5835  16.4416   C.ar      2 RES2   0.0000
    65 H22      0.5312   6.8190  16.9566   H         2 RES2   0.0000
    66 C29     -2.7023   6.2521  10.5803   C.ar      2 RES2   0.0000
    67 H23     -3.5781   6.0682  10.2630   H         2 RES2   0.0000
    68 C30      0.8424   8.8332  17.0352   C.ar      2 RES2   0.0000
    69 H24      0.6488   8.9412  17.9587   H         2 RES2   0.0000
    70 C31     -2.4542   7.3638  11.3593   C.ar      2 RES2   0.0000
    71 H25     -3.1607   7.9589  11.5808   H         2 RES2   0.0000
    72 C32      1.2021   9.9080  16.2683   C.ar      2 RES2   0.0000
    73 H26      1.2575  10.7599  16.6841   H         2 RES2   0.0000
    74 F1       8.0372   5.7948   6.6052   F         3 RES3   0.0000
    75 F2      10.2106   6.2254   6.1796   F         3 RES3   0.0000
    76 F3       9.2482   4.4096   5.3019   F         3 RES3   0.0000
    77 F4       9.5973   4.4761   7.5158   F         3 RES3   0.0000
    78 B1       9.2882   5.2318   6.3928   B         3 RES3  -1.0000
    79 F5       1.6399   8.4415   5.0100   F         4 RES4   0.0000
    80 F6       2.9230   8.8121   3.2107   F         4 RES4   0.0000
    81 F7       1.3971  10.3286   3.7742   F         4 RES4   0.0000
    82 F8       0.6886   8.3806   2.9998   F         4 RES4   0.0000
    83 B2       1.6558   8.9804   3.7292   B         4 RES4  -1.0000
    84 O1       7.1470   4.5345   9.1025   O.3       5 RES5   0.0000
    85 H27      7.8009   4.6831   8.5946   H         5 RES5   0.0000
    86 C33      6.5448   3.8363  11.2646   C.3       5 RES5   0.0000
    87 H28      5.7637   3.3752  10.8945   H         5 RES5   0.0000
    88 H29      6.2933   4.7483  11.5243   H         5 RES5   0.0000
    89 H30      6.8696   3.3512  12.0511   H         5 RES5   0.0000
    90 C34      7.5937   3.8912  10.2630   C.3       5 RES5   0.0000
    91 H31      8.3746   4.3763  10.6286   H         5 RES5   0.0000
    92 H32      7.8831   2.9707  10.0387   H         5 RES5   0.0000
@<TRIPOS>BOND
     1     1     2    1
     2     2     6    1
     3     3     1    1
     4     4     1    1
     5     5     1    1
     6     6     7    1
     7     8     1    1
     8     9     4    1
     9    10     9    1
    10    11     1    1
    11    12     8    1
    12    13    12    1
    13    14    11    1
    14    15    14    1
    15    16     5   ar
    16    17     3   ar
    17    18    11    2
    18    19     8    2
    19    20     5   ar
    20    21     4    2
    21    22     3   ar
    22    23     2    2
    23    24    20   ar
    24    25    24    1
    25    26    16   ar
    26    27    26    1
    27    28     9    1
    28    29    28    1
    29    30    24   ar
    30    31    30    1
    31    32    17   ar
    32    33    32    1
    33    34    22   ar
    34    35    34    1
    35    36    21    1
    36    37    36    1
    37    38    18    1
    38    39    38    1
    39    40    32   ar
    40    41    40    1
    41    42    12    1
    42    43    42    1
    43    44    19    1
    44    45    44    1
    45    46    14    1
    46    47    46    1
    47    48    23    1
    48    49    48    1
    49    50     6    1
    50    51    50    1
    51    16    19    1
    52    17    21    1
    53    18    22    1
    54    20    23    1
    55    26    30   ar
    56    28    36    2
    57    34    40   ar
    58    38    46    2
    59    42    44    2
    60    48    50    2
    61    52    53    1
    62    53    56    1
    63    54    61   ar
    64    55    56   ar
    65    56    57   ar
    66    57    58    1
    67    59    60    1
    68    61    52    1
    69    62    54   ar
    70    63    62    1
    71    64    57   ar
    72    65    64    1
    73    66    62   ar
    74    67    66    1
    75    68    64   ar
    76    69    68    1
    77    70    59   ar
    78    71    70    1
    79    72    55   ar
    80    73    72    1
    81    59    61   ar
    82    66    70   ar
    83    68    72   ar
    84    74    78    1
    85    75    78    1
    86    76    78    1
    87    77    78    1
    88    79    83    1
    89    80    83    1
    90    81    83    1
    91    82    83    1
    92    84    85    1
    93    86    87    1
    94    88    86    1
    95    89    86    1
    96    90    84    1
    97    91    90    1
    98    92    90    1
    99    86    90    1
@<TRIPOS>SUBSTRUCTURE
     1 RES1        1 GROUP             0 ****  ****    0  
     2 RES2       52 GROUP             0 ****  ****    0  
     3 RES3       74 GROUP             0 ****  ****    0  
     4 RES4       79 GROUP             0 ****  ****    0  
     5 RES5       84 GROUP             0 ****  ****    0  
@<TRIPOS>CRYSIN
   13.7889   17.1418   17.1351   90.0000  104.1169   90.0000   231     1
