@<TRIPOS>MOLECULE
NIJLIB
   103   109     4     0     0
SMALL
USER_CHARGES
****
Generated from the CSD

@<TRIPOS>ATOM
     1 Fe1     -0.4754  -0.3798   4.5530   Fe        1 RES1   2.0000
     2 N1       1.0933   0.1049   6.0902   N.ar      1 RES1   0.0000
     3 N2      -1.2994   1.7173   6.7061   N.pl3     1 RES1   0.0000
     4 N3      -1.8479   0.7535   5.8774   N.2       1 RES1   0.0000
     5 N4       2.1561  -2.0447   4.2760   N.pl3     1 RES1   0.0000
     6 N5       1.1236  -1.5319   3.5425   N.2       1 RES1   0.0000
     7 N6      -2.0617  -0.7534   3.0143   N.ar      1 RES1   0.0000
     8 N7      -0.9478   2.0500   2.6821   N.pl3     1 RES1   0.0000
     9 N8       0.0366   1.3273   3.2868   N.2       1 RES1   0.0000
    10 N9      -1.9163  -3.1110   4.8079   N.pl3     1 RES1   0.0000
    11 N10     -1.2624  -2.1746   5.5583   N.2       1 RES1   0.0000
    12 C1       1.1281   1.3361   6.6856   C.ar      1 RES1   0.0000
    13 C2       2.1802   1.7136   7.5068   C.ar      1 RES1   0.0000
    14 C3       3.1936   0.8246   7.7513   C.ar      1 RES1   0.0000
    15 C4       3.1620  -0.4134   7.1727   C.ar      1 RES1   0.0000
    16 C5       2.1085  -0.7527   6.3590   C.ar      1 RES1   0.0000
    17 C6       0.0011   2.2723   6.4019   C.3       1 RES1   0.0000
    18 C7      -2.1635   2.0948   7.6580   C.2       1 RES1   0.0000
    19 C8      -3.2910   1.3544   7.4676   C.2       1 RES1   0.0000
    20 C9      -3.0736   0.5472   6.3627   C.2       1 RES1   0.0000
    21 C10     -4.0523  -0.3925   5.7225   C.3       1 RES1   0.0000
    22 C11     -1.8821   3.1769   8.6509   C.3       1 RES1   0.0000
    23 C12      2.0382  -2.1070   5.7225   C.3       1 RES1   0.0000
    24 C13      3.1749  -2.4498   3.4884   C.2       1 RES1   0.0000
    25 C14      2.7871  -2.1926   2.1893   C.2       1 RES1   0.0000
    26 C15      1.5401  -1.6461   2.2584   C.2       1 RES1   0.0000
    27 C16      0.6805  -1.1791   1.1124   C.3       1 RES1   0.0000
    28 C17      4.4582  -3.0332   4.0576   C.3       1 RES1   0.0000
    29 H1       4.3929  -3.0745   5.0151   H         1 RES1   0.0000
    30 H2       5.1998  -2.4755   3.8113   H         1 RES1   0.0000
    31 H3       4.5915  -3.9174   3.7086   H         1 RES1   0.0000
    32 C18     -2.6380   0.2768   2.3685   C.ar      1 RES1   0.0000
    33 C19     -3.5248   0.0825   1.3196   C.ar      1 RES1   0.0000
    34 C20     -3.8136  -1.1950   0.9220   C.ar      1 RES1   0.0000
    35 C21     -3.2383  -2.2421   1.5846   C.ar      1 RES1   0.0000
    36 C22     -2.3685  -2.0054   2.6130   C.ar      1 RES1   0.0000
    37 C23     -2.3394   1.6613   2.8538   C.3       1 RES1   0.0000
    38 C24     -0.4606   3.1045   1.9840   C.2       1 RES1   0.0000
    39 C25      0.9041   3.0392   2.1277   C.2       1 RES1   0.0000
    40 C26      1.1811   1.9620   2.9378   C.2       1 RES1   0.0000
    41 C27      2.5457   1.4886   3.3615   C.3       1 RES1   0.0000
    42 H4       2.4555   0.7178   3.9270   H         1 RES1   0.0000
    43 H5       2.9924   2.1883   3.8430   H         1 RES1   0.0000
    44 H6       3.0596   1.2563   2.5850   H         1 RES1   0.0000
    45 C28     -1.3358   4.0832   1.2822   C.3       1 RES1   0.0000
    46 C29     -1.7357  -3.1402   3.3689   C.3       1 RES1   0.0000
    47 C30     -2.6316  -3.9622   5.5657   C.2       1 RES1   0.0000
    48 C31     -2.3993  -3.5694   6.8517   C.2       1 RES1   0.0000
    49 C32     -1.5661  -2.4842   6.8256   C.2       1 RES1   0.0000
    50 C33     -1.0646  -1.6652   7.9660   C.3       1 RES1   0.0000
    51 C34     -3.4463  -5.0762   5.0021   C.3       1 RES1   0.0000
    52 H7      -3.3858  -5.0633   4.0446   H         1 RES1   0.0000
    53 H8      -4.3627  -4.9679   5.2671   H         1 RES1   0.0000
    54 H9      -3.1150  -5.9138   5.3324   H         1 RES1   0.0000
    55 H13      2.1217   2.4670   7.8838   H         1 RES1   0.0000
    56 H14      3.8353   1.1035   8.3187   H         1 RES1   0.0000
    57 H15      3.6816  -0.9578   7.2586   H         1 RES1   0.0000
    58 H16     -0.0291   2.5836   5.3529   H         1 RES1   0.0000
    59 H17      0.1858   3.0393   7.0029   H         1 RES1   0.0000
    60 H18     -4.1336   1.4399   7.8745   H         1 RES1   0.0000
    61 H19     -4.5715  -0.0070   4.7967   H         1 RES1   0.0000
    62 H20     -3.7527  -1.0072   4.9815   H         1 RES1   0.0000
    63 H21     -4.2780  -1.0074   6.4728   H         1 RES1   0.0000
    64 H22     -0.9000   3.0573   9.1997   H         1 RES1   0.0000
    65 H23     -1.8554   3.9405   8.1899   H         1 RES1   0.0000
    66 H24     -2.3313   3.0608   9.5524   H         1 RES1   0.0000
    67 H25      1.0946  -2.5085   5.8867   H         1 RES1   0.0000
    68 H26      2.6812  -2.6277   6.0603   H         1 RES1   0.0000
    69 H27      3.3146  -2.3625   1.5547   H         1 RES1   0.0000
    70 H28      1.1876  -0.9866   0.2538   H         1 RES1   0.0000
    71 H29      0.0362  -0.4710   1.2468   H         1 RES1   0.0000
    72 H30      0.2253  -1.9585   0.8306   H         1 RES1   0.0000
    73 H31     -3.9069   0.8087   0.9631   H         1 RES1   0.0000
    74 H32     -4.3211  -1.4032   0.2034   H         1 RES1   0.0000
    75 H33     -3.3786  -3.0566   1.4502   H         1 RES1   0.0000
    76 H34     -2.8501   2.2597   2.3442   H         1 RES1   0.0000
    77 H35     -2.5789   1.6804   3.6675   H         1 RES1   0.0000
    78 H36      1.4725   3.6572   1.7377   H         1 RES1   0.0000
    79 H37     -0.7798   4.6029   0.8175   H         1 RES1   0.0000
    80 H38     -2.0282   3.7252   0.8231   H         1 RES1   0.0000
    81 H39     -1.9370   4.5701   1.9486   H         1 RES1   0.0000
    82 H40     -0.9028  -3.1381   3.1841   H         1 RES1   0.0000
    83 H41     -2.0699  -4.0438   3.0759   H         1 RES1   0.0000
    84 H42     -2.7851  -3.8904   7.6543   H         1 RES1   0.0000
    85 H43     -0.8521  -0.8080   7.6543   H         1 RES1   0.0000
    86 H44     -1.4314  -1.8345   8.7779   H         1 RES1   0.0000
    87 H45      0.0381  -1.7497   8.0798   H         1 RES1   0.0000
    88 Cl1      0.4608   6.1959   8.3840   Cl        2 RES2   0.0000
    89 O1       1.1241   7.4179   8.1153   O.3       2 RES2  -1.0000
    90 O2       0.1839   6.0887   9.7279   O.2       2 RES2   0.0000
    91 O3       1.1483   5.1147   7.9604   O.2       2 RES2   0.0000
    92 O4      -0.8216   6.2246   7.8185   O.2       2 RES2   0.0000
    93 Cl2      0.0203   5.5465  17.2580   Cl        3 RES3   0.0000
    94 O5       1.3263   5.2294  17.3691   O.3       3 RES3  -1.0000
    95 O6      -0.8168   4.5691  16.8129   O.2       3 RES3   0.0000
    96 O7      -0.5662   6.2380  18.2986   O.2       3 RES3   0.0000
    97 O8       0.0298   6.4957  16.2025   O.2       3 RES3   0.0000
    98 N11     -3.3872   5.0254  13.7799   N.1       4 RES4   0.0000
    99 C35     -0.9499   5.2183  13.0408   C.3       4 RES4   0.0000
   100 H10     -0.6230   6.0689  13.3413   H         4 RES4   0.0000
   101 H11     -0.8570   5.1601  12.0870   H         4 RES4   0.0000
   102 H12     -0.4445   4.5162  13.4551   H         4 RES4   0.0000
   103 C36     -2.3428   5.0838  13.3973   C.1       4 RES4   0.0000
@<TRIPOS>BOND
     1     1     2    1
     2     2    12   ar
     3     3     4    1
     4     4     1    1
     5     5     6    1
     6     6     1    1
     7     7     1    1
     8     8     9    1
     9     9     1    1
    10    10    11    1
    11    11     1    1
    12    12    13   ar
    13    13    14   ar
    14    14    15   ar
    15    15    16   ar
    16    16     2   ar
    17    17     3    1
    18    18     3    1
    19    19    18    2
    20    20     4    2
    21    21    20    1
    22    22    18    1
    23    23     5    1
    24    24     5    1
    25    25    24    2
    26    26     6    2
    27    27    26    1
    28    28    24    1
    29    29    28    1
    30    30    28    1
    31    31    28    1
    32    32     7   ar
    33    33    32   ar
    34    34    33   ar
    35    35    34   ar
    36    36     7   ar
    37    37     8    1
    38    38     8    1
    39    39    38    2
    40    40     9    2
    41    41    40    1
    42    42    41    1
    43    43    41    1
    44    44    41    1
    45    45    38    1
    46    46    10    1
    47    47    10    1
    48    48    47    2
    49    49    11    2
    50    50    49    1
    51    51    47    1
    52    52    51    1
    53    53    51    1
    54    54    51    1
    55    55    13    1
    56    56    14    1
    57    57    15    1
    58    58    17    1
    59    59    17    1
    60    60    19    1
    61    61    21    1
    62    62    21    1
    63    63    21    1
    64    64    22    1
    65    65    22    1
    66    66    22    1
    67    67    23    1
    68    68    23    1
    69    69    25    1
    70    70    27    1
    71    71    27    1
    72    72    27    1
    73    73    33    1
    74    74    34    1
    75    75    35    1
    76    76    37    1
    77    77    37    1
    78    78    39    1
    79    79    45    1
    80    80    45    1
    81    81    45    1
    82    82    46    1
    83    83    46    1
    84    84    48    1
    85    85    50    1
    86    86    50    1
    87    87    50    1
    88    12    17    1
    89    16    23    1
    90    19    20    1
    91    25    26    1
    92    32    37    1
    93    35    36   ar
    94    36    46    1
    95    39    40    1
    96    48    49    1
    97    88    89    1
    98    90    88    2
    99    91    88    2
   100    92    88    2
   101    93    94    1
   102    95    93    2
   103    96    93    2
   104    97    93    2
   105    98   103    3
   106    99   100    1
   107   101    99    1
   108   102    99    1
   109   103    99    1
@<TRIPOS>SUBSTRUCTURE
     1 RES1        1 GROUP             0 ****  ****    0  
     2 RES2       88 GROUP             0 ****  ****    0  
     3 RES3       93 GROUP             0 ****  ****    0  
     4 RES4       98 GROUP             0 ****  ****    0  
@<TRIPOS>CRYSIN
   11.1250   11.1440   18.6980   90.9300   92.6200  114.6000     2     1
