@<TRIPOS>MOLECULE
NIJMAU
   101   108     3     0     0
SMALL
USER_CHARGES
****
Generated from the CSD

@<TRIPOS>ATOM
     1 Fe1      0.0000   3.8403  15.9863   Fe        1 RES1   2.0000
     2 N1      -0.1163   2.2366  17.5005   N.2       1 RES1   0.0000
     3 N2       2.1939   3.4455  15.9630   N.ar      1 RES1   0.0000
     4 N3       0.4413   5.4086  14.4964   N.2       1 RES1   0.0000
     5 N4       0.9699   1.9908  18.2931   N.pl3     1 RES1   0.0000
     6 N5       1.5554   5.2688  13.7122   N.pl3     1 RES1   0.0000
     7 C1      -0.9459   1.1982  17.7189   C.2       1 RES1   0.0000
     8 C2      -0.3756   0.3134  18.6223   C.2       1 RES1   0.0000
     9 H1      -0.7461  -0.4854  18.9200   H         1 RES1   0.0000
    10 C3       0.8321   0.8326  18.9929   C.2       1 RES1   0.0000
    11 C4       2.0397   2.9862  18.3627   C.3       1 RES1   0.0000
    12 H2       2.6315   2.7681  19.0981   H         1 RES1   0.0000
    13 H3       1.6527   3.8587  18.5383   H         1 RES1   0.0000
    14 C5       2.8338   3.0446  17.0929   C.ar      1 RES1   0.0000
    15 C6       4.1818   2.7220  17.0861   C.ar      1 RES1   0.0000
    16 H4       4.6142   2.4731  17.8724   H         1 RES1   0.0000
    17 C7       4.8722   2.7773  15.8918   C.ar      1 RES1   0.0000
    18 H5       5.7675   2.5269  15.8578   H         1 RES1   0.0000
    19 C8       4.2387   3.1966  14.7696   C.ar      1 RES1   0.0000
    20 H6       4.7027   3.2596  13.9663   H         1 RES1   0.0000
    21 C9       2.9046   3.5284  14.8285   C.ar      1 RES1   0.0000
    22 C10      2.1838   3.9539  13.5799   C.3       1 RES1   0.0000
    23 H7       2.8136   3.9754  12.8424   H         1 RES1   0.0000
    24 H8       1.5010   3.2965  13.3683   H         1 RES1   0.0000
    25 C11      1.8500   6.4163  13.0629   C.2       1 RES1   0.0000
    26 C12      0.9029   7.3272  13.4302   C.2       1 RES1   0.0000
    27 H9       0.8409   8.2089  13.1392   H         1 RES1   0.0000
    28 C13      0.0518   6.6897  14.3153   C.2       1 RES1   0.0000
    29 C14     -2.2622   1.0753  17.0598   C.3       1 RES1   0.0000
    30 H10     -2.4026   1.8280  16.4813   H         1 RES1   0.0000
    31 H11     -2.9527   1.0507  17.7282   H         1 RES1   0.0000
    32 H12     -2.2875   0.2657  16.5449   H         1 RES1   0.0000
    33 C15      1.8424   0.3426  19.9765   C.3       1 RES1   0.0000
    34 H13      2.5923   0.9416  19.9930   H         1 RES1   0.0000
    35 H14      2.1396  -0.5346  19.7216   H         1 RES1   0.0000
    36 H15      1.4466   0.3011  20.8497   H         1 RES1   0.0000
    37 C16      2.9919   6.5177  12.0997   C.3       1 RES1   0.0000
    38 H16      3.4660   5.6836  12.0747   H         1 RES1   0.0000
    39 H17      3.5887   7.2151  12.3843   H         1 RES1   0.0000
    40 H18      2.6555   6.7204  11.2222   H         1 RES1   0.0000
    41 C17     -1.1545   7.2719  15.0062   C.3       1 RES1   0.0000
    42 H19     -1.5604   6.6022  15.5610   H         1 RES1   0.0000
    43 H20     -1.7868   7.5699  14.3480   H         1 RES1   0.0000
    44 H21     -0.8839   8.0169  15.5482   H         1 RES1   0.0000
    45 N1L      0.1163   5.4439  17.5005   N.2       1 RES1   0.0000
    46 N4L     -0.9699   5.6897  18.2931   N.pl3     1 RES1   0.0000
    47 C3L     -0.8321   6.8479  18.9929   C.2       1 RES1   0.0000
    48 C2L      0.3756   7.3671  18.6223   C.2       1 RES1   0.0000
    49 C1L      0.9459   6.4823  17.7189   C.2       1 RES1   0.0000
    50 C14L     2.2622   6.6052  17.0598   C.3       1 RES1   0.0000
    51 H10L     2.4026   5.8525  16.4813   H         1 RES1   0.0000
    52 H11L     2.9527   6.6298  17.7282   H         1 RES1   0.0000
    53 H12L     2.2875   7.4148  16.5449   H         1 RES1   0.0000
    54 H1L      0.7461   8.1659  18.9200   H         1 RES1   0.0000
    55 C15L    -1.8424   7.3379  19.9765   C.3       1 RES1   0.0000
    56 H13L    -2.5923   6.7389  19.9930   H         1 RES1   0.0000
    57 H14L    -2.1396   8.2151  19.7216   H         1 RES1   0.0000
    58 H15L    -1.4466   7.3794  20.8497   H         1 RES1   0.0000
    59 C4L     -2.0397   4.6943  18.3627   C.3       1 RES1   0.0000
    60 H2L     -2.6315   4.9124  19.0981   H         1 RES1   0.0000
    61 H3L     -1.6527   3.8218  18.5383   H         1 RES1   0.0000
    62 C5L     -2.8338   4.6359  17.0929   C.ar      1 RES1   0.0000
    63 N2L     -2.1939   4.2350  15.9630   N.ar      1 RES1   0.0000
    64 N3L     -0.4413   2.2719  14.4964   N.2       1 RES1   0.0000
    65 N5L     -1.5554   2.4117  13.7122   N.pl3     1 RES1   0.0000
    66 C10L    -2.1838   3.7266  13.5799   C.3       1 RES1   0.0000
    67 C9L     -2.9046   4.1521  14.8285   C.ar      1 RES1   0.0000
    68 C8L     -4.2387   4.4839  14.7696   C.ar      1 RES1   0.0000
    69 C7L     -4.8722   4.9032  15.8918   C.ar      1 RES1   0.0000
    70 C6L     -4.1818   4.9585  17.0861   C.ar      1 RES1   0.0000
    71 H4L     -4.6142   5.2074  17.8724   H         1 RES1   0.0000
    72 H5L     -5.7675   5.1536  15.8578   H         1 RES1   0.0000
    73 H6L     -4.7027   4.4209  13.9663   H         1 RES1   0.0000
    74 H7L     -2.8136   3.7051  12.8424   H         1 RES1   0.0000
    75 H8L     -1.5010   4.3840  13.3683   H         1 RES1   0.0000
    76 C11L    -1.8500   1.2642  13.0629   C.2       1 RES1   0.0000
    77 C12L    -0.9029   0.3533  13.4302   C.2       1 RES1   0.0000
    78 H9L     -0.8409  -0.5284  13.1392   H         1 RES1   0.0000
    79 C13L    -0.0518   0.9908  14.3153   C.2       1 RES1   0.0000
    80 C17L     1.1545   0.4086  15.0062   C.3       1 RES1   0.0000
    81 H19L     1.5604   1.0783  15.5610   H         1 RES1   0.0000
    82 H20L     1.7868   0.1106  14.3480   H         1 RES1   0.0000
    83 H21L     0.8839  -0.3364  15.5482   H         1 RES1   0.0000
    84 C16L    -2.9919   1.1628  12.0997   C.3       1 RES1   0.0000
    85 H16L    -3.4660   1.9969  12.0747   H         1 RES1   0.0000
    86 H17L    -3.5887   0.4654  12.3843   H         1 RES1   0.0000
    87 H18L    -2.6555   0.9601  11.2222   H         1 RES1   0.0000
    88 P1       0.0000   3.8403   0.8152   P.3       2 RES2  -1.0000
    89 F1       1.2860   4.7896   0.8338   F         2 RES2   0.0000
    90 F2       0.6424   2.9447   1.9446   F         2 RES2   0.0000
    91 F3      -0.6095   4.7051  -0.3160   F         2 RES2   0.0000
    92 F1L     -1.2860   2.8909   0.8338   F         2 RES2   0.0000
    93 F2L     -0.6424   4.7358   1.9446   F         2 RES2   0.0000
    94 F3L      0.6095   2.9754  -0.3160   F         2 RES2   0.0000
    95 P2       0.0000   3.8403   9.9812   P.3       3 RES3  -1.0000
    96 F4       0.3047   2.7911   8.8281   F         3 RES3   0.0000
    97 F5       1.5263   4.2489   9.9486   F         3 RES3   0.0000
    98 F6       0.2870   2.7819  11.0895   F         3 RES3   0.0000
    99 F4L     -0.3047   4.8894   8.8281   F         3 RES3   0.0000
   100 F5L     -1.5263   3.4316   9.9486   F         3 RES3   0.0000
   101 F6L     -0.2870   4.8986  11.0895   F         3 RES3   0.0000
@<TRIPOS>BOND
     1     1     2    1
     2     2     5    1
     3     3     1    1
     4     4     1    1
     5     5    10    1
     6     6     4    1
     7     7     2    2
     8     8     7    1
     9     9     8    1
    10    10     8    2
    11    11     5    1
    12    12    11    1
    13    13    11    1
    14    14     3   ar
    15    15    14   ar
    16    16    15    1
    17    17    15   ar
    18    18    17    1
    19    19    17   ar
    20    20    19    1
    21    21     3   ar
    22    22     6    1
    23    23    22    1
    24    24    22    1
    25    25     6    1
    26    26    25    2
    27    27    26    1
    28    28     4    2
    29    29     7    1
    30    30    29    1
    31    31    29    1
    32    32    29    1
    33    33    10    1
    34    34    33    1
    35    35    33    1
    36    36    33    1
    37    37    25    1
    38    38    37    1
    39    39    37    1
    40    40    37    1
    41    41    28    1
    42    42    41    1
    43    43    41    1
    44    44    41    1
    45    45     1    1
    46    46    45    1
    47    47    46    1
    48    48    47    2
    49    49    45    2
    50    50    49    1
    51    51    50    1
    52    52    50    1
    53    53    50    1
    54    54    48    1
    55    55    47    1
    56    56    55    1
    57    57    55    1
    58    58    55    1
    59    59    46    1
    60    60    59    1
    61    61    59    1
    62    62    59    1
    63    63     1    1
    64    64     1    1
    65    65    64    1
    66    66    65    1
    67    67    63   ar
    68    68    67   ar
    69    69    68   ar
    70    70    62   ar
    71    71    70    1
    72    72    69    1
    73    73    68    1
    74    74    66    1
    75    75    66    1
    76    76    65    1
    77    77    76    2
    78    78    77    1
    79    79    64    2
    80    80    79    1
    81    81    80    1
    82    82    80    1
    83    83    80    1
    84    84    76    1
    85    85    84    1
    86    86    84    1
    87    87    84    1
    88    11    14    1
    89    19    21   ar
    90    21    22    1
    91    26    28    1
    92    48    49    1
    93    62    63   ar
    94    66    67    1
    95    69    70   ar
    96    77    79    1
    97    88    89    1
    98    90    88    1
    99    91    88    1
   100    92    88    1
   101    93    88    1
   102    94    88    1
   103    95    96    1
   104    97    95    1
   105    98    95    1
   106    99    95    1
   107   100    95    1
   108   101    95    1
@<TRIPOS>SUBSTRUCTURE
     1 RES1        1 GROUP             0 ****  ****    0  
     2 RES2       88 GROUP             0 ****  ****    0  
     3 RES3       95 GROUP             0 ****  ****    0  
@<TRIPOS>CRYSIN
   12.6452   15.3610   42.4120   90.0000   90.0000   90.0000    73     1
