@<TRIPOS>MOLECULE
NIPJEB
    55    64     1     0     0
SMALL
NO_CHARGES
****
Generated from the CSD

@<TRIPOS>ATOM
     1 Fe1     13.8068   4.4668   9.7630   Fe        1 RES1   0.0000
     2 P1      15.5024   3.6871   8.6606   P.3       1 RES1   0.0000
     3 P2      15.4312   4.5228  11.1747   P.3       1 RES1   0.0000
     4 P3      12.1447   4.2682   8.3984   P.3       1 RES1   0.0000
     5 P4      12.1377   5.3604  10.8274   P.3       1 RES1   0.0000
     6 C1      16.6874   3.6951  10.0700   C.3       1 RES1   0.0000
     7 C2      10.9058   5.1627   9.4583   C.3       1 RES1   0.0000
     8 C3      16.4500   4.5697   7.3542   C.ar      1 RES1   0.0000
     9 C4      17.7322   4.1284   7.0226   C.ar      1 RES1   0.0000
    10 C5      18.4732   4.7604   6.0344   C.ar      1 RES1   0.0000
    11 C6      17.9282   5.8496   5.3801   C.ar      1 RES1   0.0000
    12 C7      16.6791   6.2989   5.7274   C.ar      1 RES1   0.0000
    13 C8      15.9270   5.6699   6.7133   C.ar      1 RES1   0.0000
    14 C9      15.4515   2.0038   7.9390   C.ar      1 RES1   0.0000
    15 C10     15.6131   0.8566   8.6964   C.ar      1 RES1   0.0000
    16 C11     15.3688  -0.4044   8.1497   C.ar      1 RES1   0.0000
    17 C12     14.9664  -0.5142   6.8568   C.ar      1 RES1   0.0000
    18 C13     14.8089   0.6100   6.0725   C.ar      1 RES1   0.0000
    19 C14     15.0550   1.8630   6.6282   C.ar      1 RES1   0.0000
    20 C15     16.1583   6.1232  11.6744   C.ar      1 RES1   0.0000
    21 C16     16.7855   6.9299  10.7310   C.ar      1 RES1   0.0000
    22 C17     17.1742   8.2228  11.0313   C.ar      1 RES1   0.0000
    23 C18     16.8969   8.7470  12.2705   C.ar      1 RES1   0.0000
    24 C19     16.2624   7.9882  13.2093   C.ar      1 RES1   0.0000
    25 C20     15.8938   6.6743  12.9248   C.ar      1 RES1   0.0000
    26 C21     15.5634   3.5124  12.6872   C.ar      1 RES1   0.0000
    27 C22     16.7473   3.4545  13.3953   C.ar      1 RES1   0.0000
    28 C23     16.9256   2.5409  14.4149   C.ar      1 RES1   0.0000
    29 C24     15.9215   1.6843  14.7465   C.ar      1 RES1   0.0000
    30 C25     14.7539   1.7422  14.0631   C.ar      1 RES1   0.0000
    31 C26     14.5607   2.6537  13.0502   C.ar      1 RES1   0.0000
    32 C27     12.1307   5.1358   6.7828   C.ar      1 RES1   0.0000
    33 C28     12.1573   4.4658   5.5706   C.ar      1 RES1   0.0000
    34 C29     12.2618   5.1358   4.3628   C.ar      1 RES1   0.0000
    35 C30     12.3841   6.5116   4.3650   C.ar      1 RES1   0.0000
    36 C31     12.3710   7.1955   5.5414   C.ar      1 RES1   0.0000
    37 C32     12.2348   6.5196   6.7626   C.ar      1 RES1   0.0000
    38 C33     11.3198   2.6937   7.9928   C.ar      1 RES1   0.0000
    39 C34     10.1134   2.6398   7.3027   C.ar      1 RES1   0.0000
    40 C35      9.5322   1.4317   6.9733   C.ar      1 RES1   0.0000
    41 C36     10.1349   0.2476   7.3564   C.ar      1 RES1   0.0000
    42 C37     11.3038   0.2676   8.0757   C.ar      1 RES1   0.0000
    43 C38     11.8965   1.4976   8.3805   C.ar      1 RES1   0.0000
    44 C39     12.0257   7.1366  11.2711   C.ar      1 RES1   0.0000
    45 C40     13.1302   7.9483  11.0515   C.ar      1 RES1   0.0000
    46 C41     13.0464   9.3131  11.3316   C.ar      1 RES1   0.0000
    47 C42     11.8809   9.8612  11.7977   C.ar      1 RES1   0.0000
    48 C43     10.7783   9.0655  12.0173   C.ar      1 RES1   0.0000
    49 C44     10.8469   7.7037  11.7596   C.ar      1 RES1   0.0000
    50 C45     11.3639   4.5627  12.2973   C.ar      1 RES1   0.0000
    51 C46     10.6649   3.3676  12.1696   C.ar      1 RES1   0.0000
    52 C47     10.1633   2.7156  13.2766   C.ar      1 RES1   0.0000
    53 C48     10.3604   3.2099  14.5336   C.ar      1 RES1   0.0000
    54 C49     11.0776   4.3800  14.6815   C.ar      1 RES1   0.0000
    55 C50     11.5792   5.0449  13.5813   C.ar      1 RES1   0.0000
@<TRIPOS>BOND
     1     1     2    1
     2     2     6    1
     3     3     1    1
     4     4     1    1
     5     5     1    1
     6     6     3    1
     7     7     4    1
     8     8     2    1
     9     9     8   ar
    10    10     9   ar
    11    11    10   ar
    12    12    11   ar
    13    13     8   ar
    14    14     2    1
    15    15    14   ar
    16    16    15   ar
    17    17    16   ar
    18    18    17   ar
    19    19    14   ar
    20    20     3    1
    21    21    20   ar
    22    22    21   ar
    23    23    22   ar
    24    24    23   ar
    25    25    20   ar
    26    26     3    1
    27    27    26   ar
    28    28    27   ar
    29    29    28   ar
    30    30    29   ar
    31    31    26   ar
    32    32     4    1
    33    33    32   ar
    34    34    33   ar
    35    35    34   ar
    36    36    35   ar
    37    37    32   ar
    38    38     4    1
    39    39    38   ar
    40    40    39   ar
    41    41    40   ar
    42    42    41   ar
    43    43    38   ar
    44    44     5    1
    45    45    44   ar
    46    46    45   ar
    47    47    46   ar
    48    48    47   ar
    49    49    44   ar
    50    50     5    1
    51    51    50   ar
    52    52    51   ar
    53    53    52   ar
    54    54    53   ar
    55    55    50   ar
    56     5     7    1
    57    12    13   ar
    58    18    19   ar
    59    24    25   ar
    60    30    31   ar
    61    36    37   ar
    62    42    43   ar
    63    48    49   ar
    64    54    55   ar
@<TRIPOS>SUBSTRUCTURE
     1 RES1        1 GROUP             0 ****  ****    0  
@<TRIPOS>CRYSIN
   18.5410    9.9840   22.4100   90.0000   90.8200   90.0000    14     1
