@<TRIPOS>MOLECULE
NIPORF
    58    70     1     0     0
SMALL
NO_CHARGES
****
Generated from the CSD

@<TRIPOS>ATOM
     1 Fe1      3.0847   3.7639   1.4831   Fe        1 RES1   0.0000
     2 O1       4.8052   1.7677   0.8186   O.2       1 RES1   0.0000
     3 N1       4.6386   4.0626   2.6879   N.2       1 RES1   0.0000
     4 N2       3.9536   4.8539   0.0575   N.2       1 RES1   0.0000
     5 N3       1.4222   3.6495   0.3523   N.2       1 RES1   0.0000
     6 N4       2.1131   2.8388   2.9652   N.2       1 RES1   0.0000
     7 N5       3.8346   2.3051   0.8997   N.2       1 RES1   0.0000
     8 N6       2.1932   5.8533   2.4342   N.2       1 RES1   0.0000
     9 C1       4.7918   3.5990   3.9697   C.2       1 RES1   0.0000
    10 C2       5.7889   4.7710   2.3797   C.2       1 RES1   0.0000
    11 C3       5.2017   5.4471   0.0996   C.2       1 RES1   0.0000
    12 C4       3.4829   5.1353  -1.2161   C.2       1 RES1   0.0000
    13 C5       1.2997   4.0709  -0.9655   C.2       1 RES1   0.0000
    14 C6       0.2642   2.9287   0.6450   C.2       1 RES1   0.0000
    15 C7       0.8744   2.2139   2.8953   C.2       1 RES1   0.0000
    16 C8       2.6176   2.5036   4.2182   C.2       1 RES1   0.0000
    17 C9       6.0439   4.0545   4.4914   C.2       1 RES1   0.0000
    18 C10      6.6516   4.7849   3.5516   C.2       1 RES1   0.0000
    19 C11      5.4800   6.1084  -1.1257   C.2       1 RES1   0.0000
    20 C12      4.4115   5.9257  -1.9586   C.2       1 RES1   0.0000
    21 C13      0.0166   3.6247  -1.4605   C.2       1 RES1   0.0000
    22 C14     -0.6067   2.9532  -0.5043   C.2       1 RES1   0.0000
    23 C15      0.6044   1.5187   4.1381   C.2       1 RES1   0.0000
    24 C16      1.6646   1.6981   4.9105   C.2       1 RES1   0.0000
    25 C17      6.0418   5.4302   1.2089   C.2       1 RES1   0.0000
    26 C18      2.2301   4.7535  -1.6824   C.2       1 RES1   0.0000
    27 C19      0.0042   2.2710   1.8077   C.2       1 RES1   0.0000
    28 C20      3.8687   2.8751   4.6886   C.2       1 RES1   0.0000
    29 C21      7.3518   6.1545   1.1247   C.ar      1 RES1   0.0000
    30 C22      7.3964   7.4713   1.5355   C.ar      1 RES1   0.0000
    31 C23      8.6123   8.1964   1.4862   C.ar      1 RES1   0.0000
    32 C24      9.7001   7.5893   1.0261   C.ar      1 RES1   0.0000
    33 C25      9.6993   6.3304   0.5885   C.ar      1 RES1   0.0000
    34 C26      8.4978   5.5702   0.6132   C.ar      1 RES1   0.0000
    35 C27      1.9055   5.0792  -3.1110   C.ar      1 RES1   0.0000
    36 C28      2.4802   4.3117  -4.1299   C.ar      1 RES1   0.0000
    37 C29      2.2184   4.6104  -5.4682   C.ar      1 RES1   0.0000
    38 C30      1.4273   5.6575  -5.7896   C.ar      1 RES1   0.0000
    39 C31      0.8316   6.4080  -4.8293   C.ar      1 RES1   0.0000
    40 C32      1.0665   6.1116  -3.4695   C.ar      1 RES1   0.0000
    41 C33     -1.2898   1.5185   1.9350   C.ar      1 RES1   0.0000
    42 C34     -1.3172   0.1526   1.6248   C.ar      1 RES1   0.0000
    43 C35     -2.5593  -0.5322   1.7029   C.ar      1 RES1   0.0000
    44 C36     -3.6779   0.1186   2.0542   C.ar      1 RES1   0.0000
    45 C37     -3.6500   1.4347   2.3674   C.ar      1 RES1   0.0000
    46 C38     -2.4393   2.1471   2.2894   C.ar      1 RES1   0.0000
    47 C39      4.2069   2.4872   6.1050   C.ar      1 RES1   0.0000
    48 C40      5.0753   1.4434   6.3556   C.ar      1 RES1   0.0000
    49 C41      5.3528   1.0791   7.6826   C.ar      1 RES1   0.0000
    50 C42      4.7613   1.7569   8.6994   C.ar      1 RES1   0.0000
    51 C43      3.9327   2.7878   8.4826   C.ar      1 RES1   0.0000
    52 C44      3.6227   3.1663   7.1700   C.ar      1 RES1   0.0000
    53 C45      2.7033   6.1208   3.7642   C.3       1 RES1   0.0000
    54 C46      2.1893   7.4393   4.3805   C.3       1 RES1   0.0000
    55 C47      2.4679   8.6693   3.5270   C.3       1 RES1   0.0000
    56 C48      1.9309   8.3478   2.1671   C.3       1 RES1   0.0000
    57 C49      2.4113   7.0126   1.5745   C.3       1 RES1   0.0000
    58 C50      1.9749  10.0055   4.0939   C.3       1 RES1   0.0000
@<TRIPOS>BOND
     1     1     3    1
     2     2     7    2
     3     3     9    1
     4     4     1    1
     5     5     1    1
     6     6     1    1
     7     7     1    1
     8     8     1    1
     9     9    17    2
    10    10     3    1
    11    11     4    1
    12    12     4    2
    13    13     5    1
    14    14     5    1
    15    15     6    2
    16    16     6    1
    17    17    18    1
    18    18    10    2
    19    19    11    1
    20    20    12    1
    21    21    13    1
    22    22    14    1
    23    23    15    1
    24    24    16    1
    25    25    10    1
    26    26    12    1
    27    27    14    2
    28    28     9    1
    29    29    25    1
    30    30    29   ar
    31    31    30   ar
    32    32    31   ar
    33    33    32   ar
    34    34    29   ar
    35    35    26    1
    36    36    35   ar
    37    37    36   ar
    38    38    37   ar
    39    39    38   ar
    40    40    35   ar
    41    41    27    1
    42    42    41   ar
    43    43    42   ar
    44    44    43   ar
    45    45    44   ar
    46    46    41   ar
    47    47    28    1
    48    48    47   ar
    49    49    48   ar
    50    50    49   ar
    51    51    50   ar
    52    52    47   ar
    53    53     8    1
    54    54    53    1
    55    55    54    1
    56    56    55    1
    57    57     8    1
    58    58    55    1
    59    11    25    2
    60    13    26    2
    61    15    27    1
    62    16    28    2
    63    19    20    2
    64    21    22    2
    65    23    24    2
    66    33    34   ar
    67    39    40   ar
    68    45    46   ar
    69    51    52   ar
    70    56    57    1
@<TRIPOS>SUBSTRUCTURE
     1 RES1        1 GROUP             0 ****  ****    0  
@<TRIPOS>CRYSIN
   11.5500   17.2360   10.6680   87.8300  105.6200   92.9300     2     1
