@<TRIPOS>MOLECULE
NIPZUH
    57    62     4     0     0
SMALL
USER_CHARGES
****
Generated from the CSD

@<TRIPOS>ATOM
     1 Fe1      9.0103   4.4231   8.8039   Fe        1 RES1   2.0000
     2 O1       7.9855   5.0507   4.4014   O.3       1 RES1   0.0000
     3 O2      13.5440   5.0952   8.8947   O.3       1 RES1   0.0000
     4 O3       7.6889   3.8260  10.2394   O.3       1 RES1   0.0000
     5 N1      10.2855   4.9811   7.2352   N.ar      1 RES1   0.0000
     6 N2       7.6413   5.8423   7.9428   N.ar      1 RES1   0.0000
     7 N3       8.0801   3.0431   7.3610   N.ar      1 RES1   0.0000
     8 N4      10.6379   3.0441   9.4083   N.ar      1 RES1   0.0000
     9 N5      10.1330   5.7973  10.0023   N.ar      1 RES1   0.0000
    10 C1       9.8059   4.9833   5.9800   C.ar      1 RES1   0.0000
    11 C2      10.6483   4.9190   4.8834   C.ar      1 RES1   0.0000
    12 C3      12.0159   4.8863   5.0967   C.ar      1 RES1   0.0000
    13 C4      12.5021   4.9130   6.3752   C.ar      1 RES1   0.0000
    14 C5      11.6208   4.9800   7.4398   C.ar      1 RES1   0.0000
    15 C6       8.2859   4.8588   5.7635   C.3       1 RES1   0.0000
    16 C7       8.2002   6.3568   3.8438   C.3       1 RES1   0.0000
    17 C8       7.3539   5.7307   6.6382   C.ar      1 RES1   0.0000
    18 C9       6.1908   6.2185   6.0976   C.ar      1 RES1   0.0000
    19 C10      5.3197   6.9404   6.9022   C.ar      1 RES1   0.0000
    20 C11      5.6367   7.1324   8.2201   C.ar      1 RES1   0.0000
    21 C12      6.7822   6.5545   8.7075   C.ar      1 RES1   0.0000
    22 C13      7.9065   3.4060   6.0779   C.ar      1 RES1   0.0000
    23 C14      7.3955   2.5666   5.1230   C.ar      1 RES1   0.0000
    24 C15      7.0025   1.2914   5.5095   C.ar      1 RES1   0.0000
    25 C16      7.1360   0.9227   6.8119   C.ar      1 RES1   0.0000
    26 C17      7.6690   1.8068   7.7086   C.ar      1 RES1   0.0000
    27 C18     12.1456   4.8943   8.8846   C.3       1 RES1   0.0000
    28 C19     14.0237   6.4083   8.5207   C.3       1 RES1   0.0000
    29 C20     11.9247   3.4376   9.3449   C.ar      1 RES1   0.0000
    30 C21     12.9749   2.6078   9.6906   C.ar      1 RES1   0.0000
    31 C22     12.6951   1.3164  10.1110   C.ar      1 RES1   0.0000
    32 C23     11.3909   0.9020  10.1839   C.ar      1 RES1   0.0000
    33 C24     10.3961   1.7920   9.8338   C.ar      1 RES1   0.0000
    34 C25     11.4689   5.7630   9.9618   C.ar      1 RES1   0.0000
    35 C26     12.2488   6.3432  10.9547   C.ar      1 RES1   0.0000
    36 C27     11.6312   7.0120  11.9951   C.ar      1 RES1   0.0000
    37 C28     10.2628   7.1080  12.0071   C.ar      1 RES1   0.0000
    38 C29      9.5514   6.4783  11.0163   C.ar      1 RES1   0.0000
    39 C30      7.8190   3.4297  11.5986   C.3       1 RES1   0.0000
    40 S1       8.3990  11.4276  10.9341   S.o2      2 RES2   0.0000
    41 F1       6.8999   9.5290   9.9855   F         2 RES2   0.0000
    42 F2       7.4869   9.2542  11.9952   F         2 RES2   0.0000
    43 F3       5.9748  10.6971  11.5168   F         2 RES2   0.0000
    44 O4       7.8345  12.3212   9.9904   O.3       2 RES2  -1.0000
    45 O5       9.5262  10.6954  10.4507   O.2       2 RES2   0.0000
    46 O6       8.5495  11.9579  12.2241   O.2       2 RES2   0.0000
    47 C31      7.1151  10.1672  11.0790   C.3       2 RES2   0.0000
    48 S2       3.3408   4.8047   3.9682   S.o2      3 RES3   0.0000
    49 F4       4.0928   2.5854   5.0709   F         3 RES3   0.0000
    50 F5       1.9917   2.7122   4.7844   F         3 RES3   0.0000
    51 F6       3.2965   2.3505   3.1309   F         3 RES3   0.0000
    52 O7       2.3101   5.0647   3.0187   O.3       3 RES3  -1.0000
    53 O8       4.6828   4.9481   3.4657   O.2       3 RES3   0.0000
    54 O9       3.0870   5.3703   5.2549   O.2       3 RES3   0.0000
    55 C32      3.1709   3.0221   4.2596   C.3       3 RES3   0.0000
    56 O10      5.2575   3.7425   9.9374   O.3       4 RES4   0.0000
    57 C33      4.4977   3.4670   8.4553   C.3       4 RES4   0.0000
@<TRIPOS>BOND
     1     1     4    1
     2     2    15    1
     3     3    27    1
     4     4    39    1
     5     5     1    1
     6     6     1    1
     7     7     1    1
     8     8     1    1
     9     9     1    1
    10    10     5   ar
    11    11    10   ar
    12    12    11   ar
    13    13    12   ar
    14    14     5   ar
    15    15    10    1
    16    16     2    1
    17    17     6   ar
    18    18    17   ar
    19    19    18   ar
    20    20    19   ar
    21    21     6   ar
    22    22     7   ar
    23    23    22   ar
    24    24    23   ar
    25    25    24   ar
    26    26     7   ar
    27    27    14    1
    28    28     3    1
    29    29     8   ar
    30    30    29   ar
    31    31    30   ar
    32    32    31   ar
    33    33     8   ar
    34    34     9   ar
    35    35    34   ar
    36    36    35   ar
    37    37    36   ar
    38    38     9   ar
    39    13    14   ar
    40    15    17    1
    41    15    22    1
    42    20    21   ar
    43    25    26   ar
    44    27    29    1
    45    27    34    1
    46    32    33   ar
    47    37    38   ar
    48    40    44    1
    49    41    47    1
    50    42    47    1
    51    43    47    1
    52    45    40    2
    53    46    40    2
    54    47    40    1
    55    48    52    1
    56    49    55    1
    57    50    55    1
    58    51    55    1
    59    53    48    2
    60    54    48    2
    61    55    48    1
    62    56    57    1
@<TRIPOS>SUBSTRUCTURE
     1 RES1        1 GROUP             0 ****  ****    0  
     2 RES2       40 GROUP             0 ****  ****    0  
     3 RES3       48 GROUP             0 ****  ****    0  
     4 RES4       56 GROUP             0 ****  ****    0  
@<TRIPOS>CRYSIN
   12.4170   12.6720   13.3450   80.0000   63.5090   89.5100     2     1
