@<TRIPOS>MOLECULE
NIQFUP02
    78    83     3     0     0
SMALL
USER_CHARGES
****
Generated from the CSD

@<TRIPOS>ATOM
     1 Fe1      6.7540   1.3511  11.1136   Fe        1 RES1   2.0000
     2 N1       5.8859   1.7271   9.4006   N.2       1 RES1   0.0000
     3 N2       8.1456   2.6881  10.3539   N.ar      1 RES1   0.0000
     4 N3       7.4447   1.0666  13.0576   N.ar      1 RES1   0.0000
     5 N4       5.9533   2.9130  11.9595   N.2       1 RES1   0.0000
     6 N5       5.3576   0.1285  11.6578   N.2       1 RES1   0.0000
     7 N6       7.4584  -0.3747  10.1866   N.ar      1 RES1   0.0000
     8 N7       3.2843   2.1350  10.9005   N.3       1 RES1   0.0000
     9 C1       5.4340  -1.0662  11.2068   C.2       1 RES1   0.0000
    10 H1       4.7974  -1.7277  11.4500   H         1 RES1   0.0000
    11 C2       6.5327  -1.3691  10.3100   C.ar      1 RES1   0.0000
    12 C3       6.6332  -2.6014   9.6875   C.ar      1 RES1   0.0000
    13 H2       5.9467  -3.2510   9.7883   H         1 RES1   0.0000
    14 C4       7.7485  -2.8723   8.9168   C.ar      1 RES1   0.0000
    15 H3       7.8438  -3.7054   8.4694   H         1 RES1   0.0000
    16 C5       8.7111  -1.9039   8.8189   C.ar      1 RES1   0.0000
    17 H4       9.4982  -2.0789   8.3161   H         1 RES1   0.0000
    18 C6       8.5590  -0.6535   9.4472   C.ar      1 RES1   0.0000
    19 C7       6.5215   2.5252   8.6222   C.2       1 RES1   0.0000
    20 H5       6.1908   2.7337   7.7566   H         1 RES1   0.0000
    21 C8       7.7626   3.1002   9.1098   C.ar      1 RES1   0.0000
    22 C9       8.4815   3.9866   8.3254   C.ar      1 RES1   0.0000
    23 H6       8.1762   4.2265   7.4589   H         1 RES1   0.0000
    24 C10      9.6533   4.5137   8.8340   C.ar      1 RES1   0.0000
    25 H7      10.1781   5.1181   8.3236   H         1 RES1   0.0000
    26 C11     10.0430   4.1366  10.1066   C.ar      1 RES1   0.0000
    27 H8      10.8361   4.5014  10.4815   H         1 RES1   0.0000
    28 C12      9.2850   3.2241  10.8513   C.ar      1 RES1   0.0000
    29 C13      6.2462   3.1042  13.1926   C.2       1 RES1   0.0000
    30 H9       5.9702   3.8906  13.6486   H         1 RES1   0.0000
    31 C14      7.0124   2.0781  13.8624   C.ar      1 RES1   0.0000
    32 C15      7.1979   2.1224  15.2360   C.ar      1 RES1   0.0000
    33 H10      6.9041   2.8712  15.7404   H         1 RES1   0.0000
    34 C16      7.8159   1.0587  15.8543   C.ar      1 RES1   0.0000
    35 H11      7.9622   1.0538  16.7930   H         1 RES1   0.0000
    36 C17      8.2160  -0.0006  15.0639   C.ar      1 RES1   0.0000
    37 H12      8.6074  -0.7636  15.4727   H         1 RES1   0.0000
    38 C18      8.0573   0.0254  13.6699   C.ar      1 RES1   0.0000
    39 C19      5.0317   3.8806  11.3539   C.3       1 RES1   0.0000
    40 H13      5.2462   3.9879  10.3928   H         1 RES1   0.0000
    41 H14      5.1404   4.7611  11.7929   H         1 RES1   0.0000
    42 C20      3.5824   3.4055  11.5065   C.3       1 RES1   0.0000
    43 H15      3.3717   3.3484  12.4726   H         1 RES1   0.0000
    44 H16      2.9851   4.0891  11.1116   H         1 RES1   0.0000
    45 C21      4.2283   0.4398  12.5404   C.3       1 RES1   0.0000
    46 H17      4.5102   1.1130  13.2094   H         1 RES1   0.0000
    47 H18      3.9541  -0.3780  13.0245   H         1 RES1   0.0000
    48 C22      3.0278   0.9862  11.7390   C.3       1 RES1   0.0000
    49 H19      2.6809   0.2577  11.1658   H         1 RES1   0.0000
    50 H20      2.3117   1.2256  12.3793   H         1 RES1   0.0000
    51 C23      4.5925   1.2099   8.9290   C.3       1 RES1   0.0000
    52 H21      4.5077   0.2615   9.2003   H         1 RES1   0.0000
    53 H22      4.5753   1.2428   7.9401   H         1 RES1   0.0000
    54 C24      3.3884   1.9945   9.4756   C.3       1 RES1   0.0000
    55 H23      3.4107   2.9017   9.0800   H         1 RES1   0.0000
    56 H24      2.5637   1.5539   9.1507   H         1 RES1   0.0000
    57 C25      8.6078  -1.1057  12.8648   C.3       1 RES1   0.0000
    58 H25      7.8700  -1.6112  12.4651   H         1 RES1   0.0000
    59 H26      9.1308  -1.6952  13.4455   H         1 RES1   0.0000
    60 H27      9.1838  -0.7521  12.1553   H         1 RES1   0.0000
    61 C26      9.6713   0.3404   9.3251   C.3       1 RES1   0.0000
    62 H28      9.3787   1.0900   8.7672   H         1 RES1   0.0000
    63 H29     10.4496  -0.0897   8.9131   H         1 RES1   0.0000
    64 H30      9.9130   0.6701  10.2154   H         1 RES1   0.0000
    65 C27      9.7940   2.8110  12.1921   C.3       1 RES1   0.0000
    66 H31      9.2305   3.2033  12.8906   H         1 RES1   0.0000
    67 H32     10.7165   3.1231  12.3027   H         1 RES1   0.0000
    68 H33      9.7694   1.8346  12.2636   H         1 RES1   0.0000
    69 Cl1     13.6518   6.0602   8.1160   Cl        2 RES2   0.0000
    70 O1      13.3211   5.8811   9.4959   O.3       2 RES2  -1.0000
    71 O2      14.4774   4.9651   7.6643   O.2       2 RES2   0.0000
    72 O3      12.4376   6.0974   7.3383   O.2       2 RES2   0.0000
    73 O7      14.3389   7.2955   7.9375   O.2       2 RES2   0.0000
    74 Cl2     12.1934  -2.8167  10.5432   Cl        3 RES3   0.0000
    75 O4      11.5898  -3.9665   9.9859   O.3       3 RES3  -1.0000
    76 O5      13.1151  -2.3137   9.6185   O.2       3 RES3   0.0000
    77 O6      11.2152  -1.8588  10.8467   O.2       3 RES3   0.0000
    78 O8      12.8886  -3.0865  11.7601   O.2       3 RES3   0.0000
@<TRIPOS>BOND
     1     1     2    1
     2     2    19    2
     3     3     1    1
     4     4     1    1
     5     5     1    1
     6     6     1    1
     7     7     1    1
     8     8    42    1
     9     9     6    2
    10    10     9    1
    11    11     7   ar
    12    12    11   ar
    13    13    12    1
    14    14    12   ar
    15    15    14    1
    16    16    14   ar
    17    17    16    1
    18    18     7   ar
    19    19    20    1
    20    21     3   ar
    21    22    21   ar
    22    23    22    1
    23    24    22   ar
    24    25    24    1
    25    26    24   ar
    26    27    26    1
    27    28     3   ar
    28    29     5    2
    29    30    29    1
    30    31     4   ar
    31    32    31   ar
    32    33    32    1
    33    34    32   ar
    34    35    34    1
    35    36    34   ar
    36    37    36    1
    37    38     4   ar
    38    39     5    1
    39    40    39    1
    40    41    39    1
    41    42    39    1
    42    43    42    1
    43    44    42    1
    44    45     6    1
    45    46    45    1
    46    47    45    1
    47    48     8    1
    48    49    48    1
    49    50    48    1
    50    51     2    1
    51    52    51    1
    52    53    51    1
    53    54     8    1
    54    55    54    1
    55    56    54    1
    56    57    38    1
    57    58    57    1
    58    59    57    1
    59    60    57    1
    60    61    18    1
    61    62    61    1
    62    63    61    1
    63    64    61    1
    64    65    28    1
    65    66    65    1
    66    67    65    1
    67    68    65    1
    68     9    11    1
    69    16    18   ar
    70    19    21    1
    71    26    28   ar
    72    29    31    1
    73    36    38   ar
    74    45    48    1
    75    51    54    1
    76    69    70    1
    77    71    69    2
    78    72    69    2
    79    73    69    2
    80    74    75    1
    81    76    74    2
    82    77    74    2
    83    78    74    2
@<TRIPOS>SUBSTRUCTURE
     1 RES1        1 GROUP             0 ****  ****    0  
     2 RES2       69 GROUP             0 ****  ****    0  
     3 RES3       74 GROUP             0 ****  ****    0  
@<TRIPOS>CRYSIN
   10.1952   19.0901   15.0429   90.0000   91.4510   90.0000    14     1
