@<TRIPOS>MOLECULE
NIQFUP10
    78    83     3     0     0
SMALL
USER_CHARGES
****
Generated from the CSD

@<TRIPOS>ATOM
     1 Fe1      7.1044   1.3802  11.2853   Fe        1 RES1   2.0000
     2 N1       6.3869   1.9716   9.3599   N.2       1 RES1   0.0000
     3 N2       8.6560   2.9124  10.5497   N.ar      1 RES1   0.0000
     4 N3       7.7407   1.0290  13.4408   N.ar      1 RES1   0.0000
     5 N4       6.2165   2.9837  12.3563   N.2       1 RES1   0.0000
     6 N5       5.6241  -0.0886  11.6529   N.2       1 RES1   0.0000
     7 N6       7.8899  -0.5273  10.2455   N.ar      1 RES1   0.0000
     8 N7       3.9910   2.0851  10.8928   N.3       1 RES1   0.0000
     9 C1       5.8011  -1.2363  11.1743   C.2       1 RES1   0.0000
    10 H1       5.1836  -1.9099  11.3465   H         1 RES1   0.0000
    11 C2       6.9710  -1.5195  10.3502   C.ar      1 RES1   0.0000
    12 C3       7.1145  -2.7414   9.7289   C.ar      1 RES1   0.0000
    13 H2       6.4583  -3.3962   9.8066   H         1 RES1   0.0000
    14 C4       8.2556  -2.9718   8.9855   C.ar      1 RES1   0.0000
    15 H3       8.3770  -3.7828   8.5468   H         1 RES1   0.0000
    16 C5       9.1844  -2.0132   8.9040   C.ar      1 RES1   0.0000
    17 H4       9.9622  -2.1683   8.4174   H         1 RES1   0.0000
    18 C6       9.0045  -0.7785   9.5400   C.ar      1 RES1   0.0000
    19 C7       7.0755   2.8158   8.7283   C.2       1 RES1   0.0000
    20 H5       6.7990   3.0989   7.8873   H         1 RES1   0.0000
    21 C8       8.3081   3.3558   9.3083   C.ar      1 RES1   0.0000
    22 C9       9.0701   4.2530   8.5941   C.ar      1 RES1   0.0000
    23 H6       8.8140   4.5230   7.7411   H         1 RES1   0.0000
    24 C10     10.2462   4.7517   9.1851   C.ar      1 RES1   0.0000
    25 H7      10.7845   5.3604   8.7327   H         1 RES1   0.0000
    26 C11     10.5751   4.3245  10.4296   C.ar      1 RES1   0.0000
    27 H8      11.3482   4.6454  10.8363   H         1 RES1   0.0000
    28 C12      9.7709   3.4121  11.1028   C.ar      1 RES1   0.0000
    29 C13      6.4888   3.0595  13.5839   C.2       1 RES1   0.0000
    30 H9       6.1909   3.7886  14.0777   H         1 RES1   0.0000
    31 C14      7.2604   2.0194  14.2324   C.ar      1 RES1   0.0000
    32 C15      7.4226   2.0280  15.6024   C.ar      1 RES1   0.0000
    33 H10      7.0926   2.7317  16.1112   H         1 RES1   0.0000
    34 C16      8.0697   0.9948  16.1970   C.ar      1 RES1   0.0000
    35 H11      8.2094   0.9889  17.1165   H         1 RES1   0.0000
    36 C17      8.5131  -0.0373  15.4230   C.ar      1 RES1   0.0000
    37 H12      8.9176  -0.7733  15.8218   H         1 RES1   0.0000
    38 C18      8.3652   0.0049  14.0360   C.ar      1 RES1   0.0000
    39 C19      5.2772   3.9481  11.7928   C.3       1 RES1   0.0000
    40 H13      5.5825   4.2336  10.9170   H         1 RES1   0.0000
    41 H14      5.2231   4.7290  12.3656   H         1 RES1   0.0000
    42 C20      3.9183   3.3025  11.6756   C.3       1 RES1   0.0000
    43 H15      3.5809   3.0970  12.5621   H         1 RES1   0.0000
    44 H16      3.3014   3.9208  11.2551   H         1 RES1   0.0000
    45 C21      4.3855   0.1822  12.4067   C.3       1 RES1   0.0000
    46 H17      4.5794   0.7461  13.1714   H         1 RES1   0.0000
    47 H18      4.0045  -0.6489  12.7281   H         1 RES1   0.0000
    48 C22      3.3980   0.8844  11.4791   C.3       1 RES1   0.0000
    49 H19      3.1325   0.2778  10.7708   H         1 RES1   0.0000
    50 H20      2.6028   1.1288  11.9787   H         1 RES1   0.0000
    51 C23      5.0938   1.5283   8.7829   C.3       1 RES1   0.0000
    52 H21      5.0062   0.5673   8.8835   H         1 RES1   0.0000
    53 H22      5.0736   1.7350   7.8355   H         1 RES1   0.0000
    54 C24      3.9393   2.2135   9.4730   C.3       1 RES1   0.0000
    55 H23      3.9458   3.1553   9.2399   H         1 RES1   0.0000
    56 H24      3.1077   1.8321   9.1500   H         1 RES1   0.0000
    57 C25      8.9135  -1.0822  13.1896   C.3       1 RES1   0.0000
    58 H25      8.1919  -1.6068  12.8347   H         1 RES1   0.0000
    59 H26      9.4871  -1.6417  13.7182   H         1 RES1   0.0000
    60 H27      9.4170  -0.7014  12.4661   H         1 RES1   0.0000
    61 C26     10.0570   0.2728   9.4699   C.3       1 RES1   0.0000
    62 H28      9.7702   0.9734   8.8804   H         1 RES1   0.0000
    63 H29     10.8718  -0.1107   9.1379   H         1 RES1   0.0000
    64 H30     10.2074   0.6334  10.3473   H         1 RES1   0.0000
    65 C27     10.1746   2.9485  12.4387   C.3       1 RES1   0.0000
    66 H31      9.5490   3.2699  13.0922   H         1 RES1   0.0000
    67 H32     11.0509   3.2854  12.6428   H         1 RES1   0.0000
    68 H33     10.1891   1.9895  12.4524   H         1 RES1   0.0000
    69 Cl1     14.1995   6.1807   8.2168   Cl        2 RES2   0.0000
    70 O1      13.7791   5.9536   9.5339   O.3       2 RES2  -1.0000
    71 O2      15.0237   5.1343   7.7415   O.2       2 RES2   0.0000
    72 O3      12.9914   6.2134   7.4455   O.2       2 RES2   0.0000
    73 O7      14.8006   7.4329   8.0655   O.2       2 RES2   0.0000
    74 Cl2     12.6766  -2.8613  10.5526   Cl        3 RES3   0.0000
    75 O4      12.1152  -3.9734   9.9391   O.3       3 RES3  -1.0000
    76 O5      13.4343  -2.2946   9.6969   O.2       3 RES3   0.0000
    77 O6      11.7094  -1.9856  11.0373   O.2       3 RES3   0.0000
    78 O8      13.3852  -3.1786  11.7273   O.2       3 RES3   0.0000
@<TRIPOS>BOND
     1     1     2    1
     2     2    19    2
     3     3     1    1
     4     4     1    1
     5     5     1    1
     6     6     1    1
     7     7     1    1
     8     8    42    1
     9     9     6    2
    10    10     9    1
    11    11     7   ar
    12    12    11   ar
    13    13    12    1
    14    14    12   ar
    15    15    14    1
    16    16    14   ar
    17    17    16    1
    18    18     7   ar
    19    19    20    1
    20    21     3   ar
    21    22    21   ar
    22    23    22    1
    23    24    22   ar
    24    25    24    1
    25    26    24   ar
    26    27    26    1
    27    28     3   ar
    28    29     5    2
    29    30    29    1
    30    31     4   ar
    31    32    31   ar
    32    33    32    1
    33    34    32   ar
    34    35    34    1
    35    36    34   ar
    36    37    36    1
    37    38     4   ar
    38    39     5    1
    39    40    39    1
    40    41    39    1
    41    42    39    1
    42    43    42    1
    43    44    42    1
    44    45     6    1
    45    46    45    1
    46    47    45    1
    47    48     8    1
    48    49    48    1
    49    50    48    1
    50    51     2    1
    51    52    51    1
    52    53    51    1
    53    54     8    1
    54    55    54    1
    55    56    54    1
    56    57    38    1
    57    58    57    1
    58    59    57    1
    59    60    57    1
    60    61    18    1
    61    62    61    1
    62    63    61    1
    63    64    61    1
    64    65    28    1
    65    66    65    1
    66    67    65    1
    67    68    65    1
    68     9    11    1
    69    16    18   ar
    70    19    21    1
    71    26    28   ar
    72    29    31    1
    73    36    38   ar
    74    45    48    1
    75    51    54    1
    76    69    70    1
    77    71    69    2
    78    72    69    2
    79    73    69    2
    80    74    75    1
    81    76    74    2
    82    77    74    2
    83    78    74    2
@<TRIPOS>SUBSTRUCTURE
     1 RES1        1 GROUP             0 ****  ****    0  
     2 RES2       69 GROUP             0 ****  ****    0  
     3 RES3       74 GROUP             0 ****  ****    0  
@<TRIPOS>CRYSIN
   10.6005   19.4289   15.2382   90.0000   91.5950   90.0000    14     1
