@<TRIPOS>MOLECULE
NIQFUP01
    78    83     3     0     0
SMALL
USER_CHARGES
****
Generated from the CSD

@<TRIPOS>ATOM
     1 Fe1      6.7442   1.3471  11.1036   Fe        1 RES1   2.0000
     2 N1       5.8737   1.7226   9.3921   N.2       1 RES1   0.0000
     3 N2       8.1340   2.6829  10.3408   N.ar      1 RES1   0.0000
     4 N3       7.4376   1.0640  13.0454   N.ar      1 RES1   0.0000
     5 N4       5.9447   2.9112  11.9492   N.2       1 RES1   0.0000
     6 N5       5.3466   0.1245  11.6506   N.2       1 RES1   0.0000
     7 N6       7.4479  -0.3778  10.1754   N.ar      1 RES1   0.0000
     8 N7       3.2709   2.1315  10.8984   N.3       1 RES1   0.0000
     9 C1       5.4226  -1.0696  11.2000   C.2       1 RES1   0.0000
    10 H1       4.7864  -1.7317  11.4434   H         1 RES1   0.0000
    11 C2       6.5211  -1.3741  10.2998   C.ar      1 RES1   0.0000
    12 C3       6.6208  -2.6070   9.6775   C.ar      1 RES1   0.0000
    13 H2       5.9340  -3.2556   9.7786   H         1 RES1   0.0000
    14 C4       7.7380  -2.8778   8.9054   C.ar      1 RES1   0.0000
    15 H3       7.8334  -3.7095   8.4563   H         1 RES1   0.0000
    16 C5       8.7009  -1.9072   8.8105   C.ar      1 RES1   0.0000
    17 H4       9.4889  -2.0827   8.3091   H         1 RES1   0.0000
    18 C6       8.5489  -0.6595   9.4369   C.ar      1 RES1   0.0000
    19 C7       6.5084   2.5207   8.6099   C.2       1 RES1   0.0000
    20 H5       6.1765   2.7273   7.7441   H         1 RES1   0.0000
    21 C8       7.7487   3.0941   9.0945   C.ar      1 RES1   0.0000
    22 C9       8.4705   3.9794   8.3092   C.ar      1 RES1   0.0000
    23 H6       8.1659   4.2187   7.4421   H         1 RES1   0.0000
    24 C10      9.6453   4.5071   8.8165   C.ar      1 RES1   0.0000
    25 H7      10.1693   5.1132   8.3061   H         1 RES1   0.0000
    26 C11     10.0347   4.1268  10.0881   C.ar      1 RES1   0.0000
    27 H8      10.8299   4.4895  10.4622   H         1 RES1   0.0000
    28 C12      9.2739   3.2148  10.8350   C.ar      1 RES1   0.0000
    29 C13      6.2441   3.1049  13.1799   C.2       1 RES1   0.0000
    30 H9       5.9747   3.8945  13.6341   H         1 RES1   0.0000
    31 C14      7.0062   2.0781  13.8526   C.ar      1 RES1   0.0000
    32 C15      7.1947   2.1231  15.2243   C.ar      1 RES1   0.0000
    33 H10      6.9068   2.8742  15.7287   H         1 RES1   0.0000
    34 C16      7.8098   1.0541  15.8447   C.ar      1 RES1   0.0000
    35 H11      7.9562   1.0471  16.7835   H         1 RES1   0.0000
    36 C17      8.2055  -0.0063  15.0522   C.ar      1 RES1   0.0000
    37 H12      8.5950  -0.7705  15.4597   H         1 RES1   0.0000
    38 C18      8.0454   0.0214  13.6595   C.ar      1 RES1   0.0000
    39 C19      5.0211   3.8777  11.3441   C.3       1 RES1   0.0000
    40 H13      5.2321   3.9822  10.3826   H         1 RES1   0.0000
    41 H14      5.1312   4.7604  11.7800   H         1 RES1   0.0000
    42 C20      3.5731   3.4023  11.5037   C.3       1 RES1   0.0000
    43 H15      3.3670   3.3452  12.4696   H         1 RES1   0.0000
    44 H16      2.9741   4.0852  11.1113   H         1 RES1   0.0000
    45 C21      4.2193   0.4375  12.5347   C.3       1 RES1   0.0000
    46 H17      4.5031   1.1100  13.2029   H         1 RES1   0.0000
    47 H18      3.9456  -0.3795  13.0211   H         1 RES1   0.0000
    48 C22      3.0200   0.9834  11.7361   C.3       1 RES1   0.0000
    49 H19      2.6734   0.2537  11.1639   H         1 RES1   0.0000
    50 H20      2.3042   1.2206  12.3780   H         1 RES1   0.0000
    51 C23      4.5767   1.2040   8.9248   C.3       1 RES1   0.0000
    52 H21      4.4915   0.2575   9.2001   H         1 RES1   0.0000
    53 H22      4.5565   1.2340   7.9350   H         1 RES1   0.0000
    54 C24      3.3745   1.9921   9.4721   C.3       1 RES1   0.0000
    55 H23      3.3989   2.8989   9.0769   H         1 RES1   0.0000
    56 H24      2.5489   1.5544   9.1475   H         1 RES1   0.0000
    57 C25      8.5954  -1.1108  12.8540   C.3       1 RES1   0.0000
    58 H25      7.8572  -1.6192  12.4591   H         1 RES1   0.0000
    59 H26      9.1224  -1.6993  13.4343   H         1 RES1   0.0000
    60 H27      9.1668  -0.7572  12.1406   H         1 RES1   0.0000
    61 C26      9.6612   0.3330   9.3152   C.3       1 RES1   0.0000
    62 H28      9.3673   1.0871   8.7629   H         1 RES1   0.0000
    63 H29     10.4372  -0.0954   8.8966   H         1 RES1   0.0000
    64 H30      9.9088   0.6580  10.2068   H         1 RES1   0.0000
    65 C27      9.7854   2.8045  12.1799   C.3       1 RES1   0.0000
    66 H31      9.2253   3.2041  12.8783   H         1 RES1   0.0000
    67 H32     10.7089   3.1126  12.2863   H         1 RES1   0.0000
    68 H33      9.7565   1.8271  12.2563   H         1 RES1   0.0000
    69 Cl1     13.6377   6.0567   8.1086   Cl        2 RES2   0.0000
    70 O1      13.3113   5.8713   9.4920   O.3       2 RES2  -1.0000
    71 O2      14.4619   4.9593   7.6534   O.2       2 RES2   0.0000
    72 O3      12.4197   6.0926   7.3354   O.2       2 RES2   0.0000
    73 O7      14.3353   7.2916   7.9318   O.2       2 RES2   0.0000
    74 Cl2     12.1727  -2.8201  10.5446   Cl        3 RES3   0.0000
    75 O4      11.5610  -3.9716   9.9882   O.3       3 RES3  -1.0000
    76 O5      13.1023  -2.3123   9.6104   O.2       3 RES3   0.0000
    77 O6      11.1981  -1.8528  10.8370   O.2       3 RES3   0.0000
    78 O8      12.8677  -3.0992  11.7613   O.2       3 RES3   0.0000
@<TRIPOS>BOND
     1     1     2    1
     2     2    19    2
     3     3     1    1
     4     4     1    1
     5     5     1    1
     6     6     1    1
     7     7     1    1
     8     8    42    1
     9     9     6    2
    10    10     9    1
    11    11     7   ar
    12    12    11   ar
    13    13    12    1
    14    14    12   ar
    15    15    14    1
    16    16    14   ar
    17    17    16    1
    18    18     7   ar
    19    19    20    1
    20    21     3   ar
    21    22    21   ar
    22    23    22    1
    23    24    22   ar
    24    25    24    1
    25    26    24   ar
    26    27    26    1
    27    28     3   ar
    28    29     5    2
    29    30    29    1
    30    31     4   ar
    31    32    31   ar
    32    33    32    1
    33    34    32   ar
    34    35    34    1
    35    36    34   ar
    36    37    36    1
    37    38     4   ar
    38    39     5    1
    39    40    39    1
    40    41    39    1
    41    42    39    1
    42    43    42    1
    43    44    42    1
    44    45     6    1
    45    46    45    1
    46    47    45    1
    47    48     8    1
    48    49    48    1
    49    50    48    1
    50    51     2    1
    51    52    51    1
    52    53    51    1
    53    54     8    1
    54    55    54    1
    55    56    54    1
    56    57    38    1
    57    58    57    1
    58    59    57    1
    59    60    57    1
    60    61    18    1
    61    62    61    1
    62    63    61    1
    63    64    61    1
    64    65    28    1
    65    66    65    1
    66    67    65    1
    67    68    65    1
    68     9    11    1
    69    16    18   ar
    70    19    21    1
    71    26    28   ar
    72    29    31    1
    73    36    38   ar
    74    45    48    1
    75    51    54    1
    76    69    70    1
    77    71    69    2
    78    72    69    2
    79    73    69    2
    80    74    75    1
    81    76    74    2
    82    77    74    2
    83    78    74    2
@<TRIPOS>SUBSTRUCTURE
     1 RES1        1 GROUP             0 ****  ****    0  
     2 RES2       69 GROUP             0 ****  ****    0  
     3 RES3       74 GROUP             0 ****  ****    0  
@<TRIPOS>CRYSIN
   10.1834   19.0720   15.0304   90.0000   91.4670   90.0000    14     1
