@<TRIPOS>MOLECULE
NIQFUP05
    78    83     3     0     0
SMALL
USER_CHARGES
****
Generated from the CSD

@<TRIPOS>ATOM
     1 Fe1      6.8320   1.3701  11.1650   Fe        1 RES1   2.0000
     2 N1       5.9839   1.7723   9.4283   N.2       1 RES1   0.0000
     3 N2       8.2414   2.7376  10.4176   N.ar      1 RES1   0.0000
     4 N3       7.5101   1.0728  13.1351   N.ar      1 RES1   0.0000
     5 N4       6.0146   2.9337  12.0358   N.2       1 RES1   0.0000
     6 N5       5.4210   0.1183  11.6849   N.2       1 RES1   0.0000
     7 N6       7.5432  -0.3764  10.2261   N.ar      1 RES1   0.0000
     8 N7       3.4027   2.1458  10.9087   N.3       1 RES1   0.0000
     9 C1       5.5093  -1.0695  11.2338   C.2       1 RES1   0.0000
    10 H1       4.8799  -1.7263  11.4674   H         1 RES1   0.0000
    11 C2       6.6222  -1.3722  10.3440   C.ar      1 RES1   0.0000
    12 C3       6.7349  -2.6034   9.7245   C.ar      1 RES1   0.0000
    13 H2       6.0635  -3.2528   9.8294   H         1 RES1   0.0000
    14 C4       7.8397  -2.8626   8.9562   C.ar      1 RES1   0.0000
    15 H3       7.9319  -3.6829   8.5054   H         1 RES1   0.0000
    16 C5       8.7986  -1.9035   8.8622   C.ar      1 RES1   0.0000
    17 H4       9.5792  -2.0796   8.3696   H         1 RES1   0.0000
    18 C6       8.6467  -0.6517   9.4879   C.ar      1 RES1   0.0000
    19 C7       6.6250   2.5804   8.6712   C.2       1 RES1   0.0000
    20 H5       6.3038   2.7977   7.8140   H         1 RES1   0.0000
    21 C8       7.8622   3.1539   9.1721   C.ar      1 RES1   0.0000
    22 C9       8.5826   4.0441   8.4070   C.ar      1 RES1   0.0000
    23 H6       8.2882   4.2878   7.5483   H         1 RES1   0.0000
    24 C10      9.7514   4.5739   8.9311   C.ar      1 RES1   0.0000
    25 H7      10.2711   5.1807   8.4360   H         1 RES1   0.0000
    26 C11     10.1265   4.1874  10.1932   C.ar      1 RES1   0.0000
    27 H8      10.9094   4.5451  10.5721   H         1 RES1   0.0000
    28 C12      9.3657   3.2707  10.9245   C.ar      1 RES1   0.0000
    29 C13      6.2947   3.1065  13.2775   C.2       1 RES1   0.0000
    30 H9       6.0112   3.8749  13.7379   H         1 RES1   0.0000
    31 C14      7.0596   2.0794  13.9413   C.ar      1 RES1   0.0000
    32 C15      7.2458   2.1118  15.3110   C.ar      1 RES1   0.0000
    33 H10      6.9448   2.8457  15.8137   H         1 RES1   0.0000
    34 C16      7.8740   1.0628  15.9262   C.ar      1 RES1   0.0000
    35 H11      8.0157   1.0580  16.8554   H         1 RES1   0.0000
    36 C17      8.2920   0.0106  15.1348   C.ar      1 RES1   0.0000
    37 H12      8.6931  -0.7374  15.5374   H         1 RES1   0.0000
    38 C18      8.1292   0.0361  13.7447   C.ar      1 RES1   0.0000
    39 C19      5.0965   3.9082  11.4322   C.3       1 RES1   0.0000
    40 H13      5.3322   4.0420  10.4906   H         1 RES1   0.0000
    41 H14      5.1798   4.7678  11.8931   H         1 RES1   0.0000
    42 C20      3.6597   3.4106  11.5340   C.3       1 RES1   0.0000
    43 H15      3.4208   3.3411  12.4819   H         1 RES1   0.0000
    44 H16      3.0695   4.0804  11.1307   H         1 RES1   0.0000
    45 C21      4.2730   0.4295  12.5472   C.3       1 RES1   0.0000
    46 H17      4.5411   1.0868  13.2231   H         1 RES1   0.0000
    47 H18      3.9842  -0.3840  13.0118   H         1 RES1   0.0000
    48 C22      3.1011   0.9910  11.7282   C.3       1 RES1   0.0000
    49 H19      2.7629   0.2784  11.1458   H         1 RES1   0.0000
    50 H20      2.3802   1.2308  12.3460   H         1 RES1   0.0000
    51 C23      4.6909   1.2554   8.9405   C.3       1 RES1   0.0000
    52 H21      4.6055   0.3130   9.1984   H         1 RES1   0.0000
    53 H22      4.6778   1.3000   7.9619   H         1 RES1   0.0000
    54 C24      3.4918   2.0316   9.4897   C.3       1 RES1   0.0000
    55 H23      3.5134   2.9360   9.1108   H         1 RES1   0.0000
    56 H24      2.6736   1.5995   9.1667   H         1 RES1   0.0000
    57 C25      8.6878  -1.0872  12.9355   C.3       1 RES1   0.0000
    58 H25      7.9606  -1.6283  12.5875   H         1 RES1   0.0000
    59 H26      9.2588  -1.6360  13.4948   H         1 RES1   0.0000
    60 H27      9.2052  -0.7278  12.1981   H         1 RES1   0.0000
    61 C26      9.7457   0.3550   9.3748   C.3       1 RES1   0.0000
    62 H28      9.4378   1.1137   8.8557   H         1 RES1   0.0000
    63 H29     10.5107  -0.0480   8.9342   H         1 RES1   0.0000
    64 H30     10.0036   0.6529  10.2612   H         1 RES1   0.0000
    65 C27      9.8662   2.8488  12.2672   C.3       1 RES1   0.0000
    66 H31      9.2976   3.2240  12.9574   H         1 RES1   0.0000
    67 H32     10.7746   3.1664  12.3883   H         1 RES1   0.0000
    68 H33      9.8524   1.8799  12.3279   H         1 RES1   0.0000
    69 Cl1     13.7614   6.0939   8.1457   Cl        2 RES2   0.0000
    70 O1      13.4086   5.9217   9.5042   O.3       2 RES2  -1.0000
    71 O2      14.5952   5.0138   7.6990   O.2       2 RES2   0.0000
    72 O3      12.5535   6.1314   7.3665   O.2       2 RES2   0.0000
    73 O7      14.4168   7.3392   7.9770   O.2       2 RES2   0.0000
    74 Cl2     12.3102  -2.8052  10.5388   Cl        3 RES3   0.0000
    75 O4      11.7182  -3.9531   9.9736   O.3       3 RES3  -1.0000
    76 O5      13.1669  -2.2965   9.6410   O.2       3 RES3   0.0000
    77 O6      11.3111  -1.9010  10.9103   O.2       3 RES3   0.0000
    78 O8      13.0242  -3.0583  11.7400   O.2       3 RES3   0.0000
@<TRIPOS>BOND
     1     1     2    1
     2     2    19    2
     3     3     1    1
     4     4     1    1
     5     5     1    1
     6     6     1    1
     7     7     1    1
     8     8    42    1
     9     9     6    2
    10    10     9    1
    11    11     7   ar
    12    12    11   ar
    13    13    12    1
    14    14    12   ar
    15    15    14    1
    16    16    14   ar
    17    17    16    1
    18    18     7   ar
    19    19    20    1
    20    21     3   ar
    21    22    21   ar
    22    23    22    1
    23    24    22   ar
    24    25    24    1
    25    26    24   ar
    26    27    26    1
    27    28     3   ar
    28    29     5    2
    29    30    29    1
    30    31     4   ar
    31    32    31   ar
    32    33    32    1
    33    34    32   ar
    34    35    34    1
    35    36    34   ar
    36    37    36    1
    37    38     4   ar
    38    39     5    1
    39    40    39    1
    40    41    39    1
    41    42    39    1
    42    43    42    1
    43    44    42    1
    44    45     6    1
    45    46    45    1
    46    47    45    1
    47    48     8    1
    48    49    48    1
    49    50    48    1
    50    51     2    1
    51    52    51    1
    52    53    51    1
    53    54     8    1
    54    55    54    1
    55    56    54    1
    56    57    38    1
    57    58    57    1
    58    59    57    1
    59    60    57    1
    60    61    18    1
    61    62    61    1
    62    63    61    1
    63    64    61    1
    64    65    28    1
    65    66    65    1
    66    67    65    1
    67    68    65    1
    68     9    11    1
    69    16    18   ar
    70    19    21    1
    71    26    28   ar
    72    29    31    1
    73    36    38   ar
    74    45    48    1
    75    51    54    1
    76    69    70    1
    77    71    69    2
    78    72    69    2
    79    73    69    2
    80    74    75    1
    81    76    74    2
    82    77    74    2
    83    78    74    2
@<TRIPOS>SUBSTRUCTURE
     1 RES1        1 GROUP             0 ****  ****    0  
     2 RES2       69 GROUP             0 ****  ****    0  
     3 RES3       74 GROUP             0 ****  ****    0  
@<TRIPOS>CRYSIN
   10.2747   19.2019   15.1011   90.0000   91.3990   90.0000    14     1
