@<TRIPOS>MOLECULE
NIQFUP11
    78    83     3     0     0
SMALL
USER_CHARGES
****
Generated from the CSD

@<TRIPOS>ATOM
     1 Fe1      7.1150   1.3847  11.3027   Fe        1 RES1   2.0000
     2 N1       6.4055   1.9813   9.3736   N.2       1 RES1   0.0000
     3 N2       8.6747   2.9254  10.5711   N.ar      1 RES1   0.0000
     4 N3       7.7488   1.0328  13.4662   N.ar      1 RES1   0.0000
     5 N4       6.2256   2.9896  12.3778   N.2       1 RES1   0.0000
     6 N5       5.6322  -0.0881  11.6645   N.2       1 RES1   0.0000
     7 N6       7.8971  -0.5289  10.2589   N.ar      1 RES1   0.0000
     8 N7       4.0090   2.0879  10.9010   N.3       1 RES1   0.0000
     9 C1       5.8151  -1.2343  11.1894   C.2       1 RES1   0.0000
    10 H1       5.1990  -1.9084  11.3618   H         1 RES1   0.0000
    11 C2       6.9852  -1.5187  10.3676   C.ar      1 RES1   0.0000
    12 C3       7.1282  -2.7410   9.7480   C.ar      1 RES1   0.0000
    13 H2       6.4743  -3.3966   9.8319   H         1 RES1   0.0000
    14 C4       8.2634  -2.9674   8.9991   C.ar      1 RES1   0.0000
    15 H3       8.3791  -3.7759   8.5553   H         1 RES1   0.0000
    16 C5       9.1968  -2.0129   8.9168   C.ar      1 RES1   0.0000
    17 H4       9.9747  -2.1710   8.4332   H         1 RES1   0.0000
    18 C6       9.0150  -0.7741   9.5539   C.ar      1 RES1   0.0000
    19 C7       7.0993   2.8268   8.7453   C.2       1 RES1   0.0000
    20 H5       6.8278   3.1106   7.9025   H         1 RES1   0.0000
    21 C8       8.3294   3.3674   9.3297   C.ar      1 RES1   0.0000
    22 C9       9.0935   4.2627   8.6239   C.ar      1 RES1   0.0000
    23 H6       8.8382   4.5366   7.7713   H         1 RES1   0.0000
    24 C10     10.2693   4.7579   9.2111   C.ar      1 RES1   0.0000
    25 H7      10.8083   5.3653   8.7597   H         1 RES1   0.0000
    26 C11     10.5966   4.3286  10.4512   C.ar      1 RES1   0.0000
    27 H8      11.3716   4.6436  10.8569   H         1 RES1   0.0000
    28 C12      9.7857   3.4190  11.1238   C.ar      1 RES1   0.0000
    29 C13      6.4927   3.0631  13.6024   C.2       1 RES1   0.0000
    30 H9       6.1928   3.7915  14.0966   H         1 RES1   0.0000
    31 C14      7.2649   2.0212  14.2581   C.ar      1 RES1   0.0000
    32 C15      7.4228   2.0329  15.6208   C.ar      1 RES1   0.0000
    33 H10      7.0885   2.7371  16.1283   H         1 RES1   0.0000
    34 C16      8.0764   1.0019  16.2213   C.ar      1 RES1   0.0000
    35 H11      8.2172   0.9999  17.1410   H         1 RES1   0.0000
    36 C17      8.5214  -0.0292  15.4481   C.ar      1 RES1   0.0000
    37 H12      8.9246  -0.7645  15.8476   H         1 RES1   0.0000
    38 C18      8.3758   0.0134  14.0614   C.ar      1 RES1   0.0000
    39 C19      5.2806   3.9514  11.8194   C.3       1 RES1   0.0000
    40 H13      5.5902   4.2486  10.9500   H         1 RES1   0.0000
    41 H14      5.2184   4.7253  12.4005   H         1 RES1   0.0000
    42 C20      3.9303   3.3050  11.6882   C.3       1 RES1   0.0000
    43 H15      3.5843   3.0970  12.5698   H         1 RES1   0.0000
    44 H16      3.3163   3.9238  11.2626   H         1 RES1   0.0000
    45 C21      4.3942   0.1862  12.4173   C.3       1 RES1   0.0000
    46 H17      4.5873   0.7509  13.1814   H         1 RES1   0.0000
    47 H18      4.0099  -0.6439  12.7391   H         1 RES1   0.0000
    48 C22      3.4112   0.8900  11.4762   C.3       1 RES1   0.0000
    49 H19      3.1551   0.2840  10.7654   H         1 RES1   0.0000
    50 H20      2.6118   1.1322  11.9688   H         1 RES1   0.0000
    51 C23      5.1126   1.5405   8.7917   C.3       1 RES1   0.0000
    52 H21      5.0249   0.5797   8.8847   H         1 RES1   0.0000
    53 H22      5.0926   1.7547   7.8460   H         1 RES1   0.0000
    54 C24      3.9599   2.2200   9.4857   C.3       1 RES1   0.0000
    55 H23      3.9643   3.1631   9.2554   H         1 RES1   0.0000
    56 H24      3.1284   1.8403   9.1608   H         1 RES1   0.0000
    57 C25      8.9283  -1.0738  13.2089   C.3       1 RES1   0.0000
    58 H25      8.2066  -1.5835  12.8337   H         1 RES1   0.0000
    59 H26      9.4828  -1.6477  13.7427   H         1 RES1   0.0000
    60 H27      9.4511  -0.6906  12.5012   H         1 RES1   0.0000
    61 C26     10.0660   0.2741   9.4857   C.3       1 RES1   0.0000
    62 H28      9.7954   0.9591   8.8710   H         1 RES1   0.0000
    63 H29     10.8897  -0.1167   9.1867   H         1 RES1   0.0000
    64 H30     10.1911   0.6575  10.3566   H         1 RES1   0.0000
    65 C27     10.1877   2.9577  12.4600   C.3       1 RES1   0.0000
    66 H31      9.5528   3.2662  13.1097   H         1 RES1   0.0000
    67 H32     11.0565   3.3071  12.6705   H         1 RES1   0.0000
    68 H33     10.2172   1.9979  12.4707   H         1 RES1   0.0000
    69 Cl1     14.2344   6.1878   8.2293   Cl        2 RES2   0.0000
    70 O1      13.7911   5.9565   9.5314   O.3       2 RES2  -1.0000
    71 O2      15.0543   5.1480   7.7515   O.2       2 RES2   0.0000
    72 O3      13.0252   6.2164   7.4555   O.2       2 RES2   0.0000
    73 O7      14.8178   7.4392   8.0702   O.2       2 RES2   0.0000
    74 Cl2     12.7088  -2.8606  10.5497   Cl        3 RES3   0.0000
    75 O4      12.1448  -3.9699   9.9402   O.3       3 RES3  -1.0000
    76 O5      13.4535  -2.3033   9.7053   O.2       3 RES3   0.0000
    77 O6      11.7573  -1.9862  11.0491   O.2       3 RES3   0.0000
    78 O8      13.4098  -3.1670  11.7294   O.2       3 RES3   0.0000
@<TRIPOS>BOND
     1     1     2    1
     2     2    19    2
     3     3     1    1
     4     4     1    1
     5     5     1    1
     6     6     1    1
     7     7     1    1
     8     8    42    1
     9     9     6    2
    10    10     9    1
    11    11     7   ar
    12    12    11   ar
    13    13    12    1
    14    14    12   ar
    15    15    14    1
    16    16    14   ar
    17    17    16    1
    18    18     7   ar
    19    19    20    1
    20    21     3   ar
    21    22    21   ar
    22    23    22    1
    23    24    22   ar
    24    25    24    1
    25    26    24   ar
    26    27    26    1
    27    28     3   ar
    28    29     5    2
    29    30    29    1
    30    31     4   ar
    31    32    31   ar
    32    33    32    1
    33    34    32   ar
    34    35    34    1
    35    36    34   ar
    36    37    36    1
    37    38     4   ar
    38    39     5    1
    39    40    39    1
    40    41    39    1
    41    42    39    1
    42    43    42    1
    43    44    42    1
    44    45     6    1
    45    46    45    1
    46    47    45    1
    47    48     8    1
    48    49    48    1
    49    50    48    1
    50    51     2    1
    51    52    51    1
    52    53    51    1
    53    54     8    1
    54    55    54    1
    55    56    54    1
    56    57    38    1
    57    58    57    1
    58    59    57    1
    59    60    57    1
    60    61    18    1
    61    62    61    1
    62    63    61    1
    63    64    61    1
    64    65    28    1
    65    66    65    1
    66    67    65    1
    67    68    65    1
    68     9    11    1
    69    16    18   ar
    70    19    21    1
    71    26    28   ar
    72    29    31    1
    73    36    38   ar
    74    45    48    1
    75    51    54    1
    76    69    70    1
    77    71    69    2
    78    72    69    2
    79    73    69    2
    80    74    75    1
    81    76    74    2
    82    77    74    2
    83    78    74    2
@<TRIPOS>SUBSTRUCTURE
     1 RES1        1 GROUP             0 ****  ****    0  
     2 RES2       69 GROUP             0 ****  ****    0  
     3 RES3       74 GROUP             0 ****  ****    0  
@<TRIPOS>CRYSIN
   10.6286   19.4535   15.2589   90.0000   91.6260   90.0000    14     1
