@<TRIPOS>MOLECULE
NIQFUP
    78    83     3     0     0
SMALL
USER_CHARGES
****
Generated from the CSD

@<TRIPOS>ATOM
     1 Fe1      6.7058   1.3429  11.0801   Fe        1 RES1   2.0000
     2 N1       5.8295   1.7175   9.3713   N.2       1 RES1   0.0000
     3 N2       8.0933   2.6781  10.3127   N.ar      1 RES1   0.0000
     4 N3       7.4016   1.0634  13.0219   N.ar      1 RES1   0.0000
     5 N4       5.9091   2.9146  11.9245   N.2       1 RES1   0.0000
     6 N5       5.3099   0.1161  11.6322   N.2       1 RES1   0.0000
     7 N6       7.4094  -0.3864  10.1542   N.ar      1 RES1   0.0000
     8 N7       3.2275   2.1328  10.8891   N.3       1 RES1   0.0000
     9 C1       5.3840  -1.0843  11.1788   C.2       1 RES1   0.0000
    10 H1       4.7477  -1.7469  11.4237   H         1 RES1   0.0000
    11 C2       6.4808  -1.3857  10.2776   C.ar      1 RES1   0.0000
    12 C3       6.5756  -2.6252   9.6537   C.ar      1 RES1   0.0000
    13 H2       5.8860  -3.2705   9.7530   H         1 RES1   0.0000
    14 C4       7.6952  -2.9016   8.8833   C.ar      1 RES1   0.0000
    15 H3       7.7914  -3.7345   8.4377   H         1 RES1   0.0000
    16 C5       8.6659  -1.9234   8.7870   C.ar      1 RES1   0.0000
    17 H4       9.4547  -2.0982   8.2877   H         1 RES1   0.0000
    18 C6       8.5098  -0.6709   9.4150   C.ar      1 RES1   0.0000
    19 C7       6.4625   2.5162   8.5836   C.2       1 RES1   0.0000
    20 H5       6.1285   2.7207   7.7178   H         1 RES1   0.0000
    21 C8       7.7047   3.0918   9.0657   C.ar      1 RES1   0.0000
    22 C9       8.4277   3.9760   8.2762   C.ar      1 RES1   0.0000
    23 H6       8.1211   4.2137   7.4089   H         1 RES1   0.0000
    24 C10      9.6092   4.5060   8.7815   C.ar      1 RES1   0.0000
    25 H7      10.1325   5.1110   8.2697   H         1 RES1   0.0000
    26 C11      9.9998   4.1260  10.0518   C.ar      1 RES1   0.0000
    27 H8      10.7946   4.4886  10.4249   H         1 RES1   0.0000
    28 C12      9.2382   3.2087  10.8010   C.ar      1 RES1   0.0000
    29 C13      6.2144   3.1132  13.1537   C.2       1 RES1   0.0000
    30 H9       5.9492   3.9063  13.6059   H         1 RES1   0.0000
    31 C14      6.9796   2.0837  13.8276   C.ar      1 RES1   0.0000
    32 C15      7.1643   2.1313  15.2012   C.ar      1 RES1   0.0000
    33 H10      6.8829   2.8868  15.7041   H         1 RES1   0.0000
    34 C16      7.7703   1.0489  15.8215   C.ar      1 RES1   0.0000
    35 H11      7.9131   1.0405  16.7614   H         1 RES1   0.0000
    36 C17      8.1619  -0.0197  15.0314   C.ar      1 RES1   0.0000
    37 H12      8.5453  -0.7866  15.4416   H         1 RES1   0.0000
    38 C18      8.0033   0.0095  13.6373   C.ar      1 RES1   0.0000
    39 C19      4.9833   3.8830  11.3219   C.3       1 RES1   0.0000
    40 H13      5.1870   3.9827  10.3589   H         1 RES1   0.0000
    41 H14      5.0981   4.7654  11.7552   H         1 RES1   0.0000
    42 C20      3.5359   3.4076  11.4957   C.3       1 RES1   0.0000
    43 H15      3.3392   3.3488  12.4646   H         1 RES1   0.0000
    44 H16      2.9335   4.0915  11.1103   H         1 RES1   0.0000
    45 C21      4.1869   0.4315  12.5216   C.3       1 RES1   0.0000
    46 H17      4.4740   1.1035  13.1890   H         1 RES1   0.0000
    47 H18      3.9133  -0.3857  13.0090   H         1 RES1   0.0000
    48 C22      2.9835   0.9804  11.7243   C.3       1 RES1   0.0000
    49 H19      2.6369   0.2520  11.1508   H         1 RES1   0.0000
    50 H20      2.2685   1.2124  12.3686   H         1 RES1   0.0000
    51 C23      4.5303   1.1992   8.9073   C.3       1 RES1   0.0000
    52 H21      4.4443   0.2520   9.1846   H         1 RES1   0.0000
    53 H22      4.5074   1.2276   7.9173   H         1 RES1   0.0000
    54 C24      3.3283   1.9953   9.4610   C.3       1 RES1   0.0000
    55 H23      3.3570   2.9039   9.0676   H         1 RES1   0.0000
    56 H24      2.5001   1.5618   9.1366   H         1 RES1   0.0000
    57 C25      8.5482  -1.1297  12.8313   C.3       1 RES1   0.0000
    58 H25      7.8071  -1.6324  12.4331   H         1 RES1   0.0000
    59 H26      9.0689  -1.7221  13.4124   H         1 RES1   0.0000
    60 H27      9.1255  -0.7809  12.1211   H         1 RES1   0.0000
    61 C26      9.6273   0.3253   9.2918   C.3       1 RES1   0.0000
    62 H28      9.3392   1.0711   8.7257   H         1 RES1   0.0000
    63 H29     10.4081  -0.1088   8.8876   H         1 RES1   0.0000
    64 H30      9.8640   0.6625  10.1804   H         1 RES1   0.0000
    65 C27      9.7516   2.7976  12.1486   C.3       1 RES1   0.0000
    66 H31      9.2042   3.2132  12.8470   H         1 RES1   0.0000
    67 H32     10.6818   3.0891  12.2456   H         1 RES1   0.0000
    68 H33      9.7043   1.8214  12.2321   H         1 RES1   0.0000
    69 Cl1     13.5962   6.0664   8.0935   Cl        2 RES2   0.0000
    70 O1      13.2823   5.8778   9.4848   O.3       2 RES2  -1.0000
    71 O2      14.4121   4.9560   7.6305   O.2       2 RES2   0.0000
    72 O3      12.3724   6.1072   7.3243   O.2       2 RES2   0.0000
    73 O7      14.3089   7.3045   7.9159   O.2       2 RES2   0.0000
    74 Cl2     12.1113  -2.8370  10.5456   Cl        3 RES3   0.0000
    75 O4      11.4943  -3.9930   9.9868   O.3       3 RES3  -1.0000
    76 O5      13.0542  -2.3316   9.6000   O.2       3 RES3   0.0000
    77 O6      11.1487  -1.8416  10.8184   O.2       3 RES3   0.0000
    78 O8      12.8022  -3.1357  11.7673   O.2       3 RES3   0.0000
@<TRIPOS>BOND
     1     1     2    1
     2     2    19    2
     3     3     1    1
     4     4     1    1
     5     5     1    1
     6     6     1    1
     7     7     1    1
     8     8    42    1
     9     9     6    2
    10    10     9    1
    11    11     7   ar
    12    12    11   ar
    13    13    12    1
    14    14    12   ar
    15    15    14    1
    16    16    14   ar
    17    17    16    1
    18    18     7   ar
    19    19    20    1
    20    21     3   ar
    21    22    21   ar
    22    23    22    1
    23    24    22   ar
    24    25    24    1
    25    26    24   ar
    26    27    26    1
    27    28     3   ar
    28    29     5    2
    29    30    29    1
    30    31     4   ar
    31    32    31   ar
    32    33    32    1
    33    34    32   ar
    34    35    34    1
    35    36    34   ar
    36    37    36    1
    37    38     4   ar
    38    39     5    1
    39    40    39    1
    40    41    39    1
    41    42    39    1
    42    43    42    1
    43    44    42    1
    44    45     6    1
    45    46    45    1
    46    47    45    1
    47    48     8    1
    48    49    48    1
    49    50    48    1
    50    51     2    1
    51    52    51    1
    52    53    51    1
    53    54     8    1
    54    55    54    1
    55    56    54    1
    56    57    38    1
    57    58    57    1
    58    59    57    1
    59    60    57    1
    60    61    18    1
    61    62    61    1
    62    63    61    1
    63    64    61    1
    64    65    28    1
    65    66    65    1
    66    67    65    1
    67    68    65    1
    68     9    11    1
    69    16    18   ar
    70    19    21    1
    71    26    28   ar
    72    29    31    1
    73    36    38   ar
    74    45    48    1
    75    51    54    1
    76    69    70    1
    77    71    69    2
    78    72    69    2
    79    73    69    2
    80    74    75    1
    81    76    74    2
    82    77    74    2
    83    78    74    2
@<TRIPOS>SUBSTRUCTURE
     1 RES1        1 GROUP             0 ****  ****    0  
     2 RES2       69 GROUP             0 ****  ****    0  
     3 RES3       74 GROUP             0 ****  ****    0  
@<TRIPOS>CRYSIN
   10.1545   19.0923   15.0033   90.0000   91.5660   90.0000    14     1
