@<TRIPOS>MOLECULE
NIQFUP09
    78    83     3     0     0
SMALL
USER_CHARGES
****
Generated from the CSD

@<TRIPOS>ATOM
     1 Fe1      7.0879   1.3764  11.2653   Fe        1 RES1   2.0000
     2 N1       6.3583   1.9602   9.3508   N.2       1 RES1   0.0000
     3 N2       8.6304   2.9006  10.5235   N.ar      1 RES1   0.0000
     4 N3       7.7289   1.0283  13.4106   N.ar      1 RES1   0.0000
     5 N4       6.2062   2.9794  12.3282   N.2       1 RES1   0.0000
     6 N5       5.6111  -0.0852  11.6413   N.2       1 RES1   0.0000
     7 N6       7.8722  -0.5217  10.2297   N.ar      1 RES1   0.0000
     8 N7       3.9659   2.0821  10.8806   N.3       1 RES1   0.0000
     9 C1       5.7874  -1.2322  11.1656   C.2       1 RES1   0.0000
    10 H1       5.1707  -1.9053  11.3437   H         1 RES1   0.0000
    11 C2       6.9535  -1.5180  10.3355   C.ar      1 RES1   0.0000
    12 C3       7.0995  -2.7390   9.7103   C.ar      1 RES1   0.0000
    13 H2       6.4432  -3.3934   9.7894   H         1 RES1   0.0000
    14 C4       8.2357  -2.9722   8.9682   C.ar      1 RES1   0.0000
    15 H3       8.3555  -3.7834   8.5302   H         1 RES1   0.0000
    16 C5       9.1647  -2.0136   8.8870   C.ar      1 RES1   0.0000
    17 H4       9.9431  -2.1692   8.4024   H         1 RES1   0.0000
    18 C6       8.9825  -0.7751   9.5228   C.ar      1 RES1   0.0000
    19 C7       7.0496   2.8036   8.7116   C.2       1 RES1   0.0000
    20 H5       6.7736   3.0830   7.8686   H         1 RES1   0.0000
    21 C8       8.2799   3.3432   9.2866   C.ar      1 RES1   0.0000
    22 C9       9.0412   4.2390   8.5712   C.ar      1 RES1   0.0000
    23 H6       8.7823   4.5052   7.7196   H         1 RES1   0.0000
    24 C10     10.2079   4.7398   9.1507   C.ar      1 RES1   0.0000
    25 H7      10.7436   5.3472   8.6914   H         1 RES1   0.0000
    26 C11     10.5458   4.3201  10.3993   C.ar      1 RES1   0.0000
    27 H8      11.3168   4.6468  10.8038   H         1 RES1   0.0000
    28 C12      9.7432   3.4026  11.0760   C.ar      1 RES1   0.0000
    29 C13      6.4820   3.0619  13.5560   C.2       1 RES1   0.0000
    30 H9       6.1907   3.7970  14.0461   H         1 RES1   0.0000
    31 C14      7.2483   2.0231  14.2086   C.ar      1 RES1   0.0000
    32 C15      7.4191   2.0266  15.5777   C.ar      1 RES1   0.0000
    33 H10      7.0976   2.7338  16.0886   H         1 RES1   0.0000
    34 C16      8.0602   0.9901  16.1719   C.ar      1 RES1   0.0000
    35 H11      8.1989   0.9818  17.0908   H         1 RES1   0.0000
    36 C17      8.4990  -0.0437  15.3881   C.ar      1 RES1   0.0000
    37 H12      8.9003  -0.7819  15.7844   H         1 RES1   0.0000
    38 C18      8.3507   0.0004  14.0086   C.ar      1 RES1   0.0000
    39 C19      5.2651   3.9485  11.7573   C.3       1 RES1   0.0000
    40 H13      5.5670   4.2239  10.8768   H         1 RES1   0.0000
    41 H14      5.2179   4.7361  12.3231   H         1 RES1   0.0000
    42 C20      3.9025   3.3023  11.6570   C.3       1 RES1   0.0000
    43 H15      3.5738   3.1024  12.5481   H         1 RES1   0.0000
    44 H16      3.2819   3.9192  11.2387   H         1 RES1   0.0000
    45 C21      4.3789   0.1859  12.3991   C.3       1 RES1   0.0000
    46 H17      4.5768   0.7528  13.1610   H         1 RES1   0.0000
    47 H18      4.0022  -0.6461  12.7261   H         1 RES1   0.0000
    48 C22      3.3821   0.8826  11.4790   C.3       1 RES1   0.0000
    49 H19      3.1096   0.2716  10.7764   H         1 RES1   0.0000
    50 H20      2.5916   1.1273  11.9855   H         1 RES1   0.0000
    51 C23      5.0643   1.5161   8.7772   C.3       1 RES1   0.0000
    52 H21      4.9769   0.5549   8.8815   H         1 RES1   0.0000
    53 H22      5.0447   1.7190   7.8291   H         1 RES1   0.0000
    54 C24      3.9127   2.2039   9.4624   C.3       1 RES1   0.0000
    55 H23      3.9181   3.1451   9.2252   H         1 RES1   0.0000
    56 H24      3.0802   1.8219   9.1431   H         1 RES1   0.0000
    57 C25      8.8949  -1.0925  13.1572   C.3       1 RES1   0.0000
    58 H25      8.1689  -1.5890  12.7717   H         1 RES1   0.0000
    59 H26      9.4340  -1.6783  13.6933   H         1 RES1   0.0000
    60 H27      9.4318  -0.7159  12.4569   H         1 RES1   0.0000
    61 C26     10.0380   0.2778   9.4518   C.3       1 RES1   0.0000
    62 H28      9.7308   1.0012   8.8997   H         1 RES1   0.0000
    63 H29     10.8378  -0.0951   9.0731   H         1 RES1   0.0000
    64 H30     10.2232   0.6053  10.3339   H         1 RES1   0.0000
    65 C27     10.1547   2.9363  12.4161   C.3       1 RES1   0.0000
    66 H31      9.5250   3.2479  13.0713   H         1 RES1   0.0000
    67 H32     11.0262   3.2809  12.6211   H         1 RES1   0.0000
    68 H33     10.1787   1.9771  12.4280   H         1 RES1   0.0000
    69 Cl1     14.1584   6.1726   8.2025   Cl        2 RES2   0.0000
    70 O1      13.7557   5.9464   9.5330   O.3       2 RES2  -1.0000
    71 O2      14.9780   5.1210   7.7277   O.2       2 RES2   0.0000
    72 O3      12.9453   6.2087   7.4367   O.2       2 RES2   0.0000
    73 O7      14.7754   7.4248   8.0618   O.2       2 RES2   0.0000
    74 Cl2     12.6399  -2.8603  10.5547   Cl        3 RES3   0.0000
    75 O4      12.0770  -3.9771   9.9403   O.3       3 RES3  -1.0000
    76 O5      13.4048  -2.2817   9.6890   O.2       3 RES3   0.0000
    77 O6      11.6659  -1.9817  11.0243   O.2       3 RES3   0.0000
    78 O8      13.3607  -3.1825  11.7295   O.2       3 RES3   0.0000
@<TRIPOS>BOND
     1     1     2    1
     2     2    19    2
     3     3     1    1
     4     4     1    1
     5     5     1    1
     6     6     1    1
     7     7     1    1
     8     8    42    1
     9     9     6    2
    10    10     9    1
    11    11     7   ar
    12    12    11   ar
    13    13    12    1
    14    14    12   ar
    15    15    14    1
    16    16    14   ar
    17    17    16    1
    18    18     7   ar
    19    19    20    1
    20    21     3   ar
    21    22    21   ar
    22    23    22    1
    23    24    22   ar
    24    25    24    1
    25    26    24   ar
    26    27    26    1
    27    28     3   ar
    28    29     5    2
    29    30    29    1
    30    31     4   ar
    31    32    31   ar
    32    33    32    1
    33    34    32   ar
    34    35    34    1
    35    36    34   ar
    36    37    36    1
    37    38     4   ar
    38    39     5    1
    39    40    39    1
    40    41    39    1
    41    42    39    1
    42    43    42    1
    43    44    42    1
    44    45     6    1
    45    46    45    1
    46    47    45    1
    47    48     8    1
    48    49    48    1
    49    50    48    1
    50    51     2    1
    51    52    51    1
    52    53    51    1
    53    54     8    1
    54    55    54    1
    55    56    54    1
    56    57    38    1
    57    58    57    1
    58    59    57    1
    59    60    57    1
    60    61    18    1
    61    62    61    1
    62    63    61    1
    63    64    61    1
    64    65    28    1
    65    66    65    1
    66    67    65    1
    67    68    65    1
    68     9    11    1
    69    16    18   ar
    70    19    21    1
    71    26    28   ar
    72    29    31    1
    73    36    38   ar
    74    45    48    1
    75    51    54    1
    76    69    70    1
    77    71    69    2
    78    72    69    2
    79    73    69    2
    80    74    75    1
    81    76    74    2
    82    77    74    2
    83    78    74    2
@<TRIPOS>SUBSTRUCTURE
     1 RES1        1 GROUP             0 ****  ****    0  
     2 RES2       69 GROUP             0 ****  ****    0  
     3 RES3       74 GROUP             0 ****  ****    0  
@<TRIPOS>CRYSIN
   10.5677   19.4022   15.2137   90.0000   91.5640   90.0000    14     1
