@<TRIPOS>MOLECULE
NIQFUP07
    78    83     3     0     0
SMALL
USER_CHARGES
****
Generated from the CSD

@<TRIPOS>ATOM
     1 Fe1      7.0153   1.3734  11.2285   Fe        1 RES1   2.0000
     2 N1       6.2440   1.9110   9.3602   N.2       1 RES1   0.0000
     3 N2       8.5178   2.8517  10.4784   N.ar      1 RES1   0.0000
     4 N3       7.6642   1.0367  13.3262   N.ar      1 RES1   0.0000
     5 N4       6.1521   2.9676  12.2390   N.2       1 RES1   0.0000
     6 N5       5.5522  -0.0325  11.6424   N.2       1 RES1   0.0000
     7 N6       7.7824  -0.4835  10.2174   N.ar      1 RES1   0.0000
     8 N7       3.8205   2.0913  10.8757   N.3       1 RES1   0.0000
     9 C1       5.7074  -1.1891  11.1726   C.2       1 RES1   0.0000
    10 H1       5.0826  -1.8647  11.3672   H         1 RES1   0.0000
    11 C2       6.8601  -1.4803  10.3245   C.ar      1 RES1   0.0000
    12 C3       6.9989  -2.7060   9.7021   C.ar      1 RES1   0.0000
    13 H2       6.3319  -3.3622   9.7886   H         1 RES1   0.0000
    14 C4       8.1260  -2.9487   8.9559   C.ar      1 RES1   0.0000
    15 H3       8.2391  -3.7699   8.5132   H         1 RES1   0.0000
    16 C5       9.0672  -1.9841   8.8701   C.ar      1 RES1   0.0000
    17 H4       9.8525  -2.1448   8.3798   H         1 RES1   0.0000
    18 C6       8.8894  -0.7488   9.5016   C.ar      1 RES1   0.0000
    19 C7       6.9229   2.7436   8.6881   C.2       1 RES1   0.0000
    20 H5       6.6302   3.0105   7.8354   H         1 RES1   0.0000
    21 C8       8.1573   3.2874   9.2396   C.ar      1 RES1   0.0000
    22 C9       8.9090   4.1836   8.5129   C.ar      1 RES1   0.0000
    23 H6       8.6396   4.4423   7.6504   H         1 RES1   0.0000
    24 C10     10.0658   4.6972   9.0698   C.ar      1 RES1   0.0000
    25 H7      10.5953   5.3138   8.5982   H         1 RES1   0.0000
    26 C11     10.4210   4.2804  10.3345   C.ar      1 RES1   0.0000
    27 H8      11.2030   4.6162  10.7333   H         1 RES1   0.0000
    28 C12      9.6336   3.3680  11.0211   C.ar      1 RES1   0.0000
    29 C13      6.4302   3.0717  13.4692   C.2       1 RES1   0.0000
    30 H9       6.1390   3.8220  13.9557   H         1 RES1   0.0000
    31 C14      7.1949   2.0407  14.1227   C.ar      1 RES1   0.0000
    32 C15      7.3683   2.0534  15.4999   C.ar      1 RES1   0.0000
    33 H10      7.0544   2.7748  16.0150   H         1 RES1   0.0000
    34 C16      8.0049   1.0009  16.0927   C.ar      1 RES1   0.0000
    35 H11      8.1449   0.9893  17.0219   H         1 RES1   0.0000
    36 C17      8.4347  -0.0336  15.3109   C.ar      1 RES1   0.0000
    37 H12      8.8366  -0.7826  15.7117   H         1 RES1   0.0000
    38 C18      8.2830   0.0079  13.9296   C.ar      1 RES1   0.0000
    39 C19      5.2194   3.9390  11.6604   C.3       1 RES1   0.0000
    40 H13      5.5048   4.1737  10.7530   H         1 RES1   0.0000
    41 H14      5.2125   4.7553  12.2012   H         1 RES1   0.0000
    42 C20      3.8323   3.3369  11.6222   C.3       1 RES1   0.0000
    43 H15      3.5247   3.1709  12.5378   H         1 RES1   0.0000
    44 H16      3.2131   3.9728  11.2049   H         1 RES1   0.0000
    45 C21      4.3451   0.2437  12.4287   C.3       1 RES1   0.0000
    46 H17      4.5661   0.8328  13.1793   H         1 RES1   0.0000
    47 H18      3.9870  -0.5932  12.7911   H         1 RES1   0.0000
    48 C22      3.2995   0.9107  11.5415   C.3       1 RES1   0.0000
    49 H19      2.9927   0.2686  10.8667   H         1 RES1   0.0000
    50 H20      2.5273   1.1632  12.0890   H         1 RES1   0.0000
    51 C23      4.9561   1.4467   8.8048   C.3       1 RES1   0.0000
    52 H21      4.8707   0.4811   8.9454   H         1 RES1   0.0000
    53 H22      4.9384   1.6154   7.8399   H         1 RES1   0.0000
    54 C24      3.7874   2.1566   9.4610   C.3       1 RES1   0.0000
    55 H23      3.7915   3.0974   9.1850   H         1 RES1   0.0000
    56 H24      2.9521   1.7545   9.1426   H         1 RES1   0.0000
    57 C25      8.8270  -1.1012  13.0836   C.3       1 RES1   0.0000
    58 H25      8.0939  -1.6328  12.7365   H         1 RES1   0.0000
    59 H26      9.4064  -1.6637  13.6206   H         1 RES1   0.0000
    60 H27      9.3331  -0.7265  12.3453   H         1 RES1   0.0000
    61 C26      9.9562   0.2983   9.4185   C.3       1 RES1   0.0000
    62 H28      9.6473   1.0318   8.8635   H         1 RES1   0.0000
    63 H29     10.7577  -0.0870   9.0303   H         1 RES1   0.0000
    64 H30     10.1558   0.6280  10.3087   H         1 RES1   0.0000
    65 C27     10.0695   2.9075  12.3644   C.3       1 RES1   0.0000
    66 H31      9.4209   3.1902  13.0292   H         1 RES1   0.0000
    67 H32     10.9350   3.2926  12.5727   H         1 RES1   0.0000
    68 H33     10.1353   1.9400  12.3680   H         1 RES1   0.0000
    69 Cl1     14.0257   6.1460   8.1758   Cl        2 RES2   0.0000
    70 O1      13.6528   5.9323   9.5224   O.3       2 RES2  -1.0000
    71 O2      14.8466   5.0798   7.7053   O.2       2 RES2   0.0000
    72 O3      12.8152   6.1835   7.4119   O.2       2 RES2   0.0000
    73 O7      14.6705   7.3981   8.0337   O.2       2 RES2   0.0000
    74 Cl2     12.5270  -2.8377  10.5547   Cl        3 RES3   0.0000
    75 O4      11.9668  -3.9724   9.9481   O.3       3 RES3  -1.0000
    76 O5      13.3327  -2.2704   9.6722   O.2       3 RES3   0.0000
    77 O6      11.5301  -1.9645  10.9941   O.2       3 RES3   0.0000
    78 O8      13.2631  -3.1427  11.7291   O.2       3 RES3   0.0000
@<TRIPOS>BOND
     1     1     2    1
     2     2    19    2
     3     3     1    1
     4     4     1    1
     5     5     1    1
     6     6     1    1
     7     7     1    1
     8     8    42    1
     9     9     6    2
    10    10     9    1
    11    11     7   ar
    12    12    11   ar
    13    13    12    1
    14    14    12   ar
    15    15    14    1
    16    16    14   ar
    17    17    16    1
    18    18     7   ar
    19    19    20    1
    20    21     3   ar
    21    22    21   ar
    22    23    22    1
    23    24    22   ar
    24    25    24    1
    25    26    24   ar
    26    27    26    1
    27    28     3   ar
    28    29     5    2
    29    30    29    1
    30    31     4   ar
    31    32    31   ar
    32    33    32    1
    33    34    32   ar
    34    35    34    1
    35    36    34   ar
    36    37    36    1
    37    38     4   ar
    38    39     5    1
    39    40    39    1
    40    41    39    1
    41    42    39    1
    42    43    42    1
    43    44    42    1
    44    45     6    1
    45    46    45    1
    46    47    45    1
    47    48     8    1
    48    49    48    1
    49    50    48    1
    50    51     2    1
    51    52    51    1
    52    53    51    1
    53    54     8    1
    54    55    54    1
    55    56    54    1
    56    57    38    1
    57    58    57    1
    58    59    57    1
    59    60    57    1
    60    61    18    1
    61    62    61    1
    62    63    61    1
    63    64    61    1
    64    65    28    1
    65    66    65    1
    66    67    65    1
    67    68    65    1
    68     9    11    1
    69    16    18   ar
    70    19    21    1
    71    26    28   ar
    72    29    31    1
    73    36    38   ar
    74    45    48    1
    75    51    54    1
    76    69    70    1
    77    71    69    2
    78    72    69    2
    79    73    69    2
    80    74    75    1
    81    76    74    2
    82    77    74    2
    83    78    74    2
@<TRIPOS>SUBSTRUCTURE
     1 RES1        1 GROUP             0 ****  ****    0  
     2 RES2       69 GROUP             0 ****  ****    0  
     3 RES3       74 GROUP             0 ****  ****    0  
@<TRIPOS>CRYSIN
   10.4678   19.3228   15.1695   90.0000   91.5010   90.0000    14     1
