@<TRIPOS>MOLECULE
NIQFUP03
    78    83     3     0     0
SMALL
USER_CHARGES
****
Generated from the CSD

@<TRIPOS>ATOM
     1 Fe1      6.7713   1.3561  11.1256   Fe        1 RES1   2.0000
     2 N1       5.9077   1.7361   9.4108   N.2       1 RES1   0.0000
     3 N2       8.1643   2.6985  10.3693   N.ar      1 RES1   0.0000
     4 N3       7.4599   1.0675  13.0707   N.ar      1 RES1   0.0000
     5 N4       5.9665   2.9170  11.9740   N.2       1 RES1   0.0000
     6 N5       5.3733   0.1292  11.6663   N.2       1 RES1   0.0000
     7 N6       7.4753  -0.3713  10.1973   N.ar      1 RES1   0.0000
     8 N7       3.3064   2.1391  10.9036   N.3       1 RES1   0.0000
     9 C1       5.4502  -1.0641  11.2165   C.2       1 RES1   0.0000
    10 H1       4.8139  -1.7263  11.4581   H         1 RES1   0.0000
    11 C2       6.5511  -1.3654  10.3201   C.ar      1 RES1   0.0000
    12 C3       6.6568  -2.5970   9.7005   C.ar      1 RES1   0.0000
    13 H2       5.9751  -3.2500   9.8053   H         1 RES1   0.0000
    14 C4       7.7698  -2.8639   8.9261   C.ar      1 RES1   0.0000
    15 H3       7.8647  -3.6936   8.4732   H         1 RES1   0.0000
    16 C5       8.7269  -1.9005   8.8326   C.ar      1 RES1   0.0000
    17 H4       9.5154  -2.0781   8.3332   H         1 RES1   0.0000
    18 C6       8.5760  -0.6500   9.4571   C.ar      1 RES1   0.0000
    19 C7       6.5445   2.5350   8.6348   C.2       1 RES1   0.0000
    20 H5       6.2156   2.7434   7.7687   H         1 RES1   0.0000
    21 C8       7.7820   3.1109   9.1242   C.ar      1 RES1   0.0000
    22 C9       8.5011   3.9997   8.3445   C.ar      1 RES1   0.0000
    23 H6       8.1968   4.2423   7.4782   H         1 RES1   0.0000
    24 C10      9.6710   4.5267   8.8556   C.ar      1 RES1   0.0000
    25 H7      10.1963   5.1351   8.3467   H         1 RES1   0.0000
    26 C11     10.0562   4.1469  10.1231   C.ar      1 RES1   0.0000
    27 H8      10.8496   4.5118  10.4977   H         1 RES1   0.0000
    28 C12      9.3004   3.2330  10.8677   C.ar      1 RES1   0.0000
    29 C13      6.2588   3.1038  13.2065   C.2       1 RES1   0.0000
    30 H9       5.9827   3.8905  13.6633   H         1 RES1   0.0000
    31 C14      7.0213   2.0795  13.8780   C.ar      1 RES1   0.0000
    32 C15      7.2092   2.1206  15.2475   C.ar      1 RES1   0.0000
    33 H10      6.9133   2.8677  15.7526   H         1 RES1   0.0000
    34 C16      7.8315   1.0609  15.8664   C.ar      1 RES1   0.0000
    35 H11      7.9779   1.0572  16.8048   H         1 RES1   0.0000
    36 C17      8.2354   0.0055  15.0757   C.ar      1 RES1   0.0000
    37 H12      8.6305  -0.7552  15.4847   H         1 RES1   0.0000
    38 C18      8.0757   0.0300  13.6830   C.ar      1 RES1   0.0000
    39 C19      5.0489   3.8861  11.3666   C.3       1 RES1   0.0000
    40 H13      5.2678   3.9937  10.4074   H         1 RES1   0.0000
    41 H14      5.1555   4.7661  11.8073   H         1 RES1   0.0000
    42 C20      3.5996   3.4106  11.5120   C.3       1 RES1   0.0000
    43 H15      3.3834   3.3533  12.4772   H         1 RES1   0.0000
    44 H16      3.0037   4.0931  11.1134   H         1 RES1   0.0000
    45 C21      4.2402   0.4433  12.5447   C.3       1 RES1   0.0000
    46 H17      4.5212   1.1146  13.2147   H         1 RES1   0.0000
    47 H18      3.9631  -0.3747  13.0281   H         1 RES1   0.0000
    48 C22      3.0472   0.9907  11.7423   C.3       1 RES1   0.0000
    49 H19      2.7000   0.2619  11.1691   H         1 RES1   0.0000
    50 H20      2.3299   1.2312  12.3808   H         1 RES1   0.0000
    51 C23      4.6132   1.2159   8.9363   C.3       1 RES1   0.0000
    52 H21      4.5296   0.2677   9.2077   H         1 RES1   0.0000
    53 H22      4.5966   1.2503   7.9463   H         1 RES1   0.0000
    54 C24      3.4101   1.9980   9.4808   C.3       1 RES1   0.0000
    55 H23      3.4308   2.9040   9.0843   H         1 RES1   0.0000
    56 H24      2.5865   1.5543   9.1565   H         1 RES1   0.0000
    57 C25      8.6314  -1.0995  12.8776   C.3       1 RES1   0.0000
    58 H25      7.8947  -1.6212  12.4952   H         1 RES1   0.0000
    59 H26      9.1740  -1.6766  13.4541   H         1 RES1   0.0000
    60 H27      9.1889  -0.7418  12.1550   H         1 RES1   0.0000
    61 C26      9.6843   0.3460   9.3376   C.3       1 RES1   0.0000
    62 H28      9.3834   1.1050   8.7968   H         1 RES1   0.0000
    63 H29     10.4581  -0.0765   8.9082   H         1 RES1   0.0000
    64 H30      9.9382   0.6615  10.2298   H         1 RES1   0.0000
    65 C27      9.8097   2.8197  12.2085   C.3       1 RES1   0.0000
    66 H31      9.2407   3.2061  12.9077   H         1 RES1   0.0000
    67 H32     10.7288   3.1392  12.3221   H         1 RES1   0.0000
    68 H33      9.7935   1.8430  12.2770   H         1 RES1   0.0000
    69 Cl1     13.6758   6.0674   8.1244   Cl        2 RES2   0.0000
    70 O1      13.3365   5.8914   9.4997   O.3       2 RES2  -1.0000
    71 O2      14.5049   4.9772   7.6746   O.2       2 RES2   0.0000
    72 O3      12.4618   6.1032   7.3460   O.2       2 RES2   0.0000
    73 O7      14.3533   7.3069   7.9480   O.2       2 RES2   0.0000
    74 Cl2     12.2230  -2.8124  10.5400   Cl        3 RES3   0.0000
    75 O4      11.6221  -3.9614   9.9844   O.3       3 RES3  -1.0000
    76 O5      13.1323  -2.3094   9.6232   O.2       3 RES3   0.0000
    77 O6      11.2379  -1.8713  10.8590   O.2       3 RES3   0.0000
    78 O8      12.9212  -3.0715  11.7531   O.2       3 RES3   0.0000
@<TRIPOS>BOND
     1     1     2    1
     2     2    19    2
     3     3     1    1
     4     4     1    1
     5     5     1    1
     6     6     1    1
     7     7     1    1
     8     8    42    1
     9     9     6    2
    10    10     9    1
    11    11     7   ar
    12    12    11   ar
    13    13    12    1
    14    14    12   ar
    15    15    14    1
    16    16    14   ar
    17    17    16    1
    18    18     7   ar
    19    19    20    1
    20    21     3   ar
    21    22    21   ar
    22    23    22    1
    23    24    22   ar
    24    25    24    1
    25    26    24   ar
    26    27    26    1
    27    28     3   ar
    28    29     5    2
    29    30    29    1
    30    31     4   ar
    31    32    31   ar
    32    33    32    1
    33    34    32   ar
    34    35    34    1
    35    36    34   ar
    36    37    36    1
    37    38     4   ar
    38    39     5    1
    39    40    39    1
    40    41    39    1
    41    42    39    1
    42    43    42    1
    43    44    42    1
    44    45     6    1
    45    46    45    1
    46    47    45    1
    47    48     8    1
    48    49    48    1
    49    50    48    1
    50    51     2    1
    51    52    51    1
    52    53    51    1
    53    54     8    1
    54    55    54    1
    55    56    54    1
    56    57    38    1
    57    58    57    1
    58    59    57    1
    59    60    57    1
    60    61    18    1
    61    62    61    1
    62    63    61    1
    63    64    61    1
    64    65    28    1
    65    66    65    1
    66    67    65    1
    67    68    65    1
    68     9    11    1
    69    16    18   ar
    70    19    21    1
    71    26    28   ar
    72    29    31    1
    73    36    38   ar
    74    45    48    1
    75    51    54    1
    76    69    70    1
    77    71    69    2
    78    72    69    2
    79    73    69    2
    80    74    75    1
    81    76    74    2
    82    77    74    2
    83    78    74    2
@<TRIPOS>SUBSTRUCTURE
     1 RES1        1 GROUP             0 ****  ****    0  
     2 RES2       69 GROUP             0 ****  ****    0  
     3 RES3       74 GROUP             0 ****  ****    0  
@<TRIPOS>CRYSIN
   10.2122   19.1179   15.0573   90.0000   91.4200   90.0000    14     1
