@<TRIPOS>MOLECULE
NIQFUP06
    78    83     3     0     0
SMALL
USER_CHARGES
****
Generated from the CSD

@<TRIPOS>ATOM
     1 Fe1      6.9244   1.3747  11.1998   Fe        1 RES1   2.0000
     2 N1       6.1069   1.8361   9.4076   N.2       1 RES1   0.0000
     3 N2       8.3733   2.7947  10.4540   N.ar      1 RES1   0.0000
     4 N3       7.5869   1.0589  13.2284   N.ar      1 RES1   0.0000
     5 N4       6.0816   2.9514  12.1369   N.2       1 RES1   0.0000
     6 N5       5.4871   0.0541  11.6713   N.2       1 RES1   0.0000
     7 N6       7.6585  -0.4235  10.2320   N.ar      1 RES1   0.0000
     8 N7       3.6047   2.1261  10.8923   N.3       1 RES1   0.0000
     9 C1       5.6036  -1.1140  11.2147   C.2       1 RES1   0.0000
    10 H1       4.9731  -1.7777  11.4296   H         1 RES1   0.0000
    11 C2       6.7377  -1.4168  10.3425   C.ar      1 RES1   0.0000
    12 C3       6.8600  -2.6469   9.7212   C.ar      1 RES1   0.0000
    13 H2       6.1900  -3.2993   9.8180   H         1 RES1   0.0000
    14 C4       7.9757  -2.8973   8.9618   C.ar      1 RES1   0.0000
    15 H3       8.0771  -3.7172   8.5136   H         1 RES1   0.0000
    16 C5       8.9223  -1.9414   8.8722   C.ar      1 RES1   0.0000
    17 H4       9.7038  -2.1129   8.3789   H         1 RES1   0.0000
    18 C6       8.7646  -0.6938   9.5019   C.ar      1 RES1   0.0000
    19 C7       6.7645   2.6562   8.6894   C.2       1 RES1   0.0000
    20 H5       6.4552   2.8948   7.8341   H         1 RES1   0.0000
    21 C8       7.9996   3.2184   9.2098   C.ar      1 RES1   0.0000
    22 C9       8.7366   4.1080   8.4650   C.ar      1 RES1   0.0000
    23 H6       8.4544   4.3567   7.6041   H         1 RES1   0.0000
    24 C10      9.8967   4.6323   8.9993   C.ar      1 RES1   0.0000
    25 H7      10.4210   5.2427   8.5121   H         1 RES1   0.0000
    26 C11     10.2650   4.2338  10.2735   C.ar      1 RES1   0.0000
    27 H8      11.0430   4.5859  10.6654   H         1 RES1   0.0000
    28 C12      9.4948   3.3195  10.9758   C.ar      1 RES1   0.0000
    29 C13      6.3635   3.0924  13.3687   C.2       1 RES1   0.0000
    30 H9       6.0791   3.8540  13.8387   H         1 RES1   0.0000
    31 C14      7.1264   2.0632  14.0327   C.ar      1 RES1   0.0000
    32 C15      7.3067   2.0845  15.4045   C.ar      1 RES1   0.0000
    33 H10      6.9965   2.8120  15.9134   H         1 RES1   0.0000
    34 C16      7.9385   1.0385  16.0069   C.ar      1 RES1   0.0000
    35 H11      8.0822   1.0343  16.9364   H         1 RES1   0.0000
    36 C17      8.3634  -0.0100  15.2243   C.ar      1 RES1   0.0000
    37 H12      8.7638  -0.7589  15.6274   H         1 RES1   0.0000
    38 C18      8.2052   0.0243  13.8389   C.ar      1 RES1   0.0000
    39 C19      5.1590   3.9289  11.5401   C.3       1 RES1   0.0000
    40 H13      5.4216   4.1082  10.6140   H         1 RES1   0.0000
    41 H14      5.2004   4.7708  12.0395   H         1 RES1   0.0000
    42 C20      3.7431   3.3813  11.5748   C.3       1 RES1   0.0000
    43 H15      3.4700   3.2665  12.5086   H         1 RES1   0.0000
    44 H16      3.1397   4.0350  11.1633   H         1 RES1   0.0000
    45 C21      4.3128   0.3511  12.5046   C.3       1 RES1   0.0000
    46 H17      4.5636   0.9803  13.2138   H         1 RES1   0.0000
    47 H18      3.9934  -0.4738  12.9278   H         1 RES1   0.0000
    48 C22      3.1938   0.9569  11.6536   C.3       1 RES1   0.0000
    49 H19      2.8652   0.2754  11.0316   H         1 RES1   0.0000
    50 H20      2.4504   1.2076  12.2407   H         1 RES1   0.0000
    51 C23      4.8190   1.3407   8.8875   C.3       1 RES1   0.0000
    52 H21      4.7329   0.3871   9.0947   H         1 RES1   0.0000
    53 H22      4.8060   1.4387   7.9128   H         1 RES1   0.0000
    54 C24      3.6348   2.0915   9.4821   C.3       1 RES1   0.0000
    55 H23      3.6483   3.0123   9.1476   H         1 RES1   0.0000
    56 H24      2.8072   1.6737   9.1628   H         1 RES1   0.0000
    57 C25      8.7619  -1.0901  13.0105   C.3       1 RES1   0.0000
    58 H25      8.0367  -1.6545  12.6993   H         1 RES1   0.0000
    59 H26      9.3746  -1.6179  13.5467   H         1 RES1   0.0000
    60 H27      9.2350  -0.7223  12.2483   H         1 RES1   0.0000
    61 C26      9.8493   0.3315   9.4020   C.3       1 RES1   0.0000
    62 H28      9.5337   1.0863   8.8813   H         1 RES1   0.0000
    63 H29     10.6242  -0.0597   8.9676   H         1 RES1   0.0000
    64 H30     10.0935   0.6317  10.2917   H         1 RES1   0.0000
    65 C27      9.9629   2.8790  12.3223   C.3       1 RES1   0.0000
    66 H31      9.3458   3.1972  12.9989   H         1 RES1   0.0000
    67 H32     10.8460   3.2434  12.4935   H         1 RES1   0.0000
    68 H33     10.0026   1.9106  12.3497   H         1 RES1   0.0000
    69 Cl1     13.8894   6.1198   8.1602   Cl        2 RES2   0.0000
    70 O1      13.5215   5.9243   9.5076   O.3       2 RES2  -1.0000
    71 O2      14.7173   5.0456   7.7013   O.2       2 RES2   0.0000
    72 O3      12.6799   6.1575   7.3895   O.2       2 RES2   0.0000
    73 O7      14.5429   7.3680   8.0036   O.2       2 RES2   0.0000
    74 Cl2     12.4169  -2.8139  10.5471   Cl        3 RES3   0.0000
    75 O4      11.8381  -3.9582   9.9590   O.3       3 RES3  -1.0000
    76 O5      13.2255  -2.2573   9.6561   O.2       3 RES3   0.0000
    77 O6      11.4140  -1.9326  10.9605   O.2       3 RES3   0.0000
    78 O8      13.1456  -3.0963  11.7333   O.2       3 RES3   0.0000
@<TRIPOS>BOND
     1     1     2    1
     2     2    19    2
     3     3     1    1
     4     4     1    1
     5     5     1    1
     6     6     1    1
     7     7     1    1
     8     8    42    1
     9     9     6    2
    10    10     9    1
    11    11     7   ar
    12    12    11   ar
    13    13    12    1
    14    14    12   ar
    15    15    14    1
    16    16    14   ar
    17    17    16    1
    18    18     7   ar
    19    19    20    1
    20    21     3   ar
    21    22    21   ar
    22    23    22    1
    23    24    22   ar
    24    25    24    1
    25    26    24   ar
    26    27    26    1
    27    28     3   ar
    28    29     5    2
    29    30    29    1
    30    31     4   ar
    31    32    31   ar
    32    33    32    1
    33    34    32   ar
    34    35    34    1
    35    36    34   ar
    36    37    36    1
    37    38     4   ar
    38    39     5    1
    39    40    39    1
    40    41    39    1
    41    42    39    1
    42    43    42    1
    43    44    42    1
    44    45     6    1
    45    46    45    1
    46    47    45    1
    47    48     8    1
    48    49    48    1
    49    50    48    1
    50    51     2    1
    51    52    51    1
    52    53    51    1
    53    54     8    1
    54    55    54    1
    55    56    54    1
    56    57    38    1
    57    58    57    1
    58    59    57    1
    59    60    57    1
    60    61    18    1
    61    62    61    1
    62    63    61    1
    63    64    61    1
    64    65    28    1
    65    66    65    1
    66    67    65    1
    67    68    65    1
    68     9    11    1
    69    16    18   ar
    70    19    21    1
    71    26    28   ar
    72    29    31    1
    73    36    38   ar
    74    45    48    1
    75    51    54    1
    76    69    70    1
    77    71    69    2
    78    72    69    2
    79    73    69    2
    80    74    75    1
    81    76    74    2
    82    77    74    2
    83    78    74    2
@<TRIPOS>SUBSTRUCTURE
     1 RES1        1 GROUP             0 ****  ****    0  
     2 RES2       69 GROUP             0 ****  ****    0  
     3 RES3       74 GROUP             0 ****  ****    0  
@<TRIPOS>CRYSIN
   10.3663   19.2603   15.1373   90.0000   91.4320   90.0000    14     1
