@<TRIPOS>MOLECULE
NIQFUP04
    78    83     3     0     0
SMALL
USER_CHARGES
****
Generated from the CSD

@<TRIPOS>ATOM
     1 Fe1      6.7903   1.3620  11.1411   Fe        1 RES1   2.0000
     2 N1       5.9314   1.7463   9.4217   N.2       1 RES1   0.0000
     3 N2       8.1896   2.7098  10.3904   N.ar      1 RES1   0.0000
     4 N3       7.4753   1.0722  13.0917   N.ar      1 RES1   0.0000
     5 N4       5.9831   2.9212  11.9935   N.2       1 RES1   0.0000
     6 N5       5.3892   0.1294  11.6741   N.2       1 RES1   0.0000
     7 N6       7.4933  -0.3695  10.2105   N.ar      1 RES1   0.0000
     8 N7       3.3340   2.1442  10.9082   N.3       1 RES1   0.0000
     9 C1       5.4689  -1.0628  11.2265   C.2       1 RES1   0.0000
    10 H1       4.8316  -1.7251  11.4674   H         1 RES1   0.0000
    11 C2       6.5744  -1.3648  10.3333   C.ar      1 RES1   0.0000
    12 C3       6.6827  -2.5934   9.7130   C.ar      1 RES1   0.0000
    13 H2       6.0016  -3.2472   9.8186   H         1 RES1   0.0000
    14 C4       7.7904  -2.8580   8.9382   C.ar      1 RES1   0.0000
    15 H3       7.8813  -3.6876   8.4833   H         1 RES1   0.0000
    16 C5       8.7494  -1.8987   8.8440   C.ar      1 RES1   0.0000
    17 H4       9.5373  -2.0774   8.3447   H         1 RES1   0.0000
    18 C6       8.5980  -0.6462   9.4720   C.ar      1 RES1   0.0000
    19 C7       6.5665   2.5484   8.6494   C.2       1 RES1   0.0000
    20 H5       6.2356   2.7609   7.7841   H         1 RES1   0.0000
    21 C8       7.8079   3.1222   9.1416   C.ar      1 RES1   0.0000
    22 C9       8.5216   4.0156   8.3682   C.ar      1 RES1   0.0000
    23 H6       8.2174   4.2620   7.5037   H         1 RES1   0.0000
    24 C10      9.6929   4.5413   8.8847   C.ar      1 RES1   0.0000
    25 H7      10.2190   5.1485   8.3779   H         1 RES1   0.0000
    26 C11     10.0764   4.1619  10.1509   C.ar      1 RES1   0.0000
    27 H8      10.8673   4.5281  10.5300   H         1 RES1   0.0000
    28 C12      9.3185   3.2453  10.8895   C.ar      1 RES1   0.0000
    29 C13      6.2660   3.1059  13.2326   C.2       1 RES1   0.0000
    30 H9       5.9815   3.8867  13.6933   H         1 RES1   0.0000
    31 C14      7.0330   2.0808  13.8971   C.ar      1 RES1   0.0000
    32 C15      7.2179   2.1197  15.2714   C.ar      1 RES1   0.0000
    33 H10      6.9159   2.8643  15.7791   H         1 RES1   0.0000
    34 C16      7.8475   1.0622  15.8878   C.ar      1 RES1   0.0000
    35 H11      7.9964   1.0588  16.8265   H         1 RES1   0.0000
    36 C17      8.2557   0.0098  15.0969   C.ar      1 RES1   0.0000
    37 H12      8.6550  -0.7486  15.5048   H         1 RES1   0.0000
    38 C18      8.0952   0.0329  13.7019   C.ar      1 RES1   0.0000
    39 C19      5.0640   3.8932  11.3875   C.3       1 RES1   0.0000
    40 H13      5.2888   4.0112  10.4305   H         1 RES1   0.0000
    41 H14      5.1643   4.7694  11.8366   H         1 RES1   0.0000
    42 C20      3.6168   3.4128  11.5185   C.3       1 RES1   0.0000
    43 H15      3.3916   3.3544  12.4801   H         1 RES1   0.0000
    44 H16      3.0229   4.0935  11.1147   H         1 RES1   0.0000
    45 C21      4.2521   0.4419  12.5476   C.3       1 RES1   0.0000
    46 H17      4.5308   1.1124  13.2216   H         1 RES1   0.0000
    47 H18      3.9727  -0.3772  13.0287   H         1 RES1   0.0000
    48 C22      3.0607   0.9929  11.7427   C.3       1 RES1   0.0000
    49 H19      2.7136   0.2661  11.1659   H         1 RES1   0.0000
    50 H20      2.3422   1.2349  12.3791   H         1 RES1   0.0000
    51 C23      4.6376   1.2277   8.9401   C.3       1 RES1   0.0000
    52 H21      4.5533   0.2776   9.2067   H         1 RES1   0.0000
    53 H22      4.6240   1.2656   7.9513   H         1 RES1   0.0000
    54 C24      3.4332   2.0086   9.4859   C.3       1 RES1   0.0000
    55 H23      3.4531   2.9160   9.0922   H         1 RES1   0.0000
    56 H24      2.6092   1.5662   9.1615   H         1 RES1   0.0000
    57 C25      8.6492  -1.0935  12.8980   C.3       1 RES1   0.0000
    58 H25      7.9140  -1.6332  12.5404   H         1 RES1   0.0000
    59 H26      9.2175  -1.6523  13.4673   H         1 RES1   0.0000
    60 H27      9.1810  -0.7352  12.1576   H         1 RES1   0.0000
    61 C26      9.7040   0.3515   9.3535   C.3       1 RES1   0.0000
    62 H28      9.4097   1.1009   8.7938   H         1 RES1   0.0000
    63 H29     10.4855  -0.0747   8.9445   H         1 RES1   0.0000
    64 H30      9.9420   0.6835  10.2451   H         1 RES1   0.0000
    65 C27      9.8280   2.8273  12.2293   C.3       1 RES1   0.0000
    66 H31      9.2644   3.2166  12.9292   H         1 RES1   0.0000
    67 H32     10.7503   3.1400  12.3400   H         1 RES1   0.0000
    68 H33      9.8048   1.8495  12.2978   H         1 RES1   0.0000
    69 Cl1     13.7032   6.0748   8.1342   Cl        2 RES2   0.0000
    70 O1      13.3596   5.9063   9.5000   O.3       2 RES2  -1.0000
    71 O2      14.5346   4.9888   7.6896   O.2       2 RES2   0.0000
    72 O3      12.4943   6.1117   7.3506   O.2       2 RES2   0.0000
    73 O7      14.3694   7.3145   7.9583   O.2       2 RES2   0.0000
    74 Cl2     12.2548  -2.8082  10.5385   Cl        3 RES3   0.0000
    75 O4      11.6594  -3.9541   9.9805   O.3       3 RES3  -1.0000
    76 O5      13.1527  -2.3110   9.6313   O.2       3 RES3   0.0000
    77 O6      11.2639  -1.8813  10.8811   O.2       3 RES3   0.0000
    78 O8      12.9556  -3.0600  11.7486   O.2       3 RES3   0.0000
@<TRIPOS>BOND
     1     1     2    1
     2     2    19    2
     3     3     1    1
     4     4     1    1
     5     5     1    1
     6     6     1    1
     7     7     1    1
     8     8    42    1
     9     9     6    2
    10    10     9    1
    11    11     7   ar
    12    12    11   ar
    13    13    12    1
    14    14    12   ar
    15    15    14    1
    16    16    14   ar
    17    17    16    1
    18    18     7   ar
    19    19    20    1
    20    21     3   ar
    21    22    21   ar
    22    23    22    1
    23    24    22   ar
    24    25    24    1
    25    26    24   ar
    26    27    26    1
    27    28     3   ar
    28    29     5    2
    29    30    29    1
    30    31     4   ar
    31    32    31   ar
    32    33    32    1
    33    34    32   ar
    34    35    34    1
    35    36    34   ar
    36    37    36    1
    37    38     4   ar
    38    39     5    1
    39    40    39    1
    40    41    39    1
    41    42    39    1
    42    43    42    1
    43    44    42    1
    44    45     6    1
    45    46    45    1
    46    47    45    1
    47    48     8    1
    48    49    48    1
    49    50    48    1
    50    51     2    1
    51    52    51    1
    52    53    51    1
    53    54     8    1
    54    55    54    1
    55    56    54    1
    56    57    38    1
    57    58    57    1
    58    59    57    1
    59    60    57    1
    60    61    18    1
    61    62    61    1
    62    63    61    1
    63    64    61    1
    64    65    28    1
    65    66    65    1
    66    67    65    1
    67    68    65    1
    68     9    11    1
    69    16    18   ar
    70    19    21    1
    71    26    28   ar
    72    29    31    1
    73    36    38   ar
    74    45    48    1
    75    51    54    1
    76    69    70    1
    77    71    69    2
    78    72    69    2
    79    73    69    2
    80    74    75    1
    81    76    74    2
    82    77    74    2
    83    78    74    2
@<TRIPOS>SUBSTRUCTURE
     1 RES1        1 GROUP             0 ****  ****    0  
     2 RES2       69 GROUP             0 ****  ****    0  
     3 RES3       74 GROUP             0 ****  ****    0  
@<TRIPOS>CRYSIN
   10.2327   19.1464   15.0753   90.0000   91.4020   90.0000    14     1
