@<TRIPOS>MOLECULE
NIQFUP08
    78    83     3     0     0
SMALL
USER_CHARGES
****
Generated from the CSD

@<TRIPOS>ATOM
     1 Fe1      7.0624   1.3738  11.2480   Fe        1 RES1   2.0000
     2 N1       6.3168   1.9450   9.3469   N.2       1 RES1   0.0000
     3 N2       8.5906   2.8824  10.4998   N.ar      1 RES1   0.0000
     4 N3       7.7068   1.0308  13.3785   N.ar      1 RES1   0.0000
     5 N4       6.1865   2.9750  12.2944   N.2       1 RES1   0.0000
     6 N5       5.5880  -0.0707  11.6383   N.2       1 RES1   0.0000
     7 N6       7.8394  -0.5117  10.2203   N.ar      1 RES1   0.0000
     8 N7       3.9170   2.0831  10.8739   N.3       1 RES1   0.0000
     9 C1       5.7592  -1.2247  11.1603   C.2       1 RES1   0.0000
    10 H1       5.1426  -1.8981  11.3407   H         1 RES1   0.0000
    11 C2       6.9188  -1.5070  10.3257   C.ar      1 RES1   0.0000
    12 C3       7.0661  -2.7315   9.7027   C.ar      1 RES1   0.0000
    13 H2       6.4090  -3.3856   9.7840   H         1 RES1   0.0000
    14 C4       8.2012  -2.9666   8.9578   C.ar      1 RES1   0.0000
    15 H3       8.3204  -3.7788   8.5188   H         1 RES1   0.0000
    16 C5       9.1320  -2.0023   8.8779   C.ar      1 RES1   0.0000
    17 H4       9.9094  -2.1576   8.3928   H         1 RES1   0.0000
    18 C6       8.9529  -0.7705   9.5080   C.ar      1 RES1   0.0000
    19 C7       7.0037   2.7852   8.6970   C.2       1 RES1   0.0000
    20 H5       6.7231   3.0621   7.8551   H         1 RES1   0.0000
    21 C8       8.2371   3.3232   9.2643   C.ar      1 RES1   0.0000
    22 C9       8.9967   4.2217   8.5442   C.ar      1 RES1   0.0000
    23 H6       8.7343   4.4857   7.6911   H         1 RES1   0.0000
    24 C10     10.1596   4.7255   9.1142   C.ar      1 RES1   0.0000
    25 H7      10.6921   5.3321   8.6525   H         1 RES1   0.0000
    26 C11     10.5007   4.3071  10.3672   C.ar      1 RES1   0.0000
    27 H8      11.2722   4.6368  10.7682   H         1 RES1   0.0000
    28 C12      9.7042   3.3910  11.0526   C.ar      1 RES1   0.0000
    29 C13      6.4653   3.0664  13.5249   C.2       1 RES1   0.0000
    30 H9       6.1773   3.8039  14.0123   H         1 RES1   0.0000
    31 C14      7.2312   2.0271  14.1740   C.ar      1 RES1   0.0000
    32 C15      7.4048   2.0333  15.5467   C.ar      1 RES1   0.0000
    33 H10      7.0889   2.7445  16.0565   H         1 RES1   0.0000
    34 C16      8.0406   0.9901  16.1414   C.ar      1 RES1   0.0000
    35 H11      8.1780   0.9800  17.0605   H         1 RES1   0.0000
    36 C17      8.4754  -0.0440  15.3593   C.ar      1 RES1   0.0000
    37 H12      8.8753  -0.7844  15.7558   H         1 RES1   0.0000
    38 C18      8.3262  -0.0004  13.9779   C.ar      1 RES1   0.0000
    39 C19      5.2471   3.9453  11.7226   C.3       1 RES1   0.0000
    40 H13      5.5405   4.2068  10.8365   H         1 RES1   0.0000
    41 H14      5.2122   4.7394  12.2778   H         1 RES1   0.0000
    42 C20      3.8783   3.3126  11.6452   C.3       1 RES1   0.0000
    43 H15      3.5604   3.1222  12.5421   H         1 RES1   0.0000
    44 H16      3.2587   3.9337  11.2329   H         1 RES1   0.0000
    45 C21      4.3645   0.2008  12.3998   C.3       1 RES1   0.0000
    46 H17      4.5684   0.7709  13.1572   H         1 RES1   0.0000
    47 H18      3.9943  -0.6314  12.7350   H         1 RES1   0.0000
    48 C22      3.3506   0.8886  11.4956   C.3       1 RES1   0.0000
    49 H19      3.0660   0.2712  10.8031   H         1 RES1   0.0000
    50 H20      2.5712   1.1350  12.0151   H         1 RES1   0.0000
    51 C23      5.0283   1.4943   8.7795   C.3       1 RES1   0.0000
    52 H21      4.9431   0.5346   8.8940   H         1 RES1   0.0000
    53 H22      5.0097   1.6870   7.8293   H         1 RES1   0.0000
    54 C24      3.8687   2.1890   9.4576   C.3       1 RES1   0.0000
    55 H23      3.8722   3.1260   9.2099   H         1 RES1   0.0000
    56 H24      3.0381   1.8013   9.1400   H         1 RES1   0.0000
    57 C25      8.8671  -1.0978  13.1270   C.3       1 RES1   0.0000
    58 H25      8.1417  -1.6173  12.7745   H         1 RES1   0.0000
    59 H26      9.4362  -1.6618  13.6554   H         1 RES1   0.0000
    60 H27      9.3730  -0.7224  12.4024   H         1 RES1   0.0000
    61 C26     10.0099   0.2836   9.4328   C.3       1 RES1   0.0000
    62 H28      9.6959   1.0149   8.8955   H         1 RES1   0.0000
    63 H29     10.8028  -0.0872   9.0383   H         1 RES1   0.0000
    64 H30     10.2093   0.6004  10.3171   H         1 RES1   0.0000
    65 C27     10.1250   2.9254  12.3943   C.3       1 RES1   0.0000
    66 H31      9.4977   3.2364  13.0509   H         1 RES1   0.0000
    67 H32     10.9967   3.2732  12.5952   H         1 RES1   0.0000
    68 H33     10.1521   1.9659  12.4054   H         1 RES1   0.0000
    69 Cl1     14.1075   6.1616   8.1888   Cl        2 RES2   0.0000
    70 O1      13.7208   5.9387   9.5308   O.3       2 RES2  -1.0000
    71 O2      14.9247   5.1024   7.7143   O.2       2 RES2   0.0000
    72 O3      12.8952   6.1998   7.4250   O.2       2 RES2   0.0000
    73 O7      14.7419   7.4146   8.0521   O.2       2 RES2   0.0000
    74 Cl2     12.5951  -2.8537  10.5572   Cl        3 RES3   0.0000
    75 O4      12.0378  -3.9777   9.9425   O.3       3 RES3  -1.0000
    76 O5      13.3830  -2.2777   9.6837   O.2       3 RES3   0.0000
    77 O6      11.6068  -1.9756  11.0127   O.2       3 RES3   0.0000
    78 O8      13.3259  -3.1685  11.7251   O.2       3 RES3   0.0000
@<TRIPOS>BOND
     1     1     2    1
     2     2    19    2
     3     3     1    1
     4     4     1    1
     5     5     1    1
     6     6     1    1
     7     7     1    1
     8     8    42    1
     9     9     6    2
    10    10     9    1
    11    11     7   ar
    12    12    11   ar
    13    13    12    1
    14    14    12   ar
    15    15    14    1
    16    16    14   ar
    17    17    16    1
    18    18     7   ar
    19    19    20    1
    20    21     3   ar
    21    22    21   ar
    22    23    22    1
    23    24    22   ar
    24    25    24    1
    25    26    24   ar
    26    27    26    1
    27    28     3   ar
    28    29     5    2
    29    30    29    1
    30    31     4   ar
    31    32    31   ar
    32    33    32    1
    33    34    32   ar
    34    35    34    1
    35    36    34   ar
    36    37    36    1
    37    38     4   ar
    38    39     5    1
    39    40    39    1
    40    41    39    1
    41    42    39    1
    42    43    42    1
    43    44    42    1
    44    45     6    1
    45    46    45    1
    46    47    45    1
    47    48     8    1
    48    49    48    1
    49    50    48    1
    50    51     2    1
    51    52    51    1
    52    53    51    1
    53    54     8    1
    54    55    54    1
    55    56    54    1
    56    57    38    1
    57    58    57    1
    58    59    57    1
    59    60    57    1
    60    61    18    1
    61    62    61    1
    62    63    61    1
    63    64    61    1
    64    65    28    1
    65    66    65    1
    66    67    65    1
    67    68    65    1
    68     9    11    1
    69    16    18   ar
    70    19    21    1
    71    26    28   ar
    72    29    31    1
    73    36    38   ar
    74    45    48    1
    75    51    54    1
    76    69    70    1
    77    71    69    2
    78    72    69    2
    79    73    69    2
    80    74    75    1
    81    76    74    2
    82    77    74    2
    83    78    74    2
@<TRIPOS>SUBSTRUCTURE
     1 RES1        1 GROUP             0 ****  ****    0  
     2 RES2       69 GROUP             0 ****  ****    0  
     3 RES3       74 GROUP             0 ****  ****    0  
@<TRIPOS>CRYSIN
   10.5290   19.3683   15.1933   90.0000   91.5410   90.0000    14     1
