@<TRIPOS>MOLECULE
NISBEW
    80    85     2     0     0
SMALL
NO_CHARGES
****
Generated from the CSD

@<TRIPOS>ATOM
     1 Fe1      8.0390   4.7057   6.1209   Fe        1 RES1   0.0000
     2 Cl1      9.8471   6.2464   5.9161   Cl        1 RES1   0.0000
     3 Cl2      6.5491   6.3786   5.2503   Cl        1 RES1   0.0000
     4 P1       9.4127   3.3165   7.0904   P.3       1 RES1   0.0000
     5 P2       7.6885   5.5589   8.1453   P.3       1 RES1   0.0000
     6 P3       6.3727   3.2912   6.0856   P.3       1 RES1   0.0000
     7 P4       8.4039   4.0940   4.0156   P.3       1 RES1   0.0000
     8 C1       9.4472   1.4959   6.8552   C.3       1 RES1   0.0000
     9 C2      10.8595   1.0741   7.0368   C.3       1 RES1   0.0000
    10 C3      11.8086   2.0625   6.8310   C.3       1 RES1   0.0000
    11 C4      11.2405   3.4473   6.9192   C.3       1 RES1   0.0000
    12 C5       9.2009   3.4360   8.9131   C.3       1 RES1   0.0000
    13 C6       8.9495   4.8799   9.2728   C.3       1 RES1   0.0000
    14 C7       6.1180   5.3804   9.0826   C.3       1 RES1   0.0000
    15 C8       6.0207   6.6148   9.9611   C.3       1 RES1   0.0000
    16 C9       6.4862   7.7859   9.1189   C.3       1 RES1   0.0000
    17 C10      7.7637   7.3711   8.4220   C.3       1 RES1   0.0000
    18 C11      6.0227   1.9767   7.3359   C.3       1 RES1   0.0000
    19 C12      4.5615   1.8558   7.4535   C.3       1 RES1   0.0000
    20 C13      3.8247   2.8076   6.8137   C.3       1 RES1   0.0000
    21 C14      4.6132   3.8451   6.0510   C.3       1 RES1   0.0000
    22 C15      6.4731   2.2958   4.5655   C.3       1 RES1   0.0000
    23 C16      6.9894   3.0888   3.4449   C.3       1 RES1   0.0000
    24 C17      9.8518   3.1577   3.4172   C.3       1 RES1   0.0000
    25 C18     10.0664   3.5893   1.9697   C.3       1 RES1   0.0000
    26 C19      9.7812   5.0373   1.8885   C.3       1 RES1   0.0000
    27 C20      8.5808   5.3804   2.7203   C.3       1 RES1   0.0000
    28 H1       8.8807   1.0627   7.5134   H         1 RES1   0.0000
    29 H2       9.1402   1.2673   5.9644   H         1 RES1   0.0000
    30 H3      10.9655   0.7500   7.9457   H         1 RES1   0.0000
    31 H4      11.0435   0.3529   6.4144   H         1 RES1   0.0000
    32 H5      12.5003   1.9690   7.4969   H         1 RES1   0.0000
    33 H6      12.1844   1.9423   5.9450   H         1 RES1   0.0000
    34 H7      11.4601   3.9444   6.1160   H         1 RES1   0.0000
    35 H8      11.6106   3.9024   7.6922   H         1 RES1   0.0000
    36 H9       8.4454   2.8936   9.1914   H         1 RES1   0.0000
    37 H10     10.0038   3.1226   9.3581   H         1 RES1   0.0000
    38 H11      9.7728   5.3852   9.1831   H         1 RES1   0.0000
    39 H12      8.6334   4.9372  10.1882   H         1 RES1   0.0000
    40 H13      5.3639   5.3397   8.4745   H         1 RES1   0.0000
    41 H14      6.1387   4.5783   9.6272   H         1 RES1   0.0000
    42 H15      6.5979   6.5163  10.7367   H         1 RES1   0.0000
    43 H16      5.1087   6.7492  10.2504   H         1 RES1   0.0000
    44 H17      6.6474   8.5560   9.6835   H         1 RES1   0.0000
    45 H18      5.8046   8.0060   8.4607   H         1 RES1   0.0000
    46 H19      8.5282   7.5881   8.9781   H         1 RES1   0.0000
    47 H20      7.8421   7.8314   7.5713   H         1 RES1   0.0000
    48 H21      6.4051   1.1334   7.0466   H         1 RES1   0.0000
    49 H22      6.4032   2.2257   8.1935   H         1 RES1   0.0000
    50 H23      4.3363   1.8845   8.3948   H         1 RES1   0.0000
    51 H24      4.3087   0.9906   7.0876   H         1 RES1   0.0000
    52 H25      3.3000   3.2687   7.4833   H         1 RES1   0.0000
    53 H26      3.2416   2.3592   6.1878   H         1 RES1   0.0000
    54 H27      4.5255   4.7127   6.4761   H         1 RES1   0.0000
    55 H28      4.2956   3.8998   5.1362   H         1 RES1   0.0000
    56 H29      7.0643   1.5424   4.7184   H         1 RES1   0.0000
    57 H30      5.5870   1.9709   4.3407   H         1 RES1   0.0000
    58 H31      6.2901   3.6725   3.1115   H         1 RES1   0.0000
    59 H32      7.2796   2.4945   2.7343   H         1 RES1   0.0000
    60 H33      9.6775   2.2047   3.4622   H         1 RES1   0.0000
    61 H34     10.6324   3.3692   3.9531   H         1 RES1   0.0000
    62 H35     10.9885   3.4217   1.7090   H         1 RES1   0.0000
    63 H36      9.4723   3.0986   1.3844   H         1 RES1   0.0000
    64 H37      9.6042   5.2759   0.9643   H         1 RES1   0.0000
    65 H38     10.5456   5.5356   2.2113   H         1 RES1   0.0000
    66 H39      7.7870   5.3984   2.1641   H         1 RES1   0.0000
    67 H40      8.7055   6.2484   3.1350   H         1 RES1   0.0000
    68 O1       5.7005   1.7152  12.9477   O.3       2 RES2   0.0000
    69 C21      6.0874   2.8399  12.0190   C.3       2 RES2   0.0000
    70 C22      6.3748   2.3479  10.9295   C.3       2 RES2   0.0000
    71 C23      6.8548   1.1950  11.1198   C.3       2 RES2   0.0000
    72 C24      6.4974   0.6186  12.3130   C.3       2 RES2   0.0000
    73 H41      6.8610   3.3196  12.3675   H         2 RES2   0.0000
    74 H42      5.3524   3.4646  11.9073   H         2 RES2   0.0000
    75 H43      5.5794   2.2836  10.3741   H         2 RES2   0.0000
    76 H44      7.0348   2.9009  10.4714   H         2 RES2   0.0000
    77 H45      6.5460   0.6189  10.4028   H         2 RES2   0.0000
    78 H46      7.8197   1.2619  11.0900   H         2 RES2   0.0000
    79 H47      7.2822   0.3986  12.8377   H         2 RES2   0.0000
    80 H48      5.9645  -0.1746  12.1714   H         2 RES2   0.0000
@<TRIPOS>BOND
     1     1     2    1
     2     3     1    1
     3     4     1    1
     4     5     1    1
     5     6     1    1
     6     7     1    1
     7     8     4    1
     8     9     8    1
     9    10     9    1
    10    11     4    1
    11    12     4    1
    12    13     5    1
    13    14     5    1
    14    15    14    1
    15    16    15    1
    16    17     5    1
    17    18     6    1
    18    19    18    1
    19    20    19    1
    20    21     6    1
    21    22     6    1
    22    23     7    1
    23    24     7    1
    24    25    24    1
    25    26    25    1
    26    27     7    1
    27    28     8    1
    28    29     8    1
    29    30     9    1
    30    31     9    1
    31    32    10    1
    32    33    10    1
    33    34    11    1
    34    35    11    1
    35    36    12    1
    36    37    12    1
    37    38    13    1
    38    39    13    1
    39    40    14    1
    40    41    14    1
    41    42    15    1
    42    43    15    1
    43    44    16    1
    44    45    16    1
    45    46    17    1
    46    47    17    1
    47    48    18    1
    48    49    18    1
    49    50    19    1
    50    51    19    1
    51    52    20    1
    52    53    20    1
    53    54    21    1
    54    55    21    1
    55    56    22    1
    56    57    22    1
    57    58    23    1
    58    59    23    1
    59    60    24    1
    60    61    24    1
    61    62    25    1
    62    63    25    1
    63    64    26    1
    64    65    26    1
    65    66    27    1
    66    67    27    1
    67    10    11    1
    68    12    13    1
    69    16    17    1
    70    20    21    1
    71    22    23    1
    72    26    27    1
    73    68    69    1
    74    69    70    1
    75    70    71    1
    76    71    72    1
    77    72    68    1
    78    73    69    1
    79    74    69    1
    80    75    70    1
    81    76    70    1
    82    77    71    1
    83    78    71    1
    84    79    72    1
    85    80    72    1
@<TRIPOS>SUBSTRUCTURE
     1 RES1        1 GROUP             0 ****  ****    0  
     2 RES2       68 GROUP             0 ****  ****    0  
@<TRIPOS>CRYSIN
   12.0840   14.0590   17.6650   90.0000  101.7700   90.0000   231     1
