@<TRIPOS>MOLECULE
NITNAF
    98    97     7     0     0
SMALL
USER_CHARGES
****
Generated from the CSD

@<TRIPOS>ATOM
     1 Fe1     -0.0000  -0.0000 -16.5940   Fe        1 RES1   0.0000
     2 O1       2.6595   0.7391 -13.8697   O.3       1 RES1   0.0000
     3 O2      -0.8322  -1.3967 -17.7025   O.3       1 RES1   0.0000
     4 N1       0.3592   1.6304 -15.2369   N.3       1 RES1   0.0000
     5 N2       1.3923  -2.5139 -19.1469   N.4       1 RES1   1.0000
     6 C1       0.3304   1.4309 -13.7656   C.3       1 RES1   0.0000
     7 C2       1.3801   0.4266 -13.3255   C.3       1 RES1   0.0000
     8 C3       3.2863   1.8746 -13.2550   C.3       1 RES1   0.0000
     9 C4       0.6958  -1.2313 -19.5936   C.3       1 RES1   0.0000
    10 C5      -0.7534  -1.2655 -19.0898   C.3       1 RES1   0.0000
    11 C6       0.6935  -3.7426 -19.6104   C.3       1 RES1   0.0000
    12 C7       2.8020  -2.5769 -19.6003   C.3       1 RES1   0.0000
    13 H1       0.5260   2.2894 -13.3356   H         1 RES1   0.0000
    14 H2       1.4430   0.4463 -12.3481   H         1 RES1   0.0000
    15 H3       4.1389   2.0308 -13.6682   H         1 RES1   0.0000
    16 H4       3.4098   1.7026 -12.3178   H         1 RES1   0.0000
    17 H5       2.7292   2.6478 -13.3659   H         1 RES1   0.0000
    18 H6       1.1657   2.0321 -15.4787   H         1 RES1   0.0000
    19 H7      -0.1114   2.1148 -15.3780   H         1 RES1   0.0000
    20 H8       0.5768  -1.2090 -20.5711   H         1 RES1   0.0000
    21 H9      -1.2066  -2.0321 -19.5063   H         1 RES1   0.0000
    22 H10      1.3968  -2.5795 -18.0686   H         1 RES1   0.0000
    23 H11     -0.2228  -3.7176 -19.3249   H         1 RES1   0.0000
    24 H12      1.1247  -4.5158 -19.2409   H         1 RES1   0.0000
    25 H13      0.7268  -3.7872 -20.5678   H         1 RES1   0.0000
    26 H14      3.2681  -1.7906 -19.3081   H         1 RES1   0.0000
    27 H15      2.8270  -2.6254 -20.5611   H         1 RES1   0.0000
    28 H16      3.2241  -3.3553 -19.2308   H         1 RES1   0.0000
    29 C5A      1.4726  -0.0197 -19.0898   C.3       1 RES1   0.0000
    30 O2A      1.6257  -0.0223 -17.7025   O.3       1 RES1   0.0000
    31 O2C     -0.7935   1.4191 -17.7025   O.3       1 RES1   0.0000
    32 C5C     -0.7192   1.2852 -19.0898   C.3       1 RES1   0.0000
    33 C4C     -1.4142   0.0131 -19.5936   C.3       1 RES1   0.0000
    34 N2C     -2.8732   0.0512 -19.1469   N.4       1 RES1   1.0000
    35 C6C     -3.5879   1.2707 -19.6104   C.3       1 RES1   0.0000
    36 H11C    -3.1081   2.0518 -19.3249   H         1 RES1   0.0000
    37 H12C    -4.4731   1.2838 -19.2409   H         1 RES1   0.0000
    38 H13C    -3.6432   1.2642 -20.5678   H         1 RES1   0.0000
    39 C7C     -3.6326  -1.1381 -19.6003   C.3       1 RES1   0.0000
    40 H14C    -3.1847  -1.9350 -19.3081   H         1 RES1   0.0000
    41 H15C    -3.6872  -1.1355 -20.5611   H         1 RES1   0.0000
    42 H16C    -4.5178  -1.1145 -19.2308   H         1 RES1   0.0000
    43 H10C    -2.9323   0.0801 -18.0686   H         1 RES1   0.0000
    44 H8C     -1.3354   0.1050 -20.5711   H         1 RES1   0.0000
    45 C4A      0.7185   1.2182 -19.5936   C.3       1 RES1   0.0000
    46 N2A      1.4809   2.4627 -19.1469   N.4       1 RES1   1.0000
    47 C6A      2.8944   2.4719 -19.6104   C.3       1 RES1   0.0000
    48 H11A     3.3310   1.6658 -19.3249   H         1 RES1   0.0000
    49 H12A     3.3484   3.2319 -19.2409   H         1 RES1   0.0000
    50 H13A     2.9164   2.5231 -20.5678   H         1 RES1   0.0000
    51 C7A      0.8307   3.7150 -19.6003   C.3       1 RES1   0.0000
    52 H14A    -0.0834   3.7255 -19.3081   H         1 RES1   0.0000
    53 H15A     0.8602   3.7609 -20.5611   H         1 RES1   0.0000
    54 H16A     1.2937   4.4698 -19.2308   H         1 RES1   0.0000
    55 H10A     1.5355   2.4994 -18.0686   H         1 RES1   0.0000
    56 H9A      2.3631  -0.0289 -19.5063   H         1 RES1   0.0000
    57 H8A      0.7587   1.1040 -20.5711   H         1 RES1   0.0000
    58 H9C     -1.1566   2.0610 -19.5063   H         1 RES1   0.0000
    59 C1C      1.0739  -1.0016 -13.7656   C.3       1 RES1   0.0000
    60 N1C      1.2323  -1.1263 -15.2369   N.3       1 RES1   0.0000
    61 N1A     -1.5916  -0.5041 -15.2369   N.3       1 RES1   0.0000
    62 C1A     -1.4044  -0.4293 -13.7656   C.3       1 RES1   0.0000
    63 C2A     -1.0595   0.9819 -13.3255   C.3       1 RES1   0.0000
    64 O1A     -1.9698   1.9336 -13.8697   O.3       1 RES1   0.0000
    65 C3A     -3.2665   1.9087 -13.2550   C.3       1 RES1   0.0000
    66 H3A     -3.8282   2.5690 -13.6682   H         1 RES1   0.0000
    67 H4A     -3.1794   2.1017 -12.3178   H         1 RES1   0.0000
    68 H5A     -3.6576   1.0397 -13.3659   H         1 RES1   0.0000
    69 H2A     -1.1080   1.0265 -12.3481   H         1 RES1   0.0000
    70 C2C     -0.3206  -1.4085 -13.3255   C.3       1 RES1   0.0000
    71 O1C     -0.6897  -2.6727 -13.8697   O.3       1 RES1   0.0000
    72 C3C     -0.0197  -3.7833 -13.2550   C.3       1 RES1   0.0000
    73 H3C     -0.3107  -4.5998 -13.6682   H         1 RES1   0.0000
    74 H4C     -0.2304  -3.8043 -12.3178   H         1 RES1   0.0000
    75 H5C      0.9284  -3.6874 -13.3659   H         1 RES1   0.0000
    76 H1C      1.7197  -1.6002 -13.3356   H         1 RES1   0.0000
    77 H2C     -0.3350  -1.4729 -12.3481   H         1 RES1   0.0000
    78 H1A     -2.2457  -0.6892 -13.3356   H         1 RES1   0.0000
    79 H6A     -2.3427  -0.0066 -15.4787   H         1 RES1   0.0000
    80 H7A     -1.7758  -1.1539 -15.3780   H         1 RES1   0.0000
    81 H6C      1.1770  -2.0255 -15.4787   H         1 RES1   0.0000
    82 H7C      1.8872  -0.9609 -15.3780   H         1 RES1   0.0000
    83 Cl1     -4.5201   0.0604 -16.4462   Cl        2 RES2  -1.0000
    84 O3      -6.5263  -2.2566 -16.7955   O.3       3 RES3   0.0000
    85 H17     -6.4778  -2.4456 -17.4942   H         3 RES3   0.0000
    86 H18     -6.1125  -1.6028 -16.7720   H         3 RES3   0.0000
    87 O4      -9.1122  -2.0754 -17.8805   O.3       4 RES4   0.0000
    88 H19     -9.2380  -2.7186 -17.6252   H         4 RES4   0.0000
    89 H20     -8.4097  -1.7118 -17.5110   H         4 RES4   0.0000
    90 O5      -6.5498   1.9612 -15.1025   O.3       5 RES5   0.0000
    91 H21     -7.3759   2.1660 -15.1596   H         5 RES5   0.0000
    92 H22     -5.9025   1.5044 -15.5392   H         5 RES5   0.0000
    93 O6      -4.8096   4.0563 -16.0229   O.3       6 RES6   0.0000
    94 H23     -4.4769   3.9080 -16.6981   H         6 RES6   0.0000
    95 H24     -5.1833   3.4774 -15.8818   H         6 RES6   0.0000
    96 O7      -2.1850  -3.7767 -17.0844   O.3       7 RES7   0.0000
    97 H25     -1.6007  -4.0196 -17.4371   H         7 RES7   0.0000
    98 H26     -1.9493  -3.0061 -17.2154   H         7 RES7   0.0000
@<TRIPOS>BOND
     1     1     3    1
     2     2     7    1
     3     3    10    1
     4     4     1    1
     5     5     9    1
     6     6     4    1
     7     7     6    1
     8     8     2    1
     9     9    10    1
    10    10    21    1
    11    11     5    1
    12    12     5    1
    13    13     6    1
    14    14     7    1
    15    15     8    1
    16    16     8    1
    17    17     8    1
    18    18     4    1
    19    19     4    1
    20    20     9    1
    21    22     5    1
    22    23    11    1
    23    24    11    1
    24    25    11    1
    25    26    12    1
    26    27    12    1
    27    28    12    1
    28    29     9    1
    29    30     1    1
    30    31     1    1
    31    32    31    1
    32    33    10    1
    33    34    33    1
    34    35    34    1
    35    36    35    1
    36    37    35    1
    37    38    35    1
    38    39    34    1
    39    40    39    1
    40    41    39    1
    41    42    39    1
    42    43    34    1
    43    44    33    1
    44    45    29    1
    45    46    45    1
    46    47    46    1
    47    48    47    1
    48    49    47    1
    49    50    47    1
    50    51    46    1
    51    52    51    1
    52    53    51    1
    53    54    51    1
    54    55    46    1
    55    56    29    1
    56    57    45    1
    57    58    32    1
    58    59     7    1
    59    60     1    1
    60    61     1    1
    61    62    61    1
    62    63     6    1
    63    64    63    1
    64    65    64    1
    65    66    65    1
    66    67    65    1
    67    68    65    1
    68    69    63    1
    69    70    59    1
    70    71    70    1
    71    72    71    1
    72    73    72    1
    73    74    72    1
    74    75    72    1
    75    76    59    1
    76    77    70    1
    77    78    62    1
    78    79    61    1
    79    80    61    1
    80    81    60    1
    81    82    60    1
    82    29    30    1
    83    32    33    1
    84    32    45    1
    85    59    60    1
    86    62    63    1
    87    62    70    1
    88    84    85    1
    89    86    84    1
    90    87    88    1
    91    89    87    1
    92    90    91    1
    93    92    90    1
    94    93    94    1
    95    95    93    1
    96    96    97    1
    97    98    96    1
@<TRIPOS>SUBSTRUCTURE
     1 RES1        1 GROUP             0 ****  ****    0  
     2 RES2       83 GROUP             0 ****  ****    0  
     3 RES3       84 GROUP             0 ****  ****    0  
     4 RES4       87 GROUP             0 ****  ****    0  
     5 RES5       90 GROUP             0 ****  ****    0  
     6 RES6       93 GROUP             0 ****  ****    0  
     7 RES7       96 GROUP             0 ****  ****    0  
@<TRIPOS>CRYSIN
   15.1580   15.1580   33.5910   90.0000   90.0000  120.0000   236     1
