@<TRIPOS>MOLECULE
NITQAJ
    95   104     1     0     0
SMALL
NO_CHARGES
****
Generated from the CSD

@<TRIPOS>ATOM
     1 C1      -1.5173   2.7286   4.1932   C.2       1 RES1   0.0000
     2 C2      -0.6795   3.7126   3.5490   C.2       1 RES1   0.0000
     3 C3       0.4441   3.0658   3.1195   C.2       1 RES1   0.0000
     4 C4       0.2504   1.6594   3.4137   C.2       1 RES1   0.0000
     5 C5       1.1971   0.6863   3.0629   C.2       1 RES1   0.0000
     6 H1       2.0168   1.0585   2.7595   H         1 RES1   0.0000
     7 C6      -1.0081   5.1350   3.1643   C.3       1 RES1   0.0000
     8 C7       1.6634   3.6663   2.4753   C.3       1 RES1   0.0000
     9 H2       2.4684   3.2525   2.8774   H         1 RES1   0.0000
    10 H3       1.6877   4.6337   2.6846   H         1 RES1   0.0000
    11 C8       1.7322   3.4953   0.9695   C.3       1 RES1   0.0000
    12 H4       1.6709   2.5434   0.7456   H         1 RES1   0.0000
    13 H5       2.5820   3.8550   0.6387   H         1 RES1   0.0000
    14 H6       0.9894   3.9794   0.5519   H         1 RES1   0.0000
    15 C9       0.0611   0.0000   6.5488   C.ar      1 RES1   0.0000
    16 H7       0.6094   0.0000   5.7730   H         1 RES1   0.0000
    17 C10      0.6686   0.0000   7.7878   C.ar      1 RES1   0.0000
    18 H8       1.6159   0.0000   7.8554   H         1 RES1   0.0000
    19 C11     -0.1100   0.0000   8.9327   C.ar      1 RES1   0.0000
    20 H9       0.2834   0.0000   9.7971   H         1 RES1   0.0000
    21 C12     -1.4771   0.0000   8.7701   C.ar      1 RES1   0.0000
    22 H10     -2.0455   0.0000   9.5312   H         1 RES1   0.0000
    23 C13     -2.0207   0.0000   7.5055   C.ar      1 RES1   0.0000
    24 H11     -2.9679   0.0000   7.4196   H         1 RES1   0.0000
    25 F1      -2.3147   5.3840   3.2443   F         1 RES1   0.0000
    26 F2      -0.6778   5.3444   1.8676   F         1 RES1   0.0000
    27 F3      -0.3553   6.0437   3.8561   F         1 RES1   0.0000
    28 Fe1     -2.1167   0.0000   4.5687   Fe        1 RES1   0.0000
    29 N1      -0.9581   1.4819   4.0250   N.2       1 RES1   0.0000
    30 N2      -1.2813   0.0000   6.3934   N.ar      1 RES1   0.0000
    31 C1B     -2.7161   2.7286   4.9442   C.2       1 RES1   0.0000
    32 C1D     -2.7161  -2.7286   4.9442   C.2       1 RES1   0.0000
    33 C1F     -1.5173  -2.7286   4.1932   C.2       1 RES1   0.0000
    34 C2B     -3.5538   3.7126   5.5884   C.2       1 RES1   0.0000
    35 C2D     -3.5538  -3.7126   5.5884   C.2       1 RES1   0.0000
    36 C2F     -0.6795  -3.7126   3.5490   C.2       1 RES1   0.0000
    37 C3B     -4.6774   3.0658   6.0179   C.2       1 RES1   0.0000
    38 C3D     -4.6774  -3.0658   6.0179   C.2       1 RES1   0.0000
    39 C3F      0.4441  -3.0658   3.1195   C.2       1 RES1   0.0000
    40 C4B     -4.4837   1.6594   5.7237   C.2       1 RES1   0.0000
    41 C4D     -4.4837  -1.6594   5.7237   C.2       1 RES1   0.0000
    42 C4F      0.2504  -1.6594   3.4137   C.2       1 RES1   0.0000
    43 C5B     -5.4304   0.6863   6.0745   C.2       1 RES1   0.0000
    44 C5D     -5.4304  -0.6863   6.0745   C.2       1 RES1   0.0000
    45 C5F      1.1971  -0.6863   3.0629   C.2       1 RES1   0.0000
    46 H1F      2.0168  -1.0585   2.7595   H         1 RES1   0.0000
    47 H1D     -6.2501  -1.0585   6.3779   H         1 RES1   0.0000
    48 H1B     -6.2501   1.0585   6.3779   H         1 RES1   0.0000
    49 C6F     -1.0081  -5.1350   3.1643   C.3       1 RES1   0.0000
    50 C6D     -3.2252  -5.1350   5.9731   C.3       1 RES1   0.0000
    51 C6B     -3.2252   5.1350   5.9731   C.3       1 RES1   0.0000
    52 C7F      1.6634  -3.6663   2.4753   C.3       1 RES1   0.0000
    53 C7D     -5.8967  -3.6663   6.6621   C.3       1 RES1   0.0000
    54 C7B     -5.8967   3.6663   6.6621   C.3       1 RES1   0.0000
    55 H2F      2.4684  -3.2525   2.8774   H         1 RES1   0.0000
    56 H2D     -6.7017  -3.2525   6.2600   H         1 RES1   0.0000
    57 H2B     -6.7017   3.2525   6.2600   H         1 RES1   0.0000
    58 H3F      1.6877  -4.6337   2.6846   H         1 RES1   0.0000
    59 H3D     -5.9211  -4.6337   6.4528   H         1 RES1   0.0000
    60 H3B     -5.9211   4.6337   6.4528   H         1 RES1   0.0000
    61 C8F      1.7322  -3.4953   0.9695   C.3       1 RES1   0.0000
    62 C8D     -5.9655  -3.4953   8.1679   C.3       1 RES1   0.0000
    63 C8B     -5.9655   3.4953   8.1679   C.3       1 RES1   0.0000
    64 H4F      1.6709  -2.5434   0.7456   H         1 RES1   0.0000
    65 H4D     -5.9042  -2.5434   8.3918   H         1 RES1   0.0000
    66 H4B     -5.9042   2.5434   8.3918   H         1 RES1   0.0000
    67 H5F      2.5820  -3.8550   0.6387   H         1 RES1   0.0000
    68 H5D     -6.8153  -3.8550   8.4987   H         1 RES1   0.0000
    69 H5B     -6.8153   3.8550   8.4987   H         1 RES1   0.0000
    70 H6F      0.9894  -3.9794   0.5519   H         1 RES1   0.0000
    71 H6D     -5.2227  -3.9794   8.5855   H         1 RES1   0.0000
    72 H6B     -5.2227   3.9794   8.5855   H         1 RES1   0.0000
    73 C9D     -4.2944   0.0000   2.5886   C.ar      1 RES1   0.0000
    74 H7D     -4.8427   0.0000   3.3644   H         1 RES1   0.0000
    75 C10D    -4.9019   0.0000   1.3496   C.ar      1 RES1   0.0000
    76 H8D     -5.8492   0.0000   1.2820   H         1 RES1   0.0000
    77 C11D    -4.1233   0.0000   0.2047   C.ar      1 RES1   0.0000
    78 H9D     -4.5167  -0.0000  -0.6597   H         1 RES1   0.0000
    79 C12D    -2.7562   0.0000   0.3673   C.ar      1 RES1   0.0000
    80 H10D    -2.1878  -0.0000  -0.3938   H         1 RES1   0.0000
    81 C13D    -2.2126   0.0000   1.6319   C.ar      1 RES1   0.0000
    82 H11D    -1.2654   0.0000   1.7178   H         1 RES1   0.0000
    83 F1F     -2.3147  -5.3840   3.2443   F         1 RES1   0.0000
    84 F1D     -1.9186  -5.3840   5.8931   F         1 RES1   0.0000
    85 F1B     -1.9186   5.3840   5.8931   F         1 RES1   0.0000
    86 F2F     -0.6778  -5.3444   1.8676   F         1 RES1   0.0000
    87 F2D     -3.5555  -5.3444   7.2698   F         1 RES1   0.0000
    88 F2B     -3.5555   5.3444   7.2698   F         1 RES1   0.0000
    89 F3F     -0.3553  -6.0437   3.8561   F         1 RES1   0.0000
    90 F3D     -3.8780  -6.0437   5.2813   F         1 RES1   0.0000
    91 F3B     -3.8780   6.0437   5.2813   F         1 RES1   0.0000
    92 N1F     -0.9581  -1.4819   4.0250   N.2       1 RES1   0.0000
    93 N1D     -3.2752  -1.4819   5.1124   N.2       1 RES1   0.0000
    94 N1B     -3.2752   1.4819   5.1124   N.2       1 RES1   0.0000
    95 N2D     -2.9520   0.0000   2.7440   N.ar      1 RES1   0.0000
@<TRIPOS>BOND
     1     1     2    1
     2     2     3    2
     3     3     4    1
     4     4     5    2
     5     5     6    1
     6     7     2    1
     7     8     3    1
     8     9     8    1
     9    10     8    1
    10    11     8    1
    11    12    11    1
    12    13    11    1
    13    14    11    1
    14    15    16    1
    15    17    15   ar
    16    18    17    1
    17    19    17   ar
    18    20    19    1
    19    21    19   ar
    20    22    21    1
    21    23    21   ar
    22    24    23    1
    23    25     7    1
    24    26     7    1
    25    27     7    1
    26    28    29    1
    27    29     1    2
    28    30    15   ar
    29    31     1    1
    30    32    33    2
    31    33    36    1
    32    34    31    2
    33    35    32    1
    34    36    39    2
    35    37    34    1
    36    38    35    2
    37    39    42    1
    38    40    37    2
    39    41    38    1
    40    42    45    2
    41    43    40    1
    42    44    41    1
    43    45     5    1
    44    46    45    1
    45    47    44    1
    46    48    43    1
    47    49    36    1
    48    50    35    1
    49    51    34    1
    50    52    39    1
    51    53    38    1
    52    54    37    1
    53    55    52    1
    54    56    53    1
    55    57    54    1
    56    58    52    1
    57    59    53    1
    58    60    54    1
    59    61    52    1
    60    62    53    1
    61    63    54    1
    62    64    61    1
    63    65    62    1
    64    66    63    1
    65    67    61    1
    66    68    62    1
    67    69    63    1
    68    70    61    1
    69    71    62    1
    70    72    63    1
    71    73    74    1
    72    75    73   ar
    73    76    75    1
    74    77    75   ar
    75    78    77    1
    76    79    77   ar
    77    80    79    1
    78    81    79   ar
    79    82    81    1
    80    83    49    1
    81    84    50    1
    82    85    51    1
    83    86    49    1
    84    87    50    1
    85    88    51    1
    86    89    49    1
    87    90    50    1
    88    91    51    1
    89    92    28    1
    90    93    28    1
    91    94    28    1
    92    95    28    1
    93     4    29    1
    94    23    30   ar
    95    28    30    1
    96    31    94    1
    97    32    93    1
    98    33    92    1
    99    40    94    1
   100    41    93    2
   101    42    92    1
   102    43    44    2
   103    73    95   ar
   104    81    95   ar
@<TRIPOS>SUBSTRUCTURE
     1 RES1        1 GROUP             0 ****  ****    0  
@<TRIPOS>CRYSIN
   14.1005   14.8043   10.0704   90.0000  114.8580   90.0000    12     1
