@<TRIPOS>MOLECULE
NIWLUE
    77    84     2     0     0
SMALL
NO_CHARGES
****
Generated from the CSD

@<TRIPOS>ATOM
     1 Fe1      0.5584   4.9174   3.5982   Fe        1 RES1   0.0000
     2 S1       1.9394   5.3277   1.7882   S.3       1 RES1   0.0000
     3 S2       2.0779   6.0780   4.9492   S.3       1 RES1   0.0000
     4 S3      -0.7093   4.5340   5.5323   S.3       1 RES1   0.0000
     5 S4       1.5434   1.7367   1.0819   S.3       1 RES1   0.0000
     6 H1       1.5566   2.7993   1.3538   H         1 RES1   0.0000
     7 P1      -0.2990   6.9610   3.3315   P.3       1 RES1   0.0000
     8 P2       1.6313   2.9949   4.2642   P.3       1 RES1   0.0000
     9 N1      -0.5529   4.2154   2.5987   N.2       1 RES1   0.0000
    10 O1      -1.3322   3.8034   1.8577   O.2       1 RES1   0.0000
    11 C1       0.4716   7.6801   1.8645   C.ar      1 RES1   0.0000
    12 C2       0.1691   8.9753   1.4204   C.ar      1 RES1   0.0000
    13 H2      -0.5126   9.4772   1.8519   H         1 RES1   0.0000
    14 C3       0.8601   9.5229   0.3551   C.ar      1 RES1   0.0000
    15 H3       0.6593  10.4020   0.0566   H         1 RES1   0.0000
    16 C4       1.8514   8.7776  -0.2772   C.ar      1 RES1   0.0000
    17 H4       2.3290   9.1574  -1.0055   H         1 RES1   0.0000
    18 C5       2.1495   7.4985   0.1384   C.ar      1 RES1   0.0000
    19 H5       2.8177   6.9976  -0.3152   H         1 RES1   0.0000
    20 C6       1.4692   6.9292   1.2313   C.ar      1 RES1   0.0000
    21 C7       0.1715   8.0278   4.6986   C.ar      1 RES1   0.0000
    22 C8      -0.4447   9.2428   5.0161   C.ar      1 RES1   0.0000
    23 H6      -1.2502   9.4989   4.5820   H         1 RES1   0.0000
    24 C9       0.1288  10.0719   5.9695   C.ar      1 RES1   0.0000
    25 H7      -0.2980  10.8835   6.2180   H         1 RES1   0.0000
    26 C10      1.3339   9.7060   6.5577   C.ar      1 RES1   0.0000
    27 H8       1.7463  10.2940   7.1792   H         1 RES1   0.0000
    28 C11      1.9450   8.4981   6.2555   C.ar      1 RES1   0.0000
    29 H9       2.7651   8.2618   6.6733   H         1 RES1   0.0000
    30 C12      1.3514   7.6263   5.3329   C.ar      1 RES1   0.0000
    31 C13     -2.0935   7.0897   3.1564   C.ar      1 RES1   0.0000
    32 C14     -2.6955   7.0440   1.8968   C.ar      1 RES1   0.0000
    33 H10     -2.1622   6.9832   1.1133   H         1 RES1   0.0000
    34 C15     -4.0839   7.0890   1.7978   C.ar      1 RES1   0.0000
    35 H11     -4.4974   7.0592   0.9429   H         1 RES1   0.0000
    36 C16     -4.8660   7.1753   2.9361   C.ar      1 RES1   0.0000
    37 H12     -5.8115   7.2209   2.8598   H         1 RES1   0.0000
    38 C17     -4.2687   7.1962   4.1906   C.ar      1 RES1   0.0000
    39 H13     -4.8080   7.2428   4.9716   H         1 RES1   0.0000
    40 C18     -2.8883   7.1494   4.3043   C.ar      1 RES1   0.0000
    41 H14     -2.4816   7.1589   5.1630   H         1 RES1   0.0000
    42 C19      1.5363   3.0203   6.0729   C.ar      1 RES1   0.0000
    43 C20      2.4668   2.4106   6.9109   C.ar      1 RES1   0.0000
    44 H15      3.2265   1.9735   6.5434   H         1 RES1   0.0000
    45 C21      2.2786   2.4443   8.2916   C.ar      1 RES1   0.0000
    46 H16      2.9142   2.0407   8.8709   H         1 RES1   0.0000
    47 C22      1.1610   3.0664   8.8123   C.ar      1 RES1   0.0000
    48 H17      1.0222   3.0660   9.7521   H         1 RES1   0.0000
    49 C23      0.2370   3.6929   7.9872   C.ar      1 RES1   0.0000
    50 H18     -0.5230   4.1215   8.3644   H         1 RES1   0.0000
    51 C24      0.4229   3.6946   6.6002   C.ar      1 RES1   0.0000
    52 C25      0.6680   1.5197   3.7661   C.ar      1 RES1   0.0000
    53 C26     -0.1222   0.8639   4.7280   C.ar      1 RES1   0.0000
    54 H19     -0.1052   1.1662   5.6285   H         1 RES1   0.0000
    55 C27     -0.9243  -0.2146   4.3887   C.ar      1 RES1   0.0000
    56 H20     -1.4442  -0.6481   5.0552   H         1 RES1   0.0000
    57 C28     -0.9688  -0.6600   3.0760   C.ar      1 RES1   0.0000
    58 H21     -1.5148  -1.4014   2.8411   H         1 RES1   0.0000
    59 C29     -0.2126  -0.0212   2.1126   C.ar      1 RES1   0.0000
    60 H22     -0.2496  -0.3276   1.2142   H         1 RES1   0.0000
    61 C30      0.6025   1.0661   2.4299   C.ar      1 RES1   0.0000
    62 C31      3.3755   2.6178   3.8996   C.ar      1 RES1   0.0000
    63 C32      3.8241   1.2966   3.7932   C.ar      1 RES1   0.0000
    64 H23      3.2014   0.5795   3.7896   H         1 RES1   0.0000
    65 C33      5.1899   1.0403   3.6920   C.ar      1 RES1   0.0000
    66 H24      5.4983   0.1441   3.6262   H         1 RES1   0.0000
    67 C34      6.0999   2.0811   3.6870   C.ar      1 RES1   0.0000
    68 H25      7.0299   1.8969   3.6305   H         1 RES1   0.0000
    69 C35      5.6589   3.3913   3.7639   C.ar      1 RES1   0.0000
    70 H26      6.2854   4.1047   3.7494   H         1 RES1   0.0000
    71 C36      4.2970   3.6618   3.8627   C.ar      1 RES1   0.0000
    72 H27      3.9955   4.5613   3.9049   H         1 RES1   0.0000
    73 C37      7.2625   0.7273   8.4646   C.3       2 RES2   0.0000
    74 H28      7.3692   1.5759   8.9629   H         2 RES2   0.0000
    75 H29      6.6571   0.1457   8.9889   H         2 RES2   0.0000
    76 Cl1      6.5091   1.0744   6.9210   Cl        2 RES2   0.0000
    77 Cl2      8.7812  -0.0309   8.3471   Cl        2 RES2   0.0000
@<TRIPOS>BOND
     1     1     2    1
     2     2    20    1
     3     3     1    1
     4     4     1    1
     5     5     6    1
     6     7     1    1
     7     8     1    1
     8     9     1    1
     9    10     9    2
    10    11     7    1
    11    12    11   ar
    12    13    12    1
    13    14    12   ar
    14    15    14    1
    15    16    14   ar
    16    17    16    1
    17    18    16   ar
    18    19    18    1
    19    20    11   ar
    20    21     7    1
    21    22    21   ar
    22    23    22    1
    23    24    22   ar
    24    25    24    1
    25    26    24   ar
    26    27    26    1
    27    28    26   ar
    28    29    28    1
    29    30     3    1
    30    31     7    1
    31    32    31   ar
    32    33    32    1
    33    34    32   ar
    34    35    34    1
    35    36    34   ar
    36    37    36    1
    37    38    36   ar
    38    39    38    1
    39    40    31   ar
    40    41    40    1
    41    42     8    1
    42    43    42   ar
    43    44    43    1
    44    45    43   ar
    45    46    45    1
    46    47    45   ar
    47    48    47    1
    48    49    47   ar
    49    50    49    1
    50    51     4    1
    51    52     8    1
    52    53    52   ar
    53    54    53    1
    54    55    53   ar
    55    56    55    1
    56    57    55   ar
    57    58    57    1
    58    59    57   ar
    59    60    59    1
    60    61     5    1
    61    62     8    1
    62    63    62   ar
    63    64    63    1
    64    65    63   ar
    65    66    65    1
    66    67    65   ar
    67    68    67    1
    68    69    67   ar
    69    70    69    1
    70    71    62   ar
    71    72    71    1
    72    18    20   ar
    73    21    30   ar
    74    28    30   ar
    75    38    40   ar
    76    42    51   ar
    77    49    51   ar
    78    52    61   ar
    79    59    61   ar
    80    69    71   ar
    81    73    74    1
    82    75    73    1
    83    76    73    1
    84    77    73    1
@<TRIPOS>SUBSTRUCTURE
     1 RES1        1 GROUP             0 ****  ****    0  
     2 RES2       73 GROUP             0 ****  ****    0  
@<TRIPOS>CRYSIN
    9.7606   11.5861   16.8781  100.4053   93.4637  102.6943     2     1
