@<TRIPOS>MOLECULE
NOCBOA
    91   101     4     0     0
SMALL
USER_CHARGES
****
Generated from the CSD

@<TRIPOS>ATOM
     1 Fe1     21.0664   9.1983  10.8379   Fe        1 RES1   2.0000
     2 N1      20.9416   7.7669  12.4643   N.ar      1 RES1   0.0000
     3 C1      21.7143   6.6684  12.4669   C.ar      1 RES1   0.0000
     4 C2      21.6346   5.7281  13.4906   C.ar      1 RES1   0.0000
     5 H1      22.1687   4.9435  13.4703   H         1 RES1   0.0000
     6 C3      20.7621   5.9585  14.5389   C.ar      1 RES1   0.0000
     7 H2      20.7105   5.3370  15.2554   H         1 RES1   0.0000
     8 C4      19.9652   7.0894  14.5493   C.ar      1 RES1   0.0000
     9 H3      19.3686   7.2618  15.2682   H         1 RES1   0.0000
    10 C5      20.0635   7.9675  13.4712   C.ar      1 RES1   0.0000
    11 C6      22.6272   6.6161  11.3203   C.2       1 RES1   0.0000
    12 N2      22.5972   7.6810  10.4338   N.2       1 RES1   0.0000
    13 C7      23.5010   7.3958   9.4994   C.2       1 RES1   0.0000
    14 C8      23.8941   8.0895   8.3527   C.2       1 RES1   0.0000
    15 H4      23.4914   8.9218   8.1343   H         1 RES1   0.0000
    16 C9      24.8524   7.5652   7.5542   C.2       1 RES1   0.0000
    17 H5      25.1340   8.0376   6.7786   H         1 RES1   0.0000
    18 C10     25.4425   6.3072   7.8739   C.2       1 RES1   0.0000
    19 H6      26.1144   5.9500   7.3055   H         1 RES1   0.0000
    20 C11     25.0643   5.6222   8.9584   C.2       1 RES1   0.0000
    21 H7      25.4652   4.7861   9.1673   H         1 RES1   0.0000
    22 N3      24.0830   6.1565   9.7660   N.pl3     1 RES1   0.0000
    23 C12     23.5237   5.6733  10.9476   C.2       1 RES1   0.0000
    24 H8      23.7273   4.8603  11.3933   H         1 RES1   0.0000
    25 C13     19.2616   9.1569  13.2939   C.2       1 RES1   0.0000
    26 N4      19.5004   9.9540  12.1835   N.2       1 RES1   0.0000
    27 C14     18.6337  10.9691  12.2935   C.2       1 RES1   0.0000
    28 C15     18.4143  12.0938  11.4626   C.2       1 RES1   0.0000
    29 H9      18.9373  12.2262  10.6814   H         1 RES1   0.0000
    30 C16     17.4434  12.9769  11.7978   C.2       1 RES1   0.0000
    31 H10     17.2875  13.7310  11.2416   H         1 RES1   0.0000
    32 C17     16.6566  12.7975  12.9717   C.2       1 RES1   0.0000
    33 H11     15.9816  13.4304  13.1919   H         1 RES1   0.0000
    34 C18     16.8633  11.7363  13.7663   C.2       1 RES1   0.0000
    35 H12     16.3486  11.6173  14.5560   H         1 RES1   0.0000
    36 N5      17.8373  10.8209  13.4195   N.pl3     1 RES1   0.0000
    37 C19     18.2377   9.6551  14.0549   C.2       1 RES1   0.0000
    38 H13     17.8796   9.2815  14.8515   H         1 RES1   0.0000
    39 N6      21.0518  10.5855   9.1667   N.ar      1 RES1   0.0000
    40 C20     20.2564  10.3439   8.1094   C.ar      1 RES1   0.0000
    41 C21     20.2350  11.1896   7.0132   C.ar      1 RES1   0.0000
    42 H14     19.6842  10.9991   6.2635   H         1 RES1   0.0000
    43 C22     21.0344  12.3155   7.0339   C.ar      1 RES1   0.0000
    44 H15     21.0402  12.9061   6.2902   H         1 RES1   0.0000
    45 C23     21.8313  12.5858   8.1366   C.ar      1 RES1   0.0000
    46 H16     22.3606  13.3730   8.1739   H         1 RES1   0.0000
    47 C24     21.8318  11.6753   9.1862   C.ar      1 RES1   0.0000
    48 C25     19.4558   9.1295   8.2621   C.2       1 RES1   0.0000
    49 N7      19.6434   8.3573   9.3945   N.2       1 RES1   0.0000
    50 C26     18.8183   7.3248   9.2664   C.2       1 RES1   0.0000
    51 C27     18.5983   6.2126  10.1154   C.2       1 RES1   0.0000
    52 H17     19.0704   6.1160  10.9329   H         1 RES1   0.0000
    53 C28     17.6829   5.2884   9.7168   C.2       1 RES1   0.0000
    54 H18     17.5195   4.5351  10.2719   H         1 RES1   0.0000
    55 C29     16.9718   5.4105   8.5080   C.2       1 RES1   0.0000
    56 H19     16.3368   4.7468   8.2632   H         1 RES1   0.0000
    57 C30     17.1861   6.4754   7.6901   C.2       1 RES1   0.0000
    58 H20     16.7150   6.5615   6.8698   H         1 RES1   0.0000
    59 N8      18.1066   7.4257   8.0770   N.pl3     1 RES1   0.0000
    60 C31     18.5151   8.5815   7.4481   C.2       1 RES1   0.0000
    61 H21     18.2021   8.9244   6.6190   H         1 RES1   0.0000
    62 C32     22.6436  11.7750  10.3923   C.2       1 RES1   0.0000
    63 N9      22.5752  10.7275  11.3177   N.2       1 RES1   0.0000
    64 C33     23.4092  11.0663  12.3000   C.2       1 RES1   0.0000
    65 C34     23.7605  10.3900  13.4829   C.2       1 RES1   0.0000
    66 H22     23.4194   9.5223  13.6658   H         1 RES1   0.0000
    67 C35     24.6053  11.0152  14.3655   C.2       1 RES1   0.0000
    68 H23     24.8441  10.5820  15.1758   H         1 RES1   0.0000
    69 C36     25.1273  12.3055  14.0769   C.2       1 RES1   0.0000
    70 H24     25.6855  12.7361  14.7142   H         1 RES1   0.0000
    71 C37     24.8424  12.9333  12.9083   C.2       1 RES1   0.0000
    72 H25     25.2196  13.7815  12.7054   H         1 RES1   0.0000
    73 N10     23.9943  12.3093  12.0256   N.pl3     1 RES1   0.0000
    74 C38     23.5058  12.7340  10.8194   C.2       1 RES1   0.0000
    75 H26     23.7263  13.5414  10.3686   H         1 RES1   0.0000
    76 B1      23.3091   9.6065   4.5219   B         2 RES2  -1.0000
    77 F1      22.7064   9.3462   5.6880   F         2 RES2   0.0000
    78 F2      24.6789   9.3587   4.5297   F         2 RES2   0.0000
    79 F3      23.2236  11.0326   4.3355   F         2 RES2   0.0000
    80 F4      22.7165   9.0847   3.4218   F         2 RES2   0.0000
    81 B2      21.3118   2.9219  10.8557   B         3 RES3  -1.0000
    82 F5      22.1226   3.1362   9.7388   F         3 RES3   0.0000
    83 F6      22.1102   2.7276  11.9790   F         3 RES3   0.0000
    84 F7      20.5248   1.8035  10.6331   F         3 RES3   0.0000
    85 F8      20.4811   4.0030  11.0757   F         3 RES3   0.0000
    86 C39     14.4651   9.3001  12.2663   C.3       4 RES4   0.0000
    87 H27     14.5875   9.3864  13.2351   H         4 RES4   0.0000
    88 H28     13.8832   8.5335  12.0786   H         4 RES4   0.0000
    89 H29     14.0522  10.1165  11.9154   H         4 RES4   0.0000
    90 O1      15.7109   9.1034  11.6529   O.3       4 RES4   0.0000
    91 H30     15.6314   8.5421  11.0330   H         4 RES4   0.0000
@<TRIPOS>BOND
     1     1     2    1
     2     2     3   ar
     3     3     4   ar
     4     4     5    1
     5     6     4   ar
     6     7     6    1
     7     8     6   ar
     8     9     8    1
     9    10     2   ar
    10    11     3    1
    11    12     1    1
    12    13    12    2
    13    14    13    1
    14    15    14    1
    15    16    14    2
    16    17    16    1
    17    18    16    1
    18    19    18    1
    19    20    18    2
    20    21    20    1
    21    22    13    1
    22    23    11    2
    23    24    23    1
    24    25    10    1
    25    26     1    1
    26    27    26    2
    27    28    27    1
    28    29    28    1
    29    30    28    2
    30    31    30    1
    31    32    30    1
    32    33    32    1
    33    34    32    2
    34    35    34    1
    35    36    27    1
    36    37    25    2
    37    38    37    1
    38    39     1    1
    39    40    39   ar
    40    41    40   ar
    41    42    41    1
    42    43    41   ar
    43    44    43    1
    44    45    43   ar
    45    46    45    1
    46    47    39   ar
    47    48    40    1
    48    49     1    1
    49    50    49    2
    50    51    50    1
    51    52    51    1
    52    53    51    2
    53    54    53    1
    54    55    53    1
    55    56    55    1
    56    57    55    2
    57    58    57    1
    58    59    50    1
    59    60    48    2
    60    61    60    1
    61    62    47    1
    62    63     1    1
    63    64    63    2
    64    65    64    1
    65    66    65    1
    66    67    65    2
    67    68    67    1
    68    69    67    1
    69    70    69    1
    70    71    69    2
    71    72    71    1
    72    73    64    1
    73    74    62    2
    74    75    74    1
    75     8    10   ar
    76    11    12    1
    77    20    22    1
    78    22    23    1
    79    25    26    1
    80    34    36    1
    81    36    37    1
    82    45    47   ar
    83    48    49    1
    84    57    59    1
    85    59    60    1
    86    62    63    1
    87    71    73    1
    88    73    74    1
    89    76    77    1
    90    78    76    1
    91    79    76    1
    92    80    76    1
    93    81    82    1
    94    83    81    1
    95    84    81    1
    96    85    81    1
    97    86    87    1
    98    88    86    1
    99    89    86    1
   100    90    86    1
   101    91    90    1
@<TRIPOS>SUBSTRUCTURE
     1 RES1        1 GROUP             0 ****  ****    0  
     2 RES2       76 GROUP             0 ****  ****    0  
     3 RES3       81 GROUP             0 ****  ****    0  
     4 RES4       86 GROUP             0 ****  ****    0  
@<TRIPOS>CRYSIN
   25.2181   12.4550   12.9419   90.0000   90.0000   90.0000    33     1
