@<TRIPOS>MOLECULE
NOCCAN
    91   101     4     0     0
SMALL
USER_CHARGES
****
Generated from the CSD

@<TRIPOS>ATOM
     1 Fe1      4.2979   2.4983   9.3971   Fe        1 RES1   2.0000
     2 N1       4.2127   3.7390   7.6433   N.ar      1 RES1   0.0000
     3 C1       3.8714   3.2073   6.4730   C.ar      1 RES1   0.0000
     4 C2       4.0311   3.8908   5.2729   C.ar      1 RES1   0.0000
     5 H1       3.7701   3.5004   4.4473   H         1 RES1   0.0000
     6 C3       4.5852   5.1630   5.3212   C.ar      1 RES1   0.0000
     7 H2       4.7120   5.6552   4.5186   H         1 RES1   0.0000
     8 C4       4.9537   5.7139   6.5313   C.ar      1 RES1   0.0000
     9 H3       5.3341   6.5839   6.5708   H         1 RES1   0.0000
    10 C5       4.7574   4.9723   7.6953   C.ar      1 RES1   0.0000
    11 C6       3.3285   1.8501   6.5978   C.2       1 RES1   0.0000
    12 N2       3.2553   1.2929   7.8695   N.2       1 RES1   0.0000
    13 C7       2.6849   0.1039   7.6940   C.2       1 RES1   0.0000
    14 N3       2.3733  -0.7986   8.6458   N.2       1 RES1   0.0000
    15 C8       1.7709  -1.8933   8.2202   C.2       1 RES1   0.0000
    16 H4       1.5367  -2.5513   8.8647   H         1 RES1   0.0000
    17 C9       1.4515  -2.1485   6.8655   C.2       1 RES1   0.0000
    18 H5       1.0063  -2.9525   6.6245   H         1 RES1   0.0000
    19 C10      1.7824  -1.2487   5.9176   C.2       1 RES1   0.0000
    20 H6       1.5866  -1.3992   5.0006   H         1 RES1   0.0000
    21 N4       2.4145  -0.1046   6.3411   N.pl3     1 RES1   0.0000
    22 C11      2.8291   1.0086   5.6516   C.2       1 RES1   0.0000
    23 H7       2.7782   1.1592   4.7150   H         1 RES1   0.0000
    24 C12      5.1213   5.3878   9.0418   C.2       1 RES1   0.0000
    25 N5       5.0728   4.4373  10.0436   N.2       1 RES1   0.0000
    26 C13      5.4608   5.0580  11.1445   C.2       1 RES1   0.0000
    27 N6       5.5775   4.5414  12.3878   N.2       1 RES1   0.0000
    28 C14      5.9668   5.3769  13.3264   C.2       1 RES1   0.0000
    29 H8       6.0743   5.0370  14.2069   H         1 RES1   0.0000
    30 C15      6.2346   6.7502  13.1093   C.2       1 RES1   0.0000
    31 H9       6.4881   7.3112  13.8326   H         1 RES1   0.0000
    32 C16      6.1248   7.2512  11.8593   C.2       1 RES1   0.0000
    33 H10      6.3119   8.1651  11.6774   H         1 RES1   0.0000
    34 N7       5.7364   6.4021  10.8717   N.pl3     1 RES1   0.0000
    35 C17      5.5319   6.5955   9.5206   C.2       1 RES1   0.0000
    36 H11      5.6518   7.3996   9.0291   H         1 RES1   0.0000
    37 N8       4.9278   1.1914  10.9887   N.ar      1 RES1   0.0000
    38 C18      4.1746   1.0859  12.0976   C.ar      1 RES1   0.0000
    39 C19      4.5733   0.2843  13.1668   C.ar      1 RES1   0.0000
    40 H12      4.0286   0.2049  13.9416   H         1 RES1   0.0000
    41 C20      5.7789  -0.3939  13.0759   C.ar      1 RES1   0.0000
    42 H13      6.0692  -0.9472  13.7921   H         1 RES1   0.0000
    43 C21      6.5593  -0.2654  11.9421   C.ar      1 RES1   0.0000
    44 H14      7.3910  -0.7189  11.8715   H         1 RES1   0.0000
    45 C22      6.1005   0.5427  10.9060   C.ar      1 RES1   0.0000
    46 C23      2.9520   1.8888  12.0436   C.2       1 RES1   0.0000
    47 N9       2.6991   2.6021  10.8826   N.2       1 RES1   0.0000
    48 C24      1.5855   3.2845  11.1203   C.2       1 RES1   0.0000
    49 N10      0.9566   4.1393  10.2902   N.2       1 RES1   0.0000
    50 C25     -0.1396   4.7012  10.7615   C.2       1 RES1   0.0000
    51 H15     -0.6059   5.3066  10.1965   H         1 RES1   0.0000
    52 C26     -0.6655   4.4642  12.0478   C.2       1 RES1   0.0000
    53 H16     -1.4574   4.9048  12.3332   H         1 RES1   0.0000
    54 C27     -0.0284   3.6012  12.8684   C.2       1 RES1   0.0000
    55 H17     -0.3632   3.4124  13.7373   H         1 RES1   0.0000
    56 N11      1.1115   3.0084  12.4085   N.pl3     1 RES1   0.0000
    57 C28      1.9917   2.1164  12.9798   C.2       1 RES1   0.0000
    58 H18      1.9392   1.7373  13.8494   H         1 RES1   0.0000
    59 C29      6.8041   0.7948   9.6538   C.2       1 RES1   0.0000
    60 N12      6.2144   1.6400   8.7436   N.2       1 RES1   0.0000
    61 C30      7.0341   1.6954   7.7007   C.2       1 RES1   0.0000
    62 N13      6.8592   2.3728   6.5507   N.2       1 RES1   0.0000
    63 C31      7.7981   2.2321   5.6443   C.2       1 RES1   0.0000
    64 H19      7.6846   2.6823   4.8153   H         1 RES1   0.0000
    65 C32      8.9712   1.4527   5.8193   C.2       1 RES1   0.0000
    66 H20      9.6218   1.3943   5.1303   H         1 RES1   0.0000
    67 C33      9.1417   0.7934   6.9936   C.2       1 RES1   0.0000
    68 H21      9.9203   0.2749   7.1544   H         1 RES1   0.0000
    69 N14      8.1548   0.8991   7.9393   N.pl3     1 RES1   0.0000
    70 C34      8.0016   0.3287   9.1837   C.2       1 RES1   0.0000
    71 H22      8.6016  -0.2629   9.6230   H         1 RES1   0.0000
    72 B1      -1.8803  -1.4041   8.8384   B         2 RES2  -1.0000
    73 F1      -2.0093  -0.0766   9.2605   F         2 RES2   0.0000
    74 F2      -0.9374  -2.0497   9.6283   F         2 RES2   0.0000
    75 F3      -1.4978  -1.4056   7.5077   F         2 RES2   0.0000
    76 F4      -3.1151  -2.0351   8.9425   F         2 RES2   0.0000
    77 B2      -4.1097   5.8867  10.2428   B         3 RES3  -1.0000
    78 F5      -4.0122   5.8143  11.6100   F         3 RES3   0.0000
    79 F6      -2.8572   5.7085   9.6933   F         3 RES3   0.0000
    80 F7      -4.9489   4.8907   9.7644   F         3 RES3   0.0000
    81 F8      -4.6024   7.1238   9.8758   F         3 RES3   0.0000
    82 O1       3.7317  -0.9977   3.4411   O.2       4 RES4   0.0000
    83 C35      4.9026  -1.3053   3.5018   C.2       4 RES4   0.0000
    84 C36      5.7048  -1.0949   4.7694   C.3       4 RES4   0.0000
    85 H23      5.1398  -0.6704   5.4472   H         4 RES4   0.0000
    86 H24      6.4742  -0.5185   4.5769   H         4 RES4   0.0000
    87 H25      6.0213  -1.9607   5.1022   H         4 RES4   0.0000
    88 C37      5.6394  -1.8429   2.3237   C.3       4 RES4   0.0000
    89 H26      5.0638  -1.7975   1.5311   H         4 RES4   0.0000
    90 H27      5.8896  -2.7743   2.4928   H         4 RES4   0.0000
    91 H28      6.4464  -1.3088   2.1717   H         4 RES4   0.0000
@<TRIPOS>BOND
     1     1     2    1
     2     2     3   ar
     3     3     4   ar
     4     4     5    1
     5     6     4   ar
     6     7     6    1
     7     8     6   ar
     8     9     8    1
     9    10     2   ar
    10    11     3    1
    11    12     1    1
    12    13    12    2
    13    14    13    1
    14    15    14    2
    15    16    15    1
    16    17    15    1
    17    18    17    1
    18    19    17    2
    19    20    19    1
    20    21    13    1
    21    22    11    2
    22    23    22    1
    23    24    10    1
    24    25     1    1
    25    26    25    2
    26    27    26    1
    27    28    27    2
    28    29    28    1
    29    30    28    1
    30    31    30    1
    31    32    30    2
    32    33    32    1
    33    34    26    1
    34    35    24    2
    35    36    35    1
    36    37     1    1
    37    38    37   ar
    38    39    38   ar
    39    40    39    1
    40    41    39   ar
    41    42    41    1
    42    43    41   ar
    43    44    43    1
    44    45    37   ar
    45    46    38    1
    46    47     1    1
    47    48    47    2
    48    49    48    1
    49    50    49    2
    50    51    50    1
    51    52    50    1
    52    53    52    1
    53    54    52    2
    54    55    54    1
    55    56    48    1
    56    57    46    2
    57    58    57    1
    58    59    45    1
    59    60     1    1
    60    61    60    2
    61    62    61    1
    62    63    62    2
    63    64    63    1
    64    65    63    1
    65    66    65    1
    66    67    65    2
    67    68    67    1
    68    69    61    1
    69    70    59    2
    70    71    70    1
    71     8    10   ar
    72    11    12    1
    73    19    21    1
    74    21    22    1
    75    24    25    1
    76    32    34    1
    77    34    35    1
    78    43    45   ar
    79    46    47    1
    80    54    56    1
    81    56    57    1
    82    59    60    1
    83    67    69    1
    84    69    70    1
    85    72    73    1
    86    74    72    1
    87    75    72    1
    88    76    72    1
    89    77    78    1
    90    79    77    1
    91    80    77    1
    92    81    77    1
    93    82    83    2
    94    83    84    1
    95    84    85    1
    96    86    84    1
    97    87    84    1
    98    88    83    1
    99    89    88    1
   100    90    88    1
   101    91    88    1
@<TRIPOS>SUBSTRUCTURE
     1 RES1        1 GROUP             0 ****  ****    0  
     2 RES2       72 GROUP             0 ****  ****    0  
     3 RES3       77 GROUP             0 ****  ****    0  
     4 RES4       82 GROUP             0 ****  ****    0  
@<TRIPOS>CRYSIN
   13.2776   13.2858   13.6211  102.7830  101.4480  117.9430     2     1
