@<TRIPOS>MOLECULE
NOKFOJ
    89    98     3     0     0
SMALL
USER_CHARGES
****
Generated from the CSD

@<TRIPOS>ATOM
     1 Fe1     13.5892   1.0138   9.5231   Fe        1 RES1   2.0000
     2 N1      13.6504   0.6078   7.3989   N.ar      1 RES1   0.0000
     3 N2      11.8787   2.3207   9.3007   N.ar      1 RES1   0.0000
     4 N3      14.9384   2.5901   8.7003   N.ar      1 RES1   0.0000
     5 N4      11.7988  -0.2793  10.0199   N.ar      1 RES1   0.0000
     6 N5      13.7601   0.9539  11.8262   N.ar      1 RES1   0.0000
     7 N6      15.2674  -0.2891   9.9325   N.ar      1 RES1   0.0000
     8 C1      13.1043  -0.4600   6.8326   C.ar      1 RES1   0.0000
     9 H1      12.4941  -0.9660   7.3176   H         1 RES1   0.0000
    10 C2      13.4203  -0.8444   5.5335   C.ar      1 RES1   0.0000
    11 H2      13.0210  -1.5902   5.1466   H         1 RES1   0.0000
    12 C3      14.3280  -0.1051   4.8387   C.ar      1 RES1   0.0000
    13 H3      14.5879  -0.3691   3.9860   H         1 RES1   0.0000
    14 C4      14.8631   1.0361   5.3987   C.ar      1 RES1   0.0000
    15 H4      15.4599   1.5661   4.9195   H         1 RES1   0.0000
    16 C5      14.4942   1.3734   6.6825   C.ar      1 RES1   0.0000
    17 C6      15.0219   2.5759   7.3773   C.ar      1 RES1   0.0000
    18 C7      15.5555   3.6536   6.6459   C.ar      1 RES1   0.0000
    19 H5      15.6176   3.6043   5.7202   H         1 RES1   0.0000
    20 C8      15.9767   4.7685   7.3042   C.ar      1 RES1   0.0000
    21 H6      16.3080   5.4924   6.8230   H         1 RES1   0.0000
    22 C9      15.9150   4.8320   8.6957   C.ar      1 RES1   0.0000
    23 C10     15.4328   3.6667   9.3809   C.ar      1 RES1   0.0000
    24 C11     15.4980   3.6514  10.8033   C.ar      1 RES1   0.0000
    25 H7      15.2125   2.8957  11.2652   H         1 RES1   0.0000
    26 C12     15.9672   4.7126  11.4942   C.ar      1 RES1   0.0000
    27 H8      16.0164   4.6798  12.4238   H         1 RES1   0.0000
    28 C13     16.3845   5.8823  10.7975   C.ar      1 RES1   0.0000
    29 H9      16.6795   6.6227  11.2767   H         1 RES1   0.0000
    30 C14     16.3577   5.9261   9.4540   C.ar      1 RES1   0.0000
    31 H10     16.6398   6.6982   9.0171   H         1 RES1   0.0000
    32 C15     11.8868   3.5517   8.7592   C.ar      1 RES1   0.0000
    33 H11     12.6908   3.8945   8.4417   H         1 RES1   0.0000
    34 C16     10.7614   4.3162   8.6630   C.ar      1 RES1   0.0000
    35 H12     10.7962   5.1661   8.2877   H         1 RES1   0.0000
    36 C17      9.5652   3.8036   9.1307   C.ar      1 RES1   0.0000
    37 H13      8.7836   4.3019   9.0614   H         1 RES1   0.0000
    38 C18      9.5393   2.5726   9.6889   C.ar      1 RES1   0.0000
    39 H14      8.7442   2.2189  10.0122   H         1 RES1   0.0000
    40 C19     10.7177   1.8476   9.7697   C.ar      1 RES1   0.0000
    41 C20     10.7500   0.4797  10.3779   C.ar      1 RES1   0.0000
    42 C21      9.7837   0.0723  11.2940   C.ar      1 RES1   0.0000
    43 H15      9.0736   0.6330  11.5077   H         1 RES1   0.0000
    44 C22      9.8904  -1.1532  11.8715   C.ar      1 RES1   0.0000
    45 H16      9.2946  -1.4030  12.5412   H         1 RES1   0.0000
    46 C23     10.9029  -2.0491  11.4596   C.ar      1 RES1   0.0000
    47 C24     11.8378  -1.5629  10.5011   C.ar      1 RES1   0.0000
    48 C25     12.8323  -2.4620  10.0295   C.ar      1 RES1   0.0000
    49 H17     13.4606  -2.1740   9.4059   H         1 RES1   0.0000
    50 C26     12.8687  -3.7412  10.4838   C.ar      1 RES1   0.0000
    51 H18     13.5083  -4.3293  10.1527   H         1 RES1   0.0000
    52 C27     11.9574  -4.1837  11.4422   C.ar      1 RES1   0.0000
    53 H19     12.0156  -5.0565  11.7579   H         1 RES1   0.0000
    54 C28     10.9986  -3.3776  11.9157   C.ar      1 RES1   0.0000
    55 H20     10.3958  -3.6952  12.5489   H         1 RES1   0.0000
    56 C29     16.1394  -0.7436   9.0268   C.ar      1 RES1   0.0000
    57 H21     15.9897  -0.5509   8.1299   H         1 RES1   0.0000
    58 C30     17.2497  -1.4851   9.3617   C.ar      1 RES1   0.0000
    59 H22     17.8280  -1.7972   8.7053   H         1 RES1   0.0000
    60 C31     17.4814  -1.7490  10.6685   C.ar      1 RES1   0.0000
    61 H23     18.2403  -2.2233  10.9207   H         1 RES1   0.0000
    62 C32     16.5928  -1.3142  11.6212   C.ar      1 RES1   0.0000
    63 H24     16.7405  -1.5026  12.5201   H         1 RES1   0.0000
    64 C33     15.4756  -0.5936  11.2382   C.ar      1 RES1   0.0000
    65 C34     14.4615  -0.1249  12.1852   C.ar      1 RES1   0.0000
    66 C35     14.2149  -0.8214  13.3862   C.ar      1 RES1   0.0000
    67 H25     14.7461  -1.5464  13.6248   H         1 RES1   0.0000
    68 C36     13.2100  -0.4271  14.1791   C.ar      1 RES1   0.0000
    69 H26     12.9879  -0.9287  14.9317   H         1 RES1   0.0000
    70 C37     12.4931   0.7316  13.8808   C.ar      1 RES1   0.0000
    71 C38     12.8156   1.4391  12.7125   C.ar      1 RES1   0.0000
    72 C39     12.1802   2.6570  12.4469   C.ar      1 RES1   0.0000
    73 H27     12.4349   3.1586  11.7079   H         1 RES1   0.0000
    74 C40     11.1906   3.1137  13.2630   C.ar      1 RES1   0.0000
    75 H28     10.7659   3.9186  13.0744   H         1 RES1   0.0000
    76 C41     10.8150   2.3700  14.3889   C.ar      1 RES1   0.0000
    77 H29     10.1233   2.6778  14.9278   H         1 RES1   0.0000
    78 C42     11.4306   1.2321  14.7027   C.ar      1 RES1   0.0000
    79 H30     11.1693   0.7590  15.4591   H         1 RES1   0.0000
    80 Cl1     18.0780   2.0192  13.7934   Cl        2 RES2   0.0000
    81 O1      18.4439   0.7984  13.1148   O.3       2 RES2  -1.0000
    82 O2      16.7611   1.8947  13.3727   O.2       2 RES2   0.0000
    83 O3      18.4085   1.7282  15.0914   O.2       2 RES2   0.0000
    84 O4      18.9210   2.8902  13.1494   O.2       2 RES2   0.0000
    85 Cl2     10.3696  -3.1994   6.5659   Cl        3 RES3   0.0000
    86 O5       9.4087  -4.1201   6.9250   O.3       3 RES3  -1.0000
    87 O6      11.6695  -3.6623   6.8403   O.2       3 RES3   0.0000
    88 O7      10.2414  -1.9998   7.2734   O.2       3 RES3   0.0000
    89 O8      10.3239  -2.9538   5.2563   O.2       3 RES3   0.0000
@<TRIPOS>BOND
     1     1     2    1
     2     2     8   ar
     3     3     1    1
     4     4     1    1
     5     5     1    1
     6     6     1    1
     7     7     1    1
     8     8     9    1
     9    10     8   ar
    10    11    10    1
    11    12    10   ar
    12    13    12    1
    13    14    12   ar
    14    15    14    1
    15    16     2   ar
    16    17     4   ar
    17    18    17   ar
    18    19    18    1
    19    20    18   ar
    20    21    20    1
    21    22    20   ar
    22    23     4   ar
    23    24    23   ar
    24    25    24    1
    25    26    24   ar
    26    27    26    1
    27    28    26   ar
    28    29    28    1
    29    30    22   ar
    30    31    30    1
    31    32     3   ar
    32    33    32    1
    33    34    32   ar
    34    35    34    1
    35    36    34   ar
    36    37    36    1
    37    38    36   ar
    38    39    38    1
    39    40     3   ar
    40    41     5   ar
    41    42    41   ar
    42    43    42    1
    43    44    42   ar
    44    45    44    1
    45    46    44   ar
    46    47     5   ar
    47    48    47   ar
    48    49    48    1
    49    50    48   ar
    50    51    50    1
    51    52    50   ar
    52    53    52    1
    53    54    46   ar
    54    55    54    1
    55    56     7   ar
    56    57    56    1
    57    58    56   ar
    58    59    58    1
    59    60    58   ar
    60    61    60    1
    61    62    60   ar
    62    63    62    1
    63    64     7   ar
    64    65     6   ar
    65    66    65   ar
    66    67    66    1
    67    68    66   ar
    68    69    68    1
    69    70    68   ar
    70    71     6   ar
    71    72    71   ar
    72    73    72    1
    73    74    72   ar
    74    75    74    1
    75    76    74   ar
    76    77    76    1
    77    78    70   ar
    78    79    78    1
    79    14    16   ar
    80    16    17    1
    81    22    23   ar
    82    28    30   ar
    83    38    40   ar
    84    40    41    1
    85    46    47   ar
    86    52    54   ar
    87    62    64   ar
    88    64    65    1
    89    70    71   ar
    90    76    78   ar
    91    80    81    1
    92    82    80    2
    93    83    80    2
    94    84    80    2
    95    85    86    1
    96    87    85    2
    97    88    85    2
    98    89    85    2
@<TRIPOS>SUBSTRUCTURE
     1 RES1        1 GROUP             0 ****  ****    0  
     2 RES2       80 GROUP             0 ****  ****    0  
     3 RES3       85 GROUP             0 ****  ****    0  
@<TRIPOS>CRYSIN
   18.5790   10.9520   19.2850   90.0000   93.6050   90.0000    14     1
