@<TRIPOS>MOLECULE
NOKFID01
    97   105     4     0     0
SMALL
USER_CHARGES
****
Generated from the CSD

@<TRIPOS>ATOM
     1 Fe1      1.2942   2.5423   3.2858   Fe        1 RES1   2.0000
     2 N1       0.1807   1.1927   4.1711   N.ar      1 RES1   0.0000
     3 N2      -0.2264   3.7346   3.9169   N.ar      1 RES1   0.0000
     4 N3       0.4237   2.0947   1.5549   N.ar      1 RES1   0.0000
     5 N4       2.6296   1.1550   2.5545   N.ar      1 RES1   0.0000
     6 N5       2.3264   3.0856   4.8622   N.ar      1 RES1   0.0000
     7 N6       2.6940   3.7934   2.4261   N.ar      1 RES1   0.0000
     8 C1       0.4964  -0.1069   4.3488   C.ar      1 RES1   0.0000
     9 H1       1.3418  -0.3991   4.0946   H         1 RES1   0.0000
    10 C2      -0.3863  -1.0210   4.8918   C.ar      1 RES1   0.0000
    11 H2      -0.1309  -1.9065   5.0201   H         1 RES1   0.0000
    12 C3      -1.6471  -0.5963   5.2422   C.ar      1 RES1   0.0000
    13 H3      -2.2661  -1.1972   5.5878   H         1 RES1   0.0000
    14 C4      -1.9836   0.7289   5.0744   C.ar      1 RES1   0.0000
    15 H4      -2.8269   1.0376   5.3163   H         1 RES1   0.0000
    16 C5      -1.0406   1.5963   4.5388   C.ar      1 RES1   0.0000
    17 C6      -1.2836   3.0494   4.3513   C.ar      1 RES1   0.0000
    18 C7      -2.5341   3.6337   4.6351   C.ar      1 RES1   0.0000
    19 H5      -3.2590   3.1022   4.8720   H         1 RES1   0.0000
    20 C8      -2.6691   4.9740   4.5561   C.ar      1 RES1   0.0000
    21 H6      -3.4916   5.3670   4.7289   H         1 RES1   0.0000
    22 C9      -1.5703   5.7721   4.2106   C.ar      1 RES1   0.0000
    23 C10     -0.3427   5.1351   3.8996   C.ar      1 RES1   0.0000
    24 C11      0.7602   5.9393   3.5911   C.ar      1 RES1   0.0000
    25 H7       1.5724   5.5387   3.3714   H         1 RES1   0.0000
    26 C12      0.6667   7.3187   3.6010   C.ar      1 RES1   0.0000
    27 H8       1.4187   7.8352   3.4183   H         1 RES1   0.0000
    28 C13     -0.5400   7.9376   3.8848   C.ar      1 RES1   0.0000
    29 H9      -0.6024   8.8652   3.8774   H         1 RES1   0.0000
    30 C14     -1.6264   7.1862   4.1736   C.ar      1 RES1   0.0000
    31 H10     -2.4344   7.6093   4.3488   H         1 RES1   0.0000
    32 C15     -0.8163   2.4094   1.1427   C.ar      1 RES1   0.0000
    33 H11     -1.4187   2.7558   1.7622   H         1 RES1   0.0000
    34 C16     -1.2359   2.2408  -0.1555   C.ar      1 RES1   0.0000
    35 H12     -2.1020   2.4727  -0.3949   H         1 RES1   0.0000
    36 C17     -0.3780   1.7318  -1.0958   C.ar      1 RES1   0.0000
    37 H13     -0.6314   1.6550  -1.9868   H         1 RES1   0.0000
    38 C18      0.8703   1.3418  -0.6689   C.ar      1 RES1   0.0000
    39 H14      1.4685   0.9653  -1.2735   H         1 RES1   0.0000
    40 C19      1.2421   1.5089   0.6664   C.ar      1 RES1   0.0000
    41 C20      2.5278   1.0541   1.2192   C.ar      1 RES1   0.0000
    42 C21      3.5498   0.5466   0.4097   C.ar      1 RES1   0.0000
    43 H15      3.4334   0.4894  -0.5109   H         1 RES1   0.0000
    44 C22      4.7171   0.1385   0.9823   C.ar      1 RES1   0.0000
    45 H16      5.4254  -0.1431   0.4492   H         1 RES1   0.0000
    46 C23      4.8480   0.1416   2.3768   C.ar      1 RES1   0.0000
    47 C24      3.7575   0.6249   3.1592   C.ar      1 RES1   0.0000
    48 C25      3.8593   0.5075   4.5660   C.ar      1 RES1   0.0000
    49 H17      3.1406   0.7575   5.0991   H         1 RES1   0.0000
    50 C26      4.9996   0.0301   5.1534   C.ar      1 RES1   0.0000
    51 H18      5.0494  -0.0346   6.0814   H         1 RES1   0.0000
    52 C27      6.0838  -0.3599   4.3710   C.ar      1 RES1   0.0000
    53 H19      6.8690  -0.6415   4.7832   H         1 RES1   0.0000
    54 C28      6.0132  -0.3328   3.0136   C.ar      1 RES1   0.0000
    55 H20      6.7340  -0.6280   2.5027   H         1 RES1   0.0000
    56 C29      1.9068   3.0028   6.1209   C.ar      1 RES1   0.0000
    57 H21      1.0448   2.7046   6.3035   H         1 RES1   0.0000
    58 C30      2.7625   3.3642   7.1797   C.ar      1 RES1   0.0000
    59 H22      2.4572   3.3431   8.0583   H         1 RES1   0.0000
    60 C31      4.0628   3.7512   6.9033   C.ar      1 RES1   0.0000
    61 H23      4.6589   3.9379   7.5943   H         1 RES1   0.0000
    62 C32      4.4575   3.8506   5.5878   C.ar      1 RES1   0.0000
    63 H24      5.3174   4.1352   5.3755   H         1 RES1   0.0000
    64 C33      3.5685   3.5283   4.5907   C.ar      1 RES1   0.0000
    65 C34      3.8115   3.7648   3.1518   C.ar      1 RES1   0.0000
    66 C35      5.1014   3.9259   2.5964   C.ar      1 RES1   0.0000
    67 H25      5.8657   3.8687   3.1221   H         1 RES1   0.0000
    68 C36      5.1824   4.1683   1.2464   C.ar      1 RES1   0.0000
    69 H26      6.0174   4.1804   0.8367   H         1 RES1   0.0000
    70 C37      4.0462   4.3957   0.4739   C.ar      1 RES1   0.0000
    71 C38      2.7833   4.2271   1.0983   C.ar      1 RES1   0.0000
    72 C39      1.6243   4.5659   0.3924   C.ar      1 RES1   0.0000
    73 H27      0.7935   4.4876   0.8046   H         1 RES1   0.0000
    74 C40      1.7053   5.0116  -0.9009   C.ar      1 RES1   0.0000
    75 H28      0.9305   5.2450  -1.3599   H         1 RES1   0.0000
    76 C41      2.9308   5.1125  -1.5179   C.ar      1 RES1   0.0000
    77 H29      2.9661   5.3926  -2.4039   H         1 RES1   0.0000
    78 C42      4.0836   4.8189  -0.8811   C.ar      1 RES1   0.0000
    79 H30      4.8957   4.8927  -1.3254   H         1 RES1   0.0000
    80 B1       8.5930   3.4997   4.0008   B         2 RES2  -1.0000
    81 F1       9.6004   3.4681   4.8868   F         2 RES2   0.0000
    82 F2       7.6063   2.7272   4.4574   F         2 RES2   0.0000
    83 F3       8.1422   4.7361   3.7639   F         2 RES2   0.0000
    84 F4       8.9045   2.9922   2.8284   F         2 RES2   0.0000
    85 B2       4.8687   7.4783   9.1715   B         3 RES3  -1.0000
    86 F5       3.7014   7.9180   9.7564   F         3 RES3   0.0000
    87 F6       5.4649   8.5279   8.4984   F         3 RES3   0.0000
    88 F7       4.6153   6.4784   8.2570   F         3 RES3   0.0000
    89 F8       5.7307   7.0039  10.1476   F         3 RES3   0.0000
    90 O1       7.3467   4.7873  11.2447   O.3       4 RES4   0.0000
    91 C43      7.8307   5.4679  12.3010   C.3       4 RES4   0.0000
    92 H31      8.3853   4.8641  12.8168   H         4 RES4   0.0000
    93 H32      7.0808   5.7209  12.8637   H         4 RES4   0.0000
    94 C44      8.5992   6.6546  12.0271   C.3       4 RES4   0.0000
    95 H33      8.8941   7.0431  12.8539   H         4 RES4   0.0000
    96 H34      8.0550   7.2871  11.5532   H         4 RES4   0.0000
    97 H35      9.3636   6.4257  11.4915   H         4 RES4   0.0000
@<TRIPOS>BOND
     1     1     2    1
     2     2     8   ar
     3     3     1    1
     4     4     1    1
     5     5     1    1
     6     6     1    1
     7     7     1    1
     8     8     9    1
     9    10     8   ar
    10    11    10    1
    11    12    10   ar
    12    13    12    1
    13    14    12   ar
    14    15    14    1
    15    16     2   ar
    16    17     3   ar
    17    18    17   ar
    18    19    18    1
    19    20    18   ar
    20    21    20    1
    21    22    20   ar
    22    23     3   ar
    23    24    23   ar
    24    25    24    1
    25    26    24   ar
    26    27    26    1
    27    28    26   ar
    28    29    28    1
    29    30    22   ar
    30    31    30    1
    31    32     4   ar
    32    33    32    1
    33    34    32   ar
    34    35    34    1
    35    36    34   ar
    36    37    36    1
    37    38    36   ar
    38    39    38    1
    39    40     4   ar
    40    41     5   ar
    41    42    41   ar
    42    43    42    1
    43    44    42   ar
    44    45    44    1
    45    46    44   ar
    46    47     5   ar
    47    48    47   ar
    48    49    48    1
    49    50    48   ar
    50    51    50    1
    51    52    50   ar
    52    53    52    1
    53    54    46   ar
    54    55    54    1
    55    56     6   ar
    56    57    56    1
    57    58    56   ar
    58    59    58    1
    59    60    58   ar
    60    61    60    1
    61    62    60   ar
    62    63    62    1
    63    64     6   ar
    64    65     7   ar
    65    66    65   ar
    66    67    66    1
    67    68    66   ar
    68    69    68    1
    69    70    68   ar
    70    71     7   ar
    71    72    71   ar
    72    73    72    1
    73    74    72   ar
    74    75    74    1
    75    76    74   ar
    76    77    76    1
    77    78    70   ar
    78    79    78    1
    79    14    16   ar
    80    16    17    1
    81    22    23   ar
    82    28    30   ar
    83    38    40   ar
    84    40    41    1
    85    46    47   ar
    86    52    54   ar
    87    62    64   ar
    88    64    65    1
    89    70    71   ar
    90    76    78   ar
    91    80    81    1
    92    82    80    1
    93    83    80    1
    94    84    80    1
    95    85    86    1
    96    87    85    1
    97    88    85    1
    98    89    85    1
    99    90    91    1
   100    91    92    1
   101    93    91    1
   102    94    91    1
   103    95    94    1
   104    96    94    1
   105    97    94    1
@<TRIPOS>SUBSTRUCTURE
     1 RES1        1 GROUP             0 ****  ****    0  
     2 RES2       80 GROUP             0 ****  ****    0  
     3 RES3       85 GROUP             0 ****  ****    0  
     4 RES4       90 GROUP             0 ****  ****    0  
@<TRIPOS>CRYSIN
   20.7710   15.0590   24.6810   90.0000   90.0000   90.0000    61     1
