@<TRIPOS>MOLECULE
NOKFID
    97   105     4     0     0
SMALL
USER_CHARGES
****
Generated from the CSD

@<TRIPOS>ATOM
     1 Fe1      1.4364   2.5056   3.4566   Fe        1 RES1   2.0000
     2 N1       0.1192   1.0858   4.3837   N.ar      1 RES1   0.0000
     3 N2      -0.2818   3.6997   4.1130   N.ar      1 RES1   0.0000
     4 N3       0.6070   2.1066   1.5114   N.ar      1 RES1   0.0000
     5 N4       2.7878   0.9408   2.5214   N.ar      1 RES1   0.0000
     6 N5       2.5688   3.1033   5.1682   N.ar      1 RES1   0.0000
     7 N6       3.2018   3.8372   2.7069   N.ar      1 RES1   0.0000
     8 C1       0.3945  -0.2024   4.5541   C.ar      1 RES1   0.0000
     9 H1       1.2421  -0.5059   4.3235   H         1 RES1   0.0000
    10 C2      -0.5181  -1.1175   5.0554   C.ar      1 RES1   0.0000
    11 H2      -0.2840  -2.0099   5.1782   H         1 RES1   0.0000
    12 C3      -1.7407  -0.6735   5.3587   C.ar      1 RES1   0.0000
    13 H3      -2.3781  -1.2685   5.6820   H         1 RES1   0.0000
    14 C4      -2.0724   0.6705   5.1933   C.ar      1 RES1   0.0000
    15 H4      -2.9179   0.9831   5.4188   H         1 RES1   0.0000
    16 C5      -1.1142   1.5252   4.6845   C.ar      1 RES1   0.0000
    17 C6      -1.3527   2.9764   4.5015   C.ar      1 RES1   0.0000
    18 C7      -2.6187   3.5336   4.6970   C.ar      1 RES1   0.0000
    19 H5      -3.3558   2.9945   4.8800   H         1 RES1   0.0000
    20 C8      -2.7488   4.8927   4.6093   C.ar      1 RES1   0.0000
    21 H6      -3.5747   5.2823   4.7822   H         1 RES1   0.0000
    22 C9      -1.6800   5.6976   4.2734   C.ar      1 RES1   0.0000
    23 C10     -0.4206   5.0573   4.0228   C.ar      1 RES1   0.0000
    24 C11      0.6959   5.8501   3.7170   C.ar      1 RES1   0.0000
    25 H7       1.5218   5.4545   3.5541   H         1 RES1   0.0000
    26 C12      0.5615   7.2017   3.6593   C.ar      1 RES1   0.0000
    27 H8       1.3094   7.7196   3.4588   H         1 RES1   0.0000
    28 C13     -0.6395   7.8329   3.8874   C.ar      1 RES1   0.0000
    29 H9      -0.6959   8.7601   3.8298   H         1 RES1   0.0000
    30 C14     -1.7147   7.1171   4.1882   C.ar      1 RES1   0.0000
    31 H10     -2.5190   7.5581   4.3486   H         1 RES1   0.0000
    32 C15     -0.5701   2.5400   1.0427   C.ar      1 RES1   0.0000
    33 H11     -1.1468   2.9598   1.6392   H         1 RES1   0.0000
    34 C16     -0.9755   2.4056  -0.2331   C.ar      1 RES1   0.0000
    35 H12     -1.7971   2.7439  -0.5113   H         1 RES1   0.0000
    36 C17     -0.1322   1.7442  -1.1354   C.ar      1 RES1   0.0000
    37 H13     -0.3815   1.6279  -2.0252   H         1 RES1   0.0000
    38 C18      1.0579   1.2775  -0.6817   C.ar      1 RES1   0.0000
    39 H14      1.6389   0.8411  -1.2607   H         1 RES1   0.0000
    40 C19      1.4069   1.4572   0.6617   C.ar      1 RES1   0.0000
    41 C20      2.6859   0.9408   1.2106   C.ar      1 RES1   0.0000
    42 C21      3.7416   0.5059   0.3960   C.ar      1 RES1   0.0000
    43 H15      3.6267   0.5014  -0.5263   H         1 RES1   0.0000
    44 C22      4.9122   0.0951   0.9048   C.ar      1 RES1   0.0000
    45 H16      5.6081  -0.1631   0.3459   H         1 RES1   0.0000
    46 C23      5.0640   0.0649   2.2733   C.ar      1 RES1   0.0000
    47 C24      3.9649   0.4545   3.0954   C.ar      1 RES1   0.0000
    48 C25      4.0516   0.3488   4.4915   C.ar      1 RES1   0.0000
    49 H17      3.3124   0.5270   5.0278   H         1 RES1   0.0000
    50 C26      5.2699  -0.0302   5.0629   C.ar      1 RES1   0.0000
    51 H18      5.3501  -0.0574   5.9878   H         1 RES1   0.0000
    52 C27      6.3343  -0.3564   4.2985   C.ar      1 RES1   0.0000
    53 H19      7.1277  -0.6131   4.7070   H         1 RES1   0.0000
    54 C28      6.2606  -0.3186   2.9450   C.ar      1 RES1   0.0000
    55 H20      7.0085  -0.5467   2.4437   H         1 RES1   0.0000
    56 C29      2.0984   2.9975   6.4339   C.ar      1 RES1   0.0000
    57 H21      1.2226   2.7212   6.5743   H         1 RES1   0.0000
    58 C30      2.8962   3.2935   7.5217   C.ar      1 RES1   0.0000
    59 H22      2.5645   3.1984   8.3839   H         1 RES1   0.0000
    60 C31      4.1643   3.7254   7.3162   C.ar      1 RES1   0.0000
    61 H23      4.7020   3.9414   8.0430   H         1 RES1   0.0000
    62 C32      4.6586   3.8432   6.0379   C.ar      1 RES1   0.0000
    63 H24      5.5344   4.1226   5.8925   H         1 RES1   0.0000
    64 C33      3.8218   3.5351   4.9627   C.ar      1 RES1   0.0000
    65 C34      4.2077   3.7118   3.5290   C.ar      1 RES1   0.0000
    66 C35      5.5517   3.7450   3.1706   C.ar      1 RES1   0.0000
    67 H25      6.2216   3.6514   3.8097   H         1 RES1   0.0000
    68 C36      5.8487   3.9172   1.8673   C.ar      1 RES1   0.0000
    69 H26      6.7332   3.8764   1.5866   H         1 RES1   0.0000
    70 C37      4.8038   4.1603   0.9098   C.ar      1 RES1   0.0000
    71 C38      3.4641   4.1558   1.3911   C.ar      1 RES1   0.0000
    72 C39      2.4301   4.4941   0.5263   C.ar      1 RES1   0.0000
    73 H27      1.5521   4.5092   0.8296   H         1 RES1   0.0000
    74 C40      2.7184   4.8066  -0.7895   C.ar      1 RES1   0.0000
    75 H28      2.0334   5.0150  -1.3810   H         1 RES1   0.0000
    76 C41      4.0104   4.8066  -1.2081   C.ar      1 RES1   0.0000
    77 H29      4.1795   5.0392  -2.0928   H         1 RES1   0.0000
    78 C42      5.0531   4.4941  -0.4336   C.ar      1 RES1   0.0000
    79 H30      5.9203   4.4986  -0.7745   H         1 RES1   0.0000
    80 B1       9.1871   3.4853   3.9977   B         2 RES2  -1.0000
    81 F1      10.2450   3.3479   4.6920   F         2 RES2   0.0000
    82 F2       8.3048   2.6336   4.3712   F         2 RES2   0.0000
    83 F3       8.6929   4.6420   3.7947   F         2 RES2   0.0000
    84 F4       9.4559   3.0338   2.8097   F         2 RES2   0.0000
    85 B2       5.1724   7.4025   9.2737   B         3 RES3  -1.0000
    86 F5       4.0126   7.7483   9.8126   F         3 RES3   0.0000
    87 F6       5.4607   8.4868   8.5268   F         3 RES3   0.0000
    88 F7       5.0380   6.6203   8.2160   F         3 RES3   0.0000
    89 F8       6.0221   7.0295  10.2086   F         3 RES3   0.0000
    90 O1       7.9428   5.0588  11.4517   O.3       4 RES4   0.0000
    91 C43      8.6560   6.1461  12.1686   C.3       4 RES4   0.0000
    92 H31      8.6777   6.8694  11.5219   H         4 RES4   0.0000
    93 H32      8.0252   6.4270  12.8478   H         4 RES4   0.0000
    94 C44      9.8396   6.2367  12.7801   C.3       4 RES4   0.0000
    95 H33      9.9437   7.1080  13.1536   H         4 RES4   0.0000
    96 H34     10.5398   6.0676  12.1435   H         4 RES4   0.0000
    97 H35      9.8852   5.5768  13.4819   H         4 RES4   0.0000
@<TRIPOS>BOND
     1     1     2    1
     2     2     8   ar
     3     3     1    1
     4     4     1    1
     5     5     1    1
     6     6     1    1
     7     7     1    1
     8     8     9    1
     9    10     8   ar
    10    11    10    1
    11    12    10   ar
    12    13    12    1
    13    14    12   ar
    14    15    14    1
    15    16     2   ar
    16    17     3   ar
    17    18    17   ar
    18    19    18    1
    19    20    18   ar
    20    21    20    1
    21    22    20   ar
    22    23     3   ar
    23    24    23   ar
    24    25    24    1
    25    26    24   ar
    26    27    26    1
    27    28    26   ar
    28    29    28    1
    29    30    22   ar
    30    31    30    1
    31    32     4   ar
    32    33    32    1
    33    34    32   ar
    34    35    34    1
    35    36    34   ar
    36    37    36    1
    37    38    36   ar
    38    39    38    1
    39    40     4   ar
    40    41     5   ar
    41    42    41   ar
    42    43    42    1
    43    44    42   ar
    44    45    44    1
    45    46    44   ar
    46    47     5   ar
    47    48    47   ar
    48    49    48    1
    49    50    48   ar
    50    51    50    1
    51    52    50   ar
    52    53    52    1
    53    54    46   ar
    54    55    54    1
    55    56     6   ar
    56    57    56    1
    57    58    56   ar
    58    59    58    1
    59    60    58   ar
    60    61    60    1
    61    62    60   ar
    62    63    62    1
    63    64     6   ar
    64    65     7   ar
    65    66    65   ar
    66    67    66    1
    67    68    66   ar
    68    69    68    1
    69    70    68   ar
    70    71     7   ar
    71    72    71   ar
    72    73    72    1
    73    74    72   ar
    74    75    74    1
    75    76    74   ar
    76    77    76    1
    77    78    70   ar
    78    79    78    1
    79    14    16   ar
    80    16    17    1
    81    22    23   ar
    82    28    30   ar
    83    38    40   ar
    84    40    41    1
    85    46    47   ar
    86    52    54   ar
    87    62    64   ar
    88    64    65    1
    89    70    71   ar
    90    76    78   ar
    91    80    81    1
    92    82    80    1
    93    83    80    1
    94    84    80    1
    95    85    86    1
    96    87    85    1
    97    88    85    1
    98    89    85    1
    99    90    91    1
   100    91    92    1
   101    93    91    1
   102    94    91    1
   103    95    94    1
   104    96    94    1
   105    97    94    1
@<TRIPOS>SUBSTRUCTURE
     1 RES1        1 GROUP             0 ****  ****    0  
     2 RES2       80 GROUP             0 ****  ****    0  
     3 RES3       85 GROUP             0 ****  ****    0  
     4 RES4       90 GROUP             0 ****  ****    0  
@<TRIPOS>CRYSIN
   21.6780   15.1010   25.0640   90.0000   90.0000   90.0000    61     1
