@<TRIPOS>MOLECULE
NONKUZ
    97   103     4     0     0
SMALL
USER_CHARGES
****
Generated from the CSD

@<TRIPOS>ATOM
     1 Fe1      3.9973   5.1289  11.1745   Fe        1 RES1   2.0000
     2 N1       6.4754   3.7138   9.6751   N.pl3     1 RES1   0.0000
     3 H1       6.4776   4.2380   8.9683   H         1 RES1   0.0000
     4 N2       5.5541   3.7701  10.6589   N.2       1 RES1   0.0000
     5 N3       2.9348   3.3203  11.7679   N.2       1 RES1   0.0000
     6 N4       3.6601   2.3229  12.3702   N.pl3     1 RES1   0.0000
     7 N5       4.8685   4.9707  13.2045   N.2       1 RES1   0.0000
     8 N6       5.1050   3.7002  13.6707   N.pl3     1 RES1   0.0000
     9 C1       7.3885   2.7578   9.9089   C.2       1 RES1   0.0000
    10 H2       8.1265   2.5392   9.3522   H         1 RES1   0.0000
    11 C2       7.0614   2.1488  11.1061   C.2       1 RES1   0.0000
    12 H3       7.5170   1.4388  11.5428   H         1 RES1   0.0000
    13 C3       5.9072   2.8157  11.5281   C.2       1 RES1   0.0000
    14 C4       5.0510   2.5780  12.7427   C.3       1 RES1   0.0000
    15 H4       5.3995   1.7681  13.2146   H         1 RES1   0.0000
    16 C5       0.6135   3.5884  10.9671   C.3       1 RES1   0.0000
    17 H5      -0.1273   3.6702  11.6033   H         1 RES1   0.0000
    18 H6       0.3007   3.1318  10.1583   H         1 RES1   0.0000
    19 H7       0.9421   4.4812  10.7317   H         1 RES1   0.0000
    20 C6       1.7167   2.8005  11.5873   C.2       1 RES1   0.0000
    21 C7       1.6682   1.4786  12.0519   C.2       1 RES1   0.0000
    22 H8       0.9210   0.8925  12.0270   H         1 RES1   0.0000
    23 C8       2.9219   1.1998  12.5517   C.2       1 RES1   0.0000
    24 C9       3.4747  -0.0491  13.1540   C.3       1 RES1   0.0000
    25 H9       4.2725  -0.3262  12.6568   H         1 RES1   0.0000
    26 H10      2.8002  -0.7587  13.1112   H         1 RES1   0.0000
    27 H11      3.7145   0.1178  14.0895   H         1 RES1   0.0000
    28 C10      4.7297   7.2331  14.1771   C.3       1 RES1   0.0000
    29 H12      5.5774   7.6801  14.3822   H         1 RES1   0.0000
    30 H13      4.0436   7.5267  14.8124   H         1 RES1   0.0000
    31 H14      4.4512   7.4630  13.2662   H         1 RES1   0.0000
    32 C11      4.9079   5.7538  14.2851   C.2       1 RES1   0.0000
    33 C12      5.1482   4.9901  15.4354   C.2       1 RES1   0.0000
    34 H15      5.2249   5.3138  16.3252   H         1 RES1   0.0000
    35 C13      5.2512   3.6840  15.0270   C.2       1 RES1   0.0000
    36 C14      5.4926   2.4503  15.8231   C.3       1 RES1   0.0000
    37 H16      4.8326   1.7687  15.5777   H         1 RES1   0.0000
    38 H17      5.4099   2.6562  16.7778   H         1 RES1   0.0000
    39 H18      6.3942   2.1135  15.6386   H         1 RES1   0.0000
    40 N1B      1.5192   6.5441  12.6739   N.pl3     1 RES1   0.0000
    41 H1B      1.5171   6.0199  13.3807   H         1 RES1   0.0000
    42 N2B      2.4406   6.4878  11.6901   N.2       1 RES1   0.0000
    43 N3B      5.0598   6.9376  10.5811   N.2       1 RES1   0.0000
    44 N4B      4.3346   7.9350   9.9788   N.pl3     1 RES1   0.0000
    45 N5B      3.1261   5.2872   9.1446   N.2       1 RES1   0.0000
    46 N6B      2.8897   6.5577   8.6784   N.pl3     1 RES1   0.0000
    47 C1B      0.6062   7.5000  12.4401   C.2       1 RES1   0.0000
    48 H2B     -0.1319   7.7187  12.9969   H         1 RES1   0.0000
    49 C2B      0.9333   8.1091  11.2429   C.2       1 RES1   0.0000
    50 H3B      0.4776   8.8191  10.8062   H         1 RES1   0.0000
    51 C3B      2.0875   7.4422  10.8210   C.2       1 RES1   0.0000
    52 C4B      2.9437   7.6799   9.6063   C.3       1 RES1   0.0000
    53 H4B      2.5952   8.4898   9.1344   H         1 RES1   0.0000
    54 C5B      7.3811   6.6695  11.3819   C.3       1 RES1   0.0000
    55 H5B      8.1219   6.5877  10.7457   H         1 RES1   0.0000
    56 H6B      7.6939   7.1261  12.1907   H         1 RES1   0.0000
    57 H7B      7.0525   5.7767  11.6174   H         1 RES1   0.0000
    58 C6B      6.2780   7.4574  10.7617   C.2       1 RES1   0.0000
    59 C7B      6.3264   8.7793  10.2971   C.2       1 RES1   0.0000
    60 H8B      7.0736   9.3654  10.3221   H         1 RES1   0.0000
    61 C8B      5.0727   9.0581   9.7974   C.2       1 RES1   0.0000
    62 C9B      4.5199  10.3070   9.1951   C.3       1 RES1   0.0000
    63 H9B      3.7222  10.5841   9.6922   H         1 RES1   0.0000
    64 H10B     5.1944  11.0166   9.2378   H         1 RES1   0.0000
    65 H11B     4.2802  10.1401   8.2596   H         1 RES1   0.0000
    66 C10B     3.2649   3.0247   8.1719   C.3       1 RES1   0.0000
    67 H12B     2.4173   2.5778   7.9668   H         1 RES1   0.0000
    68 H13B     3.9510   2.7312   7.5366   H         1 RES1   0.0000
    69 H14B     3.5435   2.7949   9.0829   H         1 RES1   0.0000
    70 C11B     3.0867   4.5040   8.0640   C.2       1 RES1   0.0000
    71 C12B     2.8464   5.2677   6.9137   C.2       1 RES1   0.0000
    72 H15B     2.7697   4.9440   6.0238   H         1 RES1   0.0000
    73 C13B     2.7435   6.5739   7.3220   C.2       1 RES1   0.0000
    74 C14B     2.5020   7.8076   6.5259   C.3       1 RES1   0.0000
    75 H16B     3.1620   8.4891   6.7714   H         1 RES1   0.0000
    76 H17B     2.5848   7.6016   5.5713   H         1 RES1   0.0000
    77 H18B     1.6005   8.1443   6.7105   H         1 RES1   0.0000
    78 S1       8.1064  -0.5314  13.8937   S.o2      2 RES2   0.0000
    79 F1       9.3501   1.7647  14.1731   F         2 RES2   0.0000
    80 F2      10.5407   0.0413  14.6833   F         2 RES2   0.0000
    81 F3       9.0054   0.7319  16.0281   F         2 RES2   0.0000
    82 O1       8.2400  -1.7854  14.6038   O.3       2 RES2  -1.0000
    83 O2       6.8495   0.1465  14.0913   O.2       2 RES2   0.0000
    84 O3       8.5982  -0.5488  12.5445   O.2       2 RES2   0.0000
    85 C15      9.3070   0.5560  14.7374   C.3       2 RES2   0.0000
    86 N7       6.4106   5.7489   7.6389   N.1       3 RES3   0.0000
    87 C16      6.3628   6.5986   6.8822   C.1       3 RES3   0.0000
    88 C17      6.3160   7.6713   5.9024   C.3       3 RES3   0.0000
    89 H19      6.1204   8.5185   6.3544   H         3 RES3   0.0000
    90 H20      5.6145   7.4826   5.2445   H         3 RES3   0.0000
    91 H21      7.1815   7.7362   5.4473   H         3 RES3   0.0000
    92 N8       8.7948   4.3103  16.8724   N.1       4 RES4   0.0000
    93 C18      8.6521   4.6118  15.7820   C.1       4 RES4   0.0000
    94 C19      8.4887   5.0156  14.3961   C.3       4 RES4   0.0000
    95 H22      8.2766   5.9715  14.3573   H         4 RES4   0.0000
    96 H23      7.7593   4.5023  13.9902   H         4 RES4   0.0000
    97 H24      9.3202   4.8453  13.9062   H         4 RES4   0.0000
@<TRIPOS>BOND
     1     1     4    1
     2     2     3    1
     3     4     2    1
     4     5     1    1
     5     6     5    1
     6     7     1    1
     7     8     7    1
     8     9     2    1
     9    10     9    1
    10    11     9    2
    11    12    11    1
    12    13     4    2
    13    14     6    1
    14    15    14    1
    15    16    17    1
    16    18    16    1
    17    19    16    1
    18    20     5    2
    19    21    20    1
    20    22    21    1
    21    23     6    1
    22    24    23    1
    23    25    24    1
    24    26    24    1
    25    27    24    1
    26    28    29    1
    27    30    28    1
    28    31    28    1
    29    32     7    2
    30    33    32    1
    31    34    33    1
    32    35     8    1
    33    36    35    1
    34    37    36    1
    35    38    36    1
    36    39    36    1
    37    40    41    1
    38    42     1    1
    39    43     1    1
    40    44    43    1
    41    45     1    1
    42    46    45    1
    43    47    40    1
    44    48    47    1
    45    49    47    2
    46    50    49    1
    47    51    42    2
    48    52    44    1
    49    53    52    1
    50    54    55    1
    51    56    54    1
    52    57    54    1
    53    58    43    2
    54    59    58    1
    55    60    59    1
    56    61    44    1
    57    62    61    1
    58    63    62    1
    59    64    62    1
    60    65    62    1
    61    66    67    1
    62    68    66    1
    63    69    66    1
    64    70    45    2
    65    71    70    1
    66    72    71    1
    67    73    46    1
    68    74    73    1
    69    75    74    1
    70    76    74    1
    71    77    74    1
    72     8    14    1
    73    11    13    1
    74    13    14    1
    75    16    20    1
    76    21    23    2
    77    28    32    1
    78    33    35    2
    79    40    42    1
    80    46    52    1
    81    49    51    1
    82    51    52    1
    83    54    58    1
    84    59    61    2
    85    66    70    1
    86    71    73    2
    87    78    82    1
    88    79    85    1
    89    80    85    1
    90    81    85    1
    91    83    78    2
    92    84    78    2
    93    85    78    1
    94    86    87    3
    95    87    88    1
    96    88    89    1
    97    90    88    1
    98    91    88    1
    99    92    93    3
   100    93    94    1
   101    94    95    1
   102    96    94    1
   103    97    94    1
@<TRIPOS>SUBSTRUCTURE
     1 RES1        1 GROUP             0 ****  ****    0  
     2 RES2       78 GROUP             0 ****  ****    0  
     3 RES3       86 GROUP             0 ****  ****    0  
     4 RES4       92 GROUP             0 ****  ****    0  
@<TRIPOS>CRYSIN
   10.2943   10.2579   22.4670   90.0000   95.8748   90.0000   231     1
