@<TRIPOS>MOLECULE
NOQWOH
    95    98     6     0     0
SMALL
USER_CHARGES
****
Generated from the CSD

@<TRIPOS>ATOM
     1 C1      -0.4964  11.9192   8.9595   C.1       1 RES1   0.0000
     2 C2      -2.9910  10.8826   8.5230   C.1       1 RES1   0.0000
     3 C3       0.4590  11.0570   6.6651   C.1       1 RES1   0.0000
     4 C4      -2.2694  16.0222   5.8840   C.3       1 RES1   0.0000
     5 H1      -2.5476  16.4499   5.0705   H         1 RES1   0.0000
     6 H2      -1.3464  16.2279   6.0536   H         1 RES1   0.0000
     7 H3      -2.8073  16.3382   6.6128   H         1 RES1   0.0000
     8 C5      -1.8287  13.6479   6.6056   C.ar      1 RES1   0.0000
     9 H4      -1.3165  13.9734   7.3109   H         1 RES1   0.0000
    10 C6      -2.4309  14.5524   5.7487   C.ar      1 RES1   0.0000
    11 C7      -3.3266  12.8033   4.5853   C.ar      1 RES1   0.0000
    12 H5      -3.8621  12.4805   3.8980   H         1 RES1   0.0000
    13 C8      -2.6770  11.8961   5.3970   C.ar      1 RES1   0.0000
    14 C9      -2.7268  10.4222   5.1787   C.2       1 RES1   0.0000
    15 C10     -1.8936   8.4170   6.3422   C.ar      1 RES1   0.0000
    16 C11     -2.3485   7.4172   5.4908   C.ar      1 RES1   0.0000
    17 H6      -2.8223   7.6297   4.7206   H         1 RES1   0.0000
    18 C12     -2.0755   6.0740   5.8227   C.ar      1 RES1   0.0000
    19 H7      -2.3610   5.4011   5.2491   H         1 RES1   0.0000
    20 C13     -1.4072   5.7321   6.9573   C.ar      1 RES1   0.0000
    21 H8      -1.2413   4.8358   7.1431   H         1 RES1   0.0000
    22 C14     -0.9631   6.7293   7.8574   C.ar      1 RES1   0.0000
    23 C15     -1.2088   8.0724   7.5165   C.ar      1 RES1   0.0000
    24 C16     -0.2182   8.8311   9.4754   C.ar      1 RES1   0.0000
    25 H9       0.0384   9.5340  10.0274   H         1 RES1   0.0000
    26 C17      0.0388   7.5125   9.8957   C.ar      1 RES1   0.0000
    27 H10      0.4486   7.3491  10.7146   H         1 RES1   0.0000
    28 C18     -0.3235   6.4773   9.0804   C.ar      1 RES1   0.0000
    29 H11     -0.1460   5.6014   9.3383   H         1 RES1   0.0000
    30 Fe1     -1.2872  10.8646   7.5381   Fe        1 RES1   0.0000
    31 N1       0.0123  12.5145   9.8145   N.1       1 RES1   0.0000
    32 N2      -4.0192  10.8581   9.0425   N.1       1 RES1   0.0000
    33 N3       1.4698  11.2286   6.1402   N.1       1 RES1   0.0000
    34 N4      -1.9492  12.3456   6.4631   N.ar      1 RES1   0.0000
    35 N5      -2.0374   9.8324   6.1925   N.am      1 RES1  -1.0000
    36 N6      -0.8144   9.1090   8.3282   N.ar      1 RES1   0.0000
    37 N7      -3.2185  14.1287   4.7458   N.ar      1 RES1   0.0000
    38 O1      -3.3166   9.9318   4.2296   O.2       1 RES1   0.0000
    39 C19      2.6020   7.6556   7.1485   C.ar      2 RES2   0.0000
    40 H12      1.8023   8.0411   7.4263   H         2 RES2   0.0000
    41 C20      3.5307   8.4266   6.4775   C.ar      2 RES2   0.0000
    42 H13      3.3645   9.3270   6.3115   H         2 RES2   0.0000
    43 C21      4.6998   7.8490   6.0572   C.ar      2 RES2   0.0000
    44 H14      5.3204   8.3612   5.5900   H         2 RES2   0.0000
    45 C22      4.9723   6.5100   6.3170   C.ar      2 RES2   0.0000
    46 C23      4.0249   5.7376   7.0060   C.ar      2 RES2   0.0000
    47 H15      4.1913   4.8413   7.1900   H         2 RES2   0.0000
    48 C24      2.8407   6.3247   7.4119   C.ar      2 RES2   0.0000
    49 H16      2.2050   5.8207   7.8646   H         2 RES2   0.0000
    50 C25      7.7415   4.3032   7.6987   C.ar      2 RES2   0.0000
    51 H17      8.2066   5.0810   7.9025   H         2 RES2   0.0000
    52 C26      7.9369   3.1698   8.4617   C.ar      2 RES2   0.0000
    53 H18      8.5430   3.1780   9.1670   H         2 RES2   0.0000
    54 C27      7.2254   2.0188   8.1677   C.ar      2 RES2   0.0000
    55 H19      7.3441   1.2573   8.6890   H         2 RES2   0.0000
    56 C28      6.3375   1.9915   7.1034   C.ar      2 RES2   0.0000
    57 H20      5.8578   1.2164   6.9140   H         2 RES2   0.0000
    58 C29      6.1656   3.1222   6.3278   C.ar      2 RES2   0.0000
    59 H21      5.5873   3.1017   5.5990   H         2 RES2   0.0000
    60 C30      6.8614   4.2923   6.6344   C.ar      2 RES2   0.0000
    61 C31      7.7650   7.0412   5.9327   C.ar      2 RES2   0.0000
    62 C32      7.7862   7.7632   7.1251   C.ar      2 RES2   0.0000
    63 H22      7.1690   7.5738   7.7961   H         2 RES2   0.0000
    64 C33      8.7271   8.7644   7.3109   C.ar      2 RES2   0.0000
    65 H23      8.7479   9.2425   8.1081   H         2 RES2   0.0000
    66 C34      9.6377   9.0505   6.3025   C.ar      2 RES2   0.0000
    67 H24     10.2582   9.7329   6.4180   H         2 RES2   0.0000
    68 C35      9.6265   8.3339   5.1391   C.ar      2 RES2   0.0000
    69 H25     10.2481   8.5233   4.4753   H         2 RES2   0.0000
    70 C36      8.6955   7.3245   4.9388   C.ar      2 RES2   0.0000
    71 H26      8.6941   6.8410   4.1452   H         2 RES2   0.0000
    72 C37      5.2335   5.8493   3.2324   C.ar      2 RES2   0.0000
    73 H27      4.5551   6.3247   3.6563   H         2 RES2   0.0000
    74 C38      6.3165   5.3889   3.9648   C.ar      2 RES2   0.0000
    75 C39      7.3318   4.6642   3.3352   C.ar      2 RES2   0.0000
    76 H28      8.0480   4.3332   3.8277   H         2 RES2   0.0000
    77 C40      7.2596   4.4449   1.9607   C.ar      2 RES2   0.0000
    78 H29      7.9356   3.9763   1.5278   H         2 RES2   0.0000
    79 C41      6.1826   4.9230   1.2482   C.ar      2 RES2   0.0000
    80 H30      6.1458   4.7840   0.3283   H         2 RES2   0.0000
    81 C42      5.1608   5.6041   1.8724   C.ar      2 RES2   0.0000
    82 H31      4.4265   5.8970   1.3835   H         2 RES2   0.0000
    83 P1       6.4977   5.7838   5.7053   P.3       2 RES2   1.0000
    84 O2       9.1790  10.8717  10.5404   O.3       3 RES3   0.0000
    85 H32      9.4585  10.6497  11.3117   H         3 RES3   0.0000
    86 H33      9.8699  10.8159  10.0490   H         3 RES3   0.0000
    87 O3       1.1905  11.7898  12.2948   O.3       4 RES4   0.0000
    88 H34      0.5870  11.9969  12.8558   H         4 RES4   0.0000
    89 H35      0.8316  11.9506  11.5408   H         4 RES4   0.0000
    90 O4       3.2462  11.3757   3.7068   O.3       5 RES5   0.0000
    91 H36      2.7367  11.4438   4.3851   H         5 RES5   0.0000
    92 H37      3.3392  10.5339   3.6112   H         5 RES5   0.0000
    93 O5       3.1752   0.1362   7.0854   O.3       6 RES6   0.0000
    94 H38      2.5385  -0.3991   6.9104   H         6 RES6   0.0000
    95 H39      2.7820   0.8759   7.2351   H         6 RES6   0.0000
@<TRIPOS>BOND
     1     1    30    1
     2     2    30    1
     3     3    30    1
     4     4     5    1
     5     6     4    1
     6     7     4    1
     7     8     9    1
     8    10     4    1
     9    11    12    1
    10    13    11   ar
    11    14    13    1
    12    15    16   ar
    13    16    17    1
    14    18    16   ar
    15    19    18    1
    16    20    18   ar
    17    21    20    1
    18    22    20   ar
    19    23    15   ar
    20    24    25    1
    21    26    24   ar
    22    27    26    1
    23    28    22   ar
    24    29    28    1
    25    30    34    1
    26    31     1    3
    27    32     2    3
    28    33     3    3
    29    34     8   ar
    30    35    14   am
    31    36    23   ar
    32    37    10   ar
    33    38    14    2
    34     8    10   ar
    35    11    37   ar
    36    13    34   ar
    37    15    35    1
    38    22    23   ar
    39    24    36   ar
    40    26    28   ar
    41    30    35    1
    42    30    36    1
    43    39    40    1
    44    41    39   ar
    45    42    41    1
    46    43    41   ar
    47    44    43    1
    48    45    43   ar
    49    46    45   ar
    50    47    46    1
    51    48    39   ar
    52    49    48    1
    53    50    51    1
    54    52    50   ar
    55    53    52    1
    56    54    52   ar
    57    55    54    1
    58    56    54   ar
    59    57    56    1
    60    58    56   ar
    61    59    58    1
    62    60    50   ar
    63    61    62   ar
    64    62    63    1
    65    64    62   ar
    66    65    64    1
    67    66    64   ar
    68    67    66    1
    69    68    66   ar
    70    69    68    1
    71    70    61   ar
    72    71    70    1
    73    72    73    1
    74    74    72   ar
    75    75    74   ar
    76    76    75    1
    77    77    75   ar
    78    78    77    1
    79    79    77   ar
    80    80    79    1
    81    81    72   ar
    82    82    81    1
    83    83    45    1
    84    46    48   ar
    85    58    60   ar
    86    60    83    1
    87    61    83    1
    88    68    70   ar
    89    74    83    1
    90    79    81   ar
    91    84    85    1
    92    86    84    1
    93    87    88    1
    94    89    87    1
    95    90    91    1
    96    92    90    1
    97    93    94    1
    98    95    93    1
@<TRIPOS>SUBSTRUCTURE
     1 RES1        1 GROUP             0 ****  ****    0  
     2 RES2       39 GROUP             0 ****  ****    0  
     3 RES3       84 GROUP             0 ****  ****    0  
     4 RES4       87 GROUP             0 ****  ****    0  
     5 RES5       90 GROUP             0 ****  ****    0  
     6 RES6       93 GROUP             0 ****  ****    0  
@<TRIPOS>CRYSIN
   15.6540   13.6220   18.6050   90.0000  104.1800   90.0000    14     1
