@<TRIPOS>MOLECULE
NOTXOL
    79    81     1     0     0
SMALL
NO_CHARGES
****
Generated from the CSD

@<TRIPOS>ATOM
     1 Fe1      2.7083   4.7488   7.8038   Fe        1 RES1   0.0000
     2 O1       4.2731   5.7155   8.5759   O.2       1 RES1   0.0000
     3 O2       2.5392   3.8408   9.5693   O.2       1 RES1   0.0000
     4 O3       1.4976   6.2393   8.3204   O.2       1 RES1   0.0000
     5 O4       1.0676   3.7605   7.2599   O.2       1 RES1   0.0000
     6 O5       3.8076   3.2686   7.0709   O.2       1 RES1   0.0000
     7 O6       3.0772   5.7100   6.1125   O.2       1 RES1   0.0000
     8 C1       4.7520   5.6817   9.7510   C.2       1 RES1   0.0000
     9 C2       4.2765   4.8618  10.7734   C.2       1 RES1   0.0000
    10 H1       4.7072   4.9112  11.6190   H         1 RES1   0.0000
    11 C3       3.2195   3.9850  10.6379   C.2       1 RES1   0.0000
    12 C4       5.9145   6.6261  10.0105   C.3       1 RES1   0.0000
    13 H2       6.2802   6.4495  10.9246   H         1 RES1   0.0000
    14 C5       5.3860   8.0486   9.9577   C.3       1 RES1   0.0000
    15 H3       5.0953   8.2556   9.0437   H         1 RES1   0.0000
    16 H4       6.0941   8.6715  10.2230   H         1 RES1   0.0000
    17 H5       4.6258   8.1379  10.5695   H         1 RES1   0.0000
    18 C6       7.0024   6.3887   8.9909   C.3       1 RES1   0.0000
    19 H6       7.3602   5.4828   9.0993   H         1 RES1   0.0000
    20 H7       7.7219   7.0401   9.1207   H         1 RES1   0.0000
    21 H8       6.6325   6.4856   8.0883   H         1 RES1   0.0000
    22 C7       2.7987   3.1051  11.7958   C.3       1 RES1   0.0000
    23 H9       3.3987   3.2893  12.5744   H         1 RES1   0.0000
    24 C8       1.3788   3.3957  12.1994   C.3       1 RES1   0.0000
    25 H10      1.3004   4.3358  12.4661   H         1 RES1   0.0000
    26 H11      1.1298   2.8202  12.9538   H         1 RES1   0.0000
    27 H12      0.7817   3.2210  11.4436   H         1 RES1   0.0000
    28 C9       2.9570   1.6447  11.3880   C.3       1 RES1   0.0000
    29 H13      2.3360   1.4415  10.6579   H         1 RES1   0.0000
    30 H14      2.7580   1.0692  12.1552   H         1 RES1   0.0000
    31 H15      3.8764   1.4870  11.0900   H         1 RES1   0.0000
    32 C10      0.2871   6.1646   8.6558   C.2       1 RES1   0.0000
    33 C11     -0.5133   5.0460   8.4462   C.2       1 RES1   0.0000
    34 H16     -1.3991   5.0593   8.7884   H         1 RES1   0.0000
    35 C12     -0.0927   3.9141   7.7646   C.2       1 RES1   0.0000
    36 C13     -0.2899   7.4276   9.2718   C.3       1 RES1   0.0000
    37 H17     -1.1944   7.2206   9.6454   H         1 RES1   0.0000
    38 C14      0.6153   7.9100  10.4055   C.3       1 RES1   0.0000
    39 H18      0.6775   7.2149  11.0943   H         1 RES1   0.0000
    40 H19      0.2390   8.7266  10.7991   H         1 RES1   0.0000
    41 H20      1.5088   8.1018  10.0518   H         1 RES1   0.0000
    42 C15     -0.4301   8.4740   8.2209   C.3       1 RES1   0.0000
    43 H21      0.4159   8.5633   7.7346   H         1 RES1   0.0000
    44 H22     -0.6574   9.3305   8.6401   H         1 RES1   0.0000
    45 H23     -1.1397   8.2176   7.5963   H         1 RES1   0.0000
    46 C16     -1.0377   2.7348   7.5892   C.3       1 RES1   0.0000
    47 H24     -1.9761   3.0519   7.7289   H         1 RES1   0.0000
    48 C17     -0.7124   1.6921   8.6415   C.3       1 RES1   0.0000
    49 H25      0.2025   1.3693   8.5089   H         1 RES1   0.0000
    50 H26     -1.3387   0.9439   8.5631   H         1 RES1   0.0000
    51 H27     -0.7922   2.0929   9.5328   H         1 RES1   0.0000
    52 C18     -0.9314   2.1346   6.2216   C.3       1 RES1   0.0000
    53 H28     -1.2060   2.7955   5.5528   H         1 RES1   0.0000
    54 H29     -1.5156   1.3503   6.1646   H         1 RES1   0.0000
    55 H30     -0.0050   1.8650   6.0548   H         1 RES1   0.0000
    56 C19      4.7331   3.3406   6.2202   C.2       1 RES1   0.0000
    57 C20      4.9613   4.4383   5.4245   C.2       1 RES1   0.0000
    58 H31      5.7237   4.4269   4.8555   H         1 RES1   0.0000
    59 C21      4.1465   5.5626   5.4002   C.2       1 RES1   0.0000
    60 C22      5.6166   2.1232   6.0690   C.3       1 RES1   0.0000
    61 H32      6.3394   2.3511   5.4188   H         1 RES1   0.0000
    62 C23      6.2666   1.8023   7.3781   C.3       1 RES1   0.0000
    63 H33      6.7042   2.6037   7.7318   H         1 RES1   0.0000
    64 H34      6.9347   1.0977   7.2455   H         1 RES1   0.0000
    65 H35      5.5879   1.4927   8.0127   H         1 RES1   0.0000
    66 C24      4.8470   1.0388   5.5072   C.3       1 RES1   0.0000
    67 H36      4.1387   0.7806   6.1332   H         1 RES1   0.0000
    68 H37      5.4344   0.2716   5.3446   H         1 RES1   0.0000
    69 H38      4.4462   1.3275   4.6602   H         1 RES1   0.0000
    70 C25      4.4951   6.7135   4.4947   C.3       1 RES1   0.0000
    71 H39      5.2041   6.4134   3.8573   H         1 RES1   0.0000
    72 C26      3.3471   7.2073   3.7190   C.3       1 RES1   0.0000
    73 H40      3.0205   6.4970   3.1301   H         1 RES1   0.0000
    74 H41      3.6248   7.9783   3.1800   H         1 RES1   0.0000
    75 H42      2.6313   7.4808   4.3308   H         1 RES1   0.0000
    76 C27      5.0355   7.7941   5.3175   C.3       1 RES1   0.0000
    77 H43      4.3198   8.1739   5.8694   H         1 RES1   0.0000
    78 H44      5.4050   8.4911   4.7372   H         1 RES1   0.0000
    79 H45      5.7425   7.4409   5.8965   H         1 RES1   0.0000
@<TRIPOS>BOND
     1     1     2    1
     2     2     8   un
     3     3     1    1
     4     4     1    1
     5     5     1    1
     6     6     1    1
     7     7     1    1
     8     8     9   un
     9     9    10    1
    10    11     3   un
    11    12     8    1
    12    13    12    1
    13    14    12    1
    14    15    14    1
    15    16    14    1
    16    17    14    1
    17    18    12    1
    18    19    18    1
    19    20    18    1
    20    21    18    1
    21    22    11    1
    22    23    22    1
    23    24    22    1
    24    25    24    1
    25    26    24    1
    26    27    24    1
    27    28    22    1
    28    29    28    1
    29    30    28    1
    30    31    28    1
    31    32     4   un
    32    33    32   un
    33    34    33    1
    34    35     5   un
    35    36    32    1
    36    37    36    1
    37    38    36    1
    38    39    38    1
    39    40    38    1
    40    41    38    1
    41    42    36    1
    42    43    42    1
    43    44    42    1
    44    45    42    1
    45    46    35    1
    46    47    46    1
    47    48    46    1
    48    49    48    1
    49    50    48    1
    50    51    48    1
    51    52    46    1
    52    53    52    1
    53    54    52    1
    54    55    52    1
    55    56     6   un
    56    57    56   un
    57    58    57    1
    58    59     7   un
    59    60    56    1
    60    61    60    1
    61    62    60    1
    62    63    62    1
    63    64    62    1
    64    65    62    1
    65    66    60    1
    66    67    66    1
    67    68    66    1
    68    69    66    1
    69    70    59    1
    70    71    70    1
    71    72    70    1
    72    73    72    1
    73    74    72    1
    74    75    72    1
    75    76    70    1
    76    77    76    1
    77    78    76    1
    78    79    76    1
    79     9    11   un
    80    33    35   un
    81    57    59   un
@<TRIPOS>SUBSTRUCTURE
     1 RES1        1 GROUP             0 ****  ****    0  
@<TRIPOS>CRYSIN
   11.3761   18.9915   14.7639   90.0000  105.0130   90.0000   231     1
