@<TRIPOS>MOLECULE
NOVFIP
    85    94     3     0     0
SMALL
USER_CHARGES
****
Generated from the CSD

@<TRIPOS>ATOM
     1 Fe1     10.2910  12.9919   3.3257   Fe        1 RES1   2.0000
     2 N1       8.5799  12.9672   4.3156   N.ar      1 RES1   0.0000
     3 N2      10.7655  11.5785   4.6190   N.ar      1 RES1   0.0000
     4 N3      10.8989  14.4625   4.4805   N.ar      1 RES1   0.0000
     5 C1       7.5039  13.7580   4.1877   C.ar      1 RES1   0.0000
     6 H1       7.4743  14.3680   3.4601   H         1 RES1   0.0000
     7 C2       6.4233  13.7260   5.0764   C.ar      1 RES1   0.0000
     8 H2       5.6881  14.3152   4.9553   H         1 RES1   0.0000
     9 C3       6.4296  12.8374   6.1233   C.ar      1 RES1   0.0000
    10 H3       5.7070  12.8214   6.7405   H         1 RES1   0.0000
    11 C4       7.5138  11.9520   6.2749   C.ar      1 RES1   0.0000
    12 C5       8.5816  12.0833   5.3557   C.ar      1 RES1   0.0000
    13 C6       7.6395  10.9561   7.3059   C.ar      1 RES1   0.0000
    14 H4       6.9276  10.8376   7.9232   H         1 RES1   0.0000
    15 C7       8.7353  10.1908   7.4163   C.ar      1 RES1   0.0000
    16 H5       8.7797   9.5344   8.1014   H         1 RES1   0.0000
    17 C8       9.7587  11.3132   5.4994   C.ar      1 RES1   0.0000
    18 C9       9.8466  10.3493   6.5157   C.ar      1 RES1   0.0000
    19 C10     11.0452   9.6048   6.5783   C.ar      1 RES1   0.0000
    20 H6      11.1643   8.9420   7.2487   H         1 RES1   0.0000
    21 C11     12.0326   9.8498   5.6643   C.ar      1 RES1   0.0000
    22 H7      12.8302   9.3342   5.6776   H         1 RES1   0.0000
    23 C12     11.8702  10.8505   4.7159   C.ar      1 RES1   0.0000
    24 H8      12.5826  11.0218   4.1106   H         1 RES1   0.0000
    25 C13     11.5558  14.4304   5.6524   C.ar      1 RES1   0.0000
    26 H9      11.7519  13.5867   6.0421   H         1 RES1   0.0000
    27 C14     11.9634  15.5912   6.3202   C.ar      1 RES1   0.0000
    28 H10     12.4368  15.5272   7.1410   H         1 RES1   0.0000
    29 C15     11.6792  16.8096   5.7894   C.ar      1 RES1   0.0000
    30 H11     11.9517  17.6006   6.2417   H         1 RES1   0.0000
    31 C16     10.9797  16.9041   4.5695   C.ar      1 RES1   0.0000
    32 C17     10.6246  15.6953   3.9549   C.ar      1 RES1   0.0000
    33 C18     10.6187  18.1321   3.9137   C.ar      1 RES1   0.0000
    34 H12     10.8482  18.9615   4.3181   H         1 RES1   0.0000
    35 N3A      9.6831  14.4625   2.1709   N.ar      1 RES1   0.0000
    36 C13A     9.0263  14.4304   0.9990   C.ar      1 RES1   0.0000
    37 H9A      8.8302  13.5867   0.6093   H         1 RES1   0.0000
    38 C14A     8.6187  15.5912   0.3312   C.ar      1 RES1   0.0000
    39 H10A     8.1453  15.5272  -0.4895   H         1 RES1   0.0000
    40 C15A     8.9029  16.8096   0.8620   C.ar      1 RES1   0.0000
    41 H11A     8.6303  17.6006   0.4097   H         1 RES1   0.0000
    42 C16A     9.6024  16.9041   2.0819   C.ar      1 RES1   0.0000
    43 C17A     9.9575  15.6953   2.6965   C.ar      1 RES1   0.0000
    44 C18A     9.9634  18.1321   2.7377   C.ar      1 RES1   0.0000
    45 H12A     9.7339  18.9615   2.3333   H         1 RES1   0.0000
    46 N1A     12.0022  12.9672   2.3358   N.ar      1 RES1   0.0000
    47 N2A      9.8166  11.5785   2.0324   N.ar      1 RES1   0.0000
    48 C1A     13.0782  13.7580   2.4637   C.ar      1 RES1   0.0000
    49 H1A     13.1078  14.3680   3.1914   H         1 RES1   0.0000
    50 C2A     14.1588  13.7260   1.5751   C.ar      1 RES1   0.0000
    51 H2A     14.8940  14.3152   1.6961   H         1 RES1   0.0000
    52 C3A     14.1525  12.8374   0.5281   C.ar      1 RES1   0.0000
    53 H3A     14.8750  12.8214  -0.0891   H         1 RES1   0.0000
    54 C4A     13.0683  11.9520   0.3765   C.ar      1 RES1   0.0000
    55 C5A     12.0005  12.0833   1.2957   C.ar      1 RES1   0.0000
    56 C6A     12.9425  10.9561  -0.6545   C.ar      1 RES1   0.0000
    57 H4A     13.6545  10.8376  -1.2718   H         1 RES1   0.0000
    58 C7A     11.8468  10.1908  -0.7649   C.ar      1 RES1   0.0000
    59 H5A     11.8024   9.5344  -1.4500   H         1 RES1   0.0000
    60 C8A     10.8234  11.3132   1.1520   C.ar      1 RES1   0.0000
    61 C9A     10.7355  10.3493   0.1357   C.ar      1 RES1   0.0000
    62 C10A     9.5369   9.6048   0.0732   C.ar      1 RES1   0.0000
    63 H6A      9.4177   8.9420  -0.5973   H         1 RES1   0.0000
    64 C11A     8.5494   9.8498   0.9871   C.ar      1 RES1   0.0000
    65 H7A      7.7519   9.3342   0.9738   H         1 RES1   0.0000
    66 C12A     8.7119  10.8505   1.9356   C.ar      1 RES1   0.0000
    67 H8A      7.9995  11.0218   2.5408   H         1 RES1   0.0000
    68 S1      14.3164  13.9389   9.8440   S.o2      2 RES2   0.0000
    69 S2      16.6154  15.4138  10.4492   S.o2      2 RES2   0.0000
    70 N4      15.7240  14.1195  10.5412   N.2       2 RES2  -1.0000
    71 O1      13.5228  13.0835  10.6488   O.2       2 RES2   0.0000
    72 O2      13.7205  15.1120   9.2867   O.2       2 RES2   0.0000
    73 O3      16.4819  16.2014   9.2617   O.2       2 RES2   0.0000
    74 O4      17.9348  15.0773  10.9030   O.2       2 RES2   0.0000
    75 F1      15.4099  11.8223   8.7598   F         2 RES2   0.0000
    76 F2      15.4932  13.5720   7.5390   F         2 RES2   0.0000
    77 F3      13.6369  12.5295   7.7678   F         2 RES2   0.0000
    78 F4      16.0027  15.8476  12.9514   F         2 RES2   0.0000
    79 F5      16.6974  17.5690  11.8656   F         2 RES2   0.0000
    80 F6      14.6961  16.8272  11.5474   F         2 RES2   0.0000
    81 C19     14.7437  12.9014   8.4007   C.3       2 RES2   0.0000
    82 C20     15.9528  16.4702  11.7810   C.3       2 RES2   0.0000
    83 O5      10.0986   8.2615   9.9771   O.3       3 RES3   0.0000
    84 H13      9.4162   7.7236   9.8707   H         3 RES3   0.0000
    85 H13A    10.7811   7.7236  10.0835   H         3 RES3   0.0000
@<TRIPOS>BOND
     1     1     2    1
     2     2     5   ar
     3     3     1    1
     4     4     1    1
     5     5     6    1
     6     7     5   ar
     7     8     7    1
     8     9     7   ar
     9    10     9    1
    10    11     9   ar
    11    12     2   ar
    12    13    11   ar
    13    14    13    1
    14    15    13   ar
    15    16    15    1
    16    17     3   ar
    17    18    15   ar
    18    19    18   ar
    19    20    19    1
    20    21    19   ar
    21    22    21    1
    22    23     3   ar
    23    24    23    1
    24    25     4   ar
    25    26    25    1
    26    27    25   ar
    27    28    27    1
    28    29    27   ar
    29    30    29    1
    30    31    29   ar
    31    32     4   ar
    32    33    31   ar
    33    34    33    1
    34    35     1    1
    35    36    35   ar
    36    37    36    1
    37    38    36   ar
    38    39    38    1
    39    40    38   ar
    40    41    40    1
    41    42    40   ar
    42    43    32   ar
    43    44    33   ar
    44    45    44    1
    45    46     1    1
    46    47     1    1
    47    48    46   ar
    48    49    48    1
    49    50    48   ar
    50    51    50    1
    51    52    50   ar
    52    53    52    1
    53    54    52   ar
    54    55    46   ar
    55    56    54   ar
    56    57    56    1
    57    58    56   ar
    58    59    58    1
    59    60    47   ar
    60    61    58   ar
    61    62    61   ar
    62    63    62    1
    63    64    62   ar
    64    65    64    1
    65    66    47   ar
    66    67    66    1
    67    11    12   ar
    68    12    17   ar
    69    17    18   ar
    70    21    23   ar
    71    31    32   ar
    72    35    43   ar
    73    42    43   ar
    74    42    44   ar
    75    54    55   ar
    76    55    60   ar
    77    60    61   ar
    78    64    66   ar
    79    68    70    1
    80    69    70    1
    81    71    68    2
    82    72    68    2
    83    73    69    2
    84    74    69    2
    85    75    81    1
    86    76    81    1
    87    77    81    1
    88    78    82    1
    89    79    82    1
    90    80    82    1
    91    81    68    1
    92    82    69    1
    93    83    84    1
    94    85    83    1
@<TRIPOS>SUBSTRUCTURE
     1 RES1        1 GROUP             0 ****  ****    0  
     2 RES2       68 GROUP             0 ****  ****    0  
     3 RES3       83 GROUP             0 ****  ****    0  
@<TRIPOS>CRYSIN
   20.7745   16.0107   13.3084   90.0000   91.6570   90.0000    15     1
