@<TRIPOS>MOLECULE
NOVVAX
   116   125     4     0     0
SMALL
USER_CHARGES
****
Generated from the CSD

@<TRIPOS>ATOM
     1 Br1      0.6105   4.4420   5.2329   Br        1 RES1  -1.0000
     2 Br2      9.0745   0.3499   2.0697   Br        2 RES2  -1.0000
     3 Fe1      7.3342   7.4128   4.4835   Fe        3 RES3   2.0000
     4 C1       5.9465   6.7217   3.2777   C.ar      3 RES3   0.0000
     5 C2       4.5980   6.9106   3.6277   C.ar      3 RES3   0.0000
     6 N1       3.8046   6.3771   2.6541   N.ar      3 RES3   0.0000
     7 C3       2.3116   6.3927   2.5197   C.3       3 RES3   0.0000
     8 N2       4.5247   5.8085   1.6852   N.ar      3 RES3   0.0000
     9 N3       5.8020   6.0246   2.1047   N.ar      3 RES3   0.0000
    10 H1       1.9673   7.2228   2.8584   H         3 RES3   0.0000
    11 H2       2.0716   6.3026   1.5935   H         3 RES3   0.0000
    12 H3       1.9369   5.6636   3.0187   H         3 RES3   0.0000
    13 C4       5.6805   7.9037   5.5331   C.ar      3 RES3   0.0000
    14 C5       4.4673   7.6252   4.8748   C.ar      3 RES3   0.0000
    15 N4       3.4399   8.1724   5.5864   N.ar      3 RES3   0.0000
    16 C6       1.9608   8.0867   5.3499   C.3       3 RES3   0.0000
    17 N5       3.8734   8.8306   6.6596   N.ar      3 RES3   0.0000
    18 N6       5.2218   8.6573   6.5831   N.ar      3 RES3   0.0000
    19 H4       1.7416   7.2227   4.9950   H         3 RES3   0.0000
    20 H5       1.4954   8.2181   6.1808   H         3 RES3   0.0000
    21 H6       1.6962   8.7664   4.7259   H         3 RES3   0.0000
    22 C7       7.4394   5.5963   5.2340   C.ar      3 RES3   0.0000
    23 C8       8.3957   4.7181   4.6916   C.ar      3 RES3   0.0000
    24 N7       8.3063   3.5147   5.3314   N.ar      3 RES3   0.0000
    25 C9       9.1548   2.2841   5.1784   C.3       3 RES3   0.0000
    26 N8       7.3316   3.5050   6.2377   N.ar      3 RES3   0.0000
    27 N9       6.8271   4.7667   6.1381   N.ar      3 RES3   0.0000
    28 H7      10.0621   2.5409   5.0036   H         3 RES3   0.0000
    29 H8       9.1169   1.7685   5.9873   H         3 RES3   0.0000
    30 H9       8.8237   1.7570   4.4474   H         3 RES3   0.0000
    31 C10      8.8934   6.6847   3.4747   C.ar      3 RES3   0.0000
    32 C11      9.2488   5.3431   3.7134   C.ar      3 RES3   0.0000
    33 N10     10.3657   5.0432   2.9902   N.ar      3 RES3   0.0000
    34 C12     11.0858   3.7347   2.8396   C.3       3 RES3   0.0000
    35 N11     10.8152   6.0967   2.3110   N.ar      3 RES3   0.0000
    36 N12      9.9139   7.0625   2.6402   N.ar      3 RES3   0.0000
    37 H10     10.4478   3.0169   2.8450   H         3 RES3   0.0000
    38 H11     11.5658   3.7286   2.0076   H         3 RES3   0.0000
    39 H12     11.7016   3.6221   3.5658   H         3 RES3   0.0000
    40 C13      6.8271   5.4892   1.2123   C.ar      3 RES3   0.0000
    41 C14      7.2651   6.2700   0.1507   C.ar      3 RES3   0.0000
    42 C15      8.2100   5.7890  -0.7510   C.ar      3 RES3   0.0000
    43 C16      8.7260   4.5097  -0.5841   C.ar      3 RES3   0.0000
    44 C17      9.7809   3.9801  -1.5670   C.3       3 RES3   0.0000
    45 C18      8.2673   3.7289   0.4682   C.ar      3 RES3   0.0000
    46 C19      7.3110   4.1943   1.3653   C.ar      3 RES3   0.0000
    47 H13      6.9118   7.1551   0.0366   H         3 RES3   0.0000
    48 H14      8.5022   6.3373  -1.4820   H         3 RES3   0.0000
    49 H15      9.8639   4.5881  -2.3053   H         3 RES3   0.0000
    50 H16     10.6266   3.9042  -1.1187   H         3 RES3   0.0000
    51 H17      9.5117   3.1178  -1.8909   H         3 RES3   0.0000
    52 H18      8.6192   2.8424   0.5819   H         3 RES3   0.0000
    53 H19      6.9909   3.6331   2.0744   H         3 RES3   0.0000
    54 C20      5.9809   9.3952   7.5822   C.ar      3 RES3   0.0000
    55 C21      5.9419  10.7836   7.5822   C.ar      3 RES3   0.0000
    56 C22      6.6689  11.5196   8.5117   C.ar      3 RES3   0.0000
    57 C23      7.4394  10.8556   9.4598   C.ar      3 RES3   0.0000
    58 C24      8.2329  11.6637  10.4982   C.3       3 RES3   0.0000
    59 C25      7.4876   9.4673   9.4389   C.ar      3 RES3   0.0000
    60 C26      6.7790   8.7235   8.5001   C.ar      3 RES3   0.0000
    61 H20      5.4071  11.2424   6.9307   H         3 RES3   0.0000
    62 H21      6.6380  12.4781   8.4999   H         3 RES3   0.0000
    63 H22      8.2023  12.5950  10.2693   H         3 RES3   0.0000
    64 H23      7.8445  11.5340  11.3665   H         3 RES3   0.0000
    65 H24      9.1447  11.3650  10.5071   H         3 RES3   0.0000
    66 H25      8.0243   9.0078  10.0881   H         3 RES3   0.0000
    67 H26      6.8378   7.7659   8.4899   H         3 RES3   0.0000
    68 C27      5.7906   5.0413   7.1186   C.ar      3 RES3   0.0000
    69 C28      6.1850   5.2925   8.4259   C.ar      3 RES3   0.0000
    70 C29      5.2539   5.6040   9.4088   C.ar      3 RES3   0.0000
    71 C30      3.9055   5.6702   9.0796   C.ar      3 RES3   0.0000
    72 C31      2.8712   6.0285  10.1575   C.3       3 RES3   0.0000
    73 C32      3.5156   5.3957   7.7723   C.ar      3 RES3   0.0000
    74 C33      4.4398   5.0666   6.7871   C.ar      3 RES3   0.0000
    75 H27      7.1173   5.2527   8.6544   H         3 RES3   0.0000
    76 H28      5.5383   5.7736  10.3097   H         3 RES3   0.0000
    77 H29      3.2973   6.0343  11.0178   H         3 RES3   0.0000
    78 H30      2.5066   6.8965   9.9743   H         3 RES3   0.0000
    79 H31      2.1665   5.3768  10.1539   H         3 RES3   0.0000
    80 H32      2.5844   5.4342   7.5444   H         3 RES3   0.0000
    81 H33      4.1515   4.8616   5.8950   H         3 RES3   0.0000
    82 C34     10.2464   8.3632   2.1928   C.ar      3 RES3   0.0000
    83 C35      9.5974   8.9922   1.1358   C.ar      3 RES3   0.0000
    84 C36      9.8520  10.3241   0.8322   C.ar      3 RES3   0.0000
    85 C37     10.7624  11.0426   1.5994   C.ar      3 RES3   0.0000
    86 C38     11.0353  12.5185   1.2772   C.3       3 RES3   0.0000
    87 C39     11.4206  10.4000   2.6425   C.ar      3 RES3   0.0000
    88 C40     11.1844   9.0623   2.9415   C.ar      3 RES3   0.0000
    89 H34      8.9668   8.4988   0.6073   H         3 RES3   0.0000
    90 H35      9.4025  10.7467   0.0961   H         3 RES3   0.0000
    91 H36     10.6150  12.7467   0.4441   H         3 RES3   0.0000
    92 H37     10.6799  13.0696   1.9768   H         3 RES3   0.0000
    93 H38     11.9823  12.6608   1.2060   H         3 RES3   0.0000
    94 H39     12.0528  10.8918   3.1689   H         3 RES3   0.0000
    95 H40     11.6616   8.6300   3.6543   H         3 RES3   0.0000
    96 N13      8.5838   8.3048   5.7672   N.ar      3 RES3   0.0000
    97 C41      9.4552   7.6350   6.6156   C.ar      3 RES3   0.0000
    98 C42     10.3038   8.3554   7.4501   C.ar      3 RES3   0.0000
    99 C43     10.4391   9.7087   7.2832   C.ar      3 RES3   0.0000
   100 C44      9.7304  10.3513   6.3026   C.ar      3 RES3   0.0000
   101 C45      8.8819   9.6289   5.4705   C.ar      3 RES3   0.0000
   102 H41      9.4696   6.6757   6.6288   H         3 RES3   0.0000
   103 H42     10.7939   7.9044   8.1403   H         3 RES3   0.0000
   104 H43     11.0327  10.2055   7.8509   H         3 RES3   0.0000
   105 H44      9.8174  11.3013   6.1903   H         3 RES3   0.0000
   106 N14      7.2606   9.2765   3.7760   N.ar      3 RES3   0.0000
   107 C46      8.1274  10.1955   4.3509   C.ar      3 RES3   0.0000
   108 C47      7.9967  11.5488   4.0635   C.ar      3 RES3   0.0000
   109 C48      7.1619  11.9578   3.0551   C.ar      3 RES3   0.0000
   110 C49      6.4510  11.0289   2.3412   C.ar      3 RES3   0.0000
   111 C50      6.5840   9.6776   2.6309   C.ar      3 RES3   0.0000
   112 H45      8.4902  12.1979   4.5709   H         3 RES3   0.0000
   113 H46      7.0776  12.8907   2.8504   H         3 RES3   0.0000
   114 H47      5.8584  11.3142   1.6406   H         3 RES3   0.0000
   115 O1      11.3059   1.3046  -0.6908   O.3       4 RES4   0.0000
   116 C51     11.4435   1.5578   0.1159   C.2       4 RES4   0.0000
@<TRIPOS>BOND
     1     3     4    1
     2     4     5   ar
     3     5     6   ar
     4     6     7    1
     5     7    10    1
     6     8     6   ar
     7     9     4   ar
     8    11     7    1
     9    12     7    1
    10    13     3    1
    11    14     5    1
    12    15    14   ar
    13    16    15    1
    14    17    15   ar
    15    18    13   ar
    16    19    16    1
    17    20    16    1
    18    21    16    1
    19    22     3    1
    20    23    22   ar
    21    24    23   ar
    22    25    24    1
    23    26    24   ar
    24    27    22   ar
    25    28    25    1
    26    29    25    1
    27    30    25    1
    28    31     3    1
    29    32    23    1
    30    33    32   ar
    31    34    33    1
    32    35    33   ar
    33    36    31   ar
    34    37    34    1
    35    38    34    1
    36    39    34    1
    37    40     9    1
    38    41    40   ar
    39    42    41   ar
    40    43    42   ar
    41    44    43    1
    42    45    43   ar
    43    46    40   ar
    44    47    41    1
    45    48    42    1
    46    49    44    1
    47    50    44    1
    48    51    44    1
    49    52    45    1
    50    53    46    1
    51    54    18    1
    52    55    54   ar
    53    56    55   ar
    54    57    56   ar
    55    58    57    1
    56    59    57   ar
    57    60    54   ar
    58    61    55    1
    59    62    56    1
    60    63    58    1
    61    64    58    1
    62    65    58    1
    63    66    59    1
    64    67    60    1
    65    68    27    1
    66    69    68   ar
    67    70    69   ar
    68    71    70   ar
    69    72    71    1
    70    73    71   ar
    71    74    68   ar
    72    75    69    1
    73    76    70    1
    74    77    72    1
    75    78    72    1
    76    79    72    1
    77    80    73    1
    78    81    74    1
    79    82    36    1
    80    83    82   ar
    81    84    83   ar
    82    85    84   ar
    83    86    85    1
    84    87    85   ar
    85    88    82   ar
    86    89    83    1
    87    90    84    1
    88    91    86    1
    89    92    86    1
    90    93    86    1
    91    94    87    1
    92    95    88    1
    93    96     3    1
    94    97    96   ar
    95    98    97   ar
    96    99    98   ar
    97   100    99   ar
    98   101    96   ar
    99   102    97    1
   100   103    98    1
   101   104    99    1
   102   105   100    1
   103   106     3    1
   104   107   101    1
   105   108   107   ar
   106   109   108   ar
   107   110   109   ar
   108   111   106   ar
   109   112   108    1
   110   113   109    1
   111   114   110    1
   112     8     9   ar
   113    13    14   ar
   114    17    18   ar
   115    26    27   ar
   116    31    32   ar
   117    35    36   ar
   118    45    46   ar
   119    59    60   ar
   120    73    74   ar
   121    87    88   ar
   122   100   101   ar
   123   106   107   ar
   124   110   111   ar
   125   115   116    1
@<TRIPOS>SUBSTRUCTURE
     1 RES1        1 GROUP             0 ****  ****    0  
     2 RES2        2 GROUP             0 ****  ****    0  
     3 RES3        3 GROUP             0 ****  ****    0  
     4 RES4      115 GROUP             0 ****  ****    0  
@<TRIPOS>CRYSIN
   22.9329   19.4720   23.1800   90.0000   90.0000   90.0000    61     1
