@<TRIPOS>MOLECULE
NOWBIK01
    77    84     1     0     0
SMALL
NO_CHARGES
****
Generated from the CSD

@<TRIPOS>ATOM
     1 Fe1      8.2667   4.2285   4.9573   Fe        1 RES1   0.0000
     2 S1       5.6873   1.0983   7.4015   S.2       1 RES1   0.0000
     3 S2       5.2267   7.3311   3.2304   S.2       1 RES1   0.0000
     4 N1       9.7935   2.7836   5.4915   N.2       1 RES1   0.0000
     5 N2       8.6940   3.1827   2.9767   N.ar      1 RES1   0.0000
     6 N3       8.5093   5.2583   6.9866   N.ar      1 RES1   0.0000
     7 N4       9.9622   5.5569   4.6751   N.2       1 RES1   0.0000
     8 N5       6.9075   3.0152   5.8140   N.2       1 RES1   0.0000
     9 N6       7.0743   5.5409   3.9729   N.2       1 RES1   0.0000
    10 C1      10.9184   5.8366   0.8971   C.ar      1 RES1   0.0000
    11 C2      12.0222   2.8782   8.4867   C.ar      1 RES1   0.0000
    12 C3      10.2086   5.7987   2.1082   C.ar      1 RES1   0.0000
    13 C4      11.5581   2.9380   7.1159   C.ar      1 RES1   0.0000
    14 C5      12.2074   2.2417  12.2362   C.1       1 RES1   0.0000
    15 C6      10.7405   5.6181   3.4404   C.ar      1 RES1   0.0000
    16 C7      12.1963   5.6938   0.9827   C.ar      1 RES1   0.0000
    17 C8      12.6864   2.0436  13.6825   C.ar      1 RES1   0.0000
    18 C9       9.7281   2.4194   2.9969   C.ar      1 RES1   0.0000
    19 C10     10.3117   2.6350   6.8757   C.ar      1 RES1   0.0000
    20 C11     10.3092   2.2038   4.4046   C.2       1 RES1   0.0000
    21 C12     11.7992   2.3728  11.0536   C.1       1 RES1   0.0000
    22 C13     11.2682   2.5054   9.6458   C.ar      1 RES1   0.0000
    23 C14     12.0184   5.4564   3.5244   C.ar      1 RES1   0.0000
    24 C15     12.7382   5.4841   2.2997   C.ar      1 RES1   0.0000
    25 C16      6.2959   6.2954   3.6638   C.1       1 RES1   0.0000
    26 C17     12.9571   5.7798  -0.3998   C.1       1 RES1   0.0000
    27 C18      6.3987   2.1980   6.4927   C.1       1 RES1   0.0000
    28 C19     10.3227   6.1498   5.8124   C.2       1 RES1   0.0000
    29 C20     10.2064   1.8411   1.7874   C.ar      1 RES1   0.0000
    30 C21      9.5803   2.2781   8.0197   C.ar      1 RES1   0.0000
    31 C22      9.5955   2.0655   0.5040   C.ar      1 RES1   0.0000
    32 C23      9.1495   6.4819   9.5517   C.ar      1 RES1   0.0000
    33 C24     12.4079   2.0101  16.2057   C.ar      1 RES1   0.0000
    34 C25     13.5546   5.8570  -1.4648   C.1       1 RES1   0.0000
    35 C26     14.1657   5.9997  -2.7634   C.ar      1 RES1   0.0000
    36 C27     11.9322   2.2504  14.8769   C.ar      1 RES1   0.0000
    37 C28      9.8858   6.6130   8.3725   C.ar      1 RES1   0.0000
    38 C29     10.0416   2.2082   9.3854   C.ar      1 RES1   0.0000
    39 C30      8.0826   5.7681   9.4409   C.ar      1 RES1   0.0000
    40 C31      8.5626   2.7836   0.4888   C.ar      1 RES1   0.0000
    41 C32     13.9213   1.6430  13.8741   C.ar      1 RES1   0.0000
    42 C33      9.5378   6.0041   7.1159   C.ar      1 RES1   0.0000
    43 C34     13.5164   5.6691  -4.0317   C.ar      1 RES1   0.0000
    44 C35      8.1203   3.3298   1.7303   C.ar      1 RES1   0.0000
    45 C36     14.1225   5.8614  -5.3840   C.ar      1 RES1   0.0000
    46 C37     15.3498   6.5532  -2.8020   C.ar      1 RES1   0.0000
    47 C38     15.3031   6.4105  -5.4159   C.ar      1 RES1   0.0000
    48 C39     13.5866   1.5804  16.3636   C.ar      1 RES1   0.0000
    49 C40     14.3611   1.4275  15.2314   C.ar      1 RES1   0.0000
    50 C41      7.8091   5.1564   8.1625   C.ar      1 RES1   0.0000
    51 C42     15.9205   6.7441  -4.1661   C.ar      1 RES1   0.0000
    52 H1      13.9028   5.7201  -6.4322   H         1 RES1   0.0000
    53 H2      16.8119   7.1111  -4.2585   H         1 RES1   0.0000
    54 H3      15.8465   6.7761  -1.8815   H         1 RES1   0.0000
    55 H4      12.6634   5.2598  -3.9863   H         1 RES1   0.0000
    56 H5       9.2424   5.9182   2.0444   H         1 RES1   0.0000
    57 H6      15.7282   6.5824  -6.3516   H         1 RES1   0.0000
    58 H7      12.4209   5.3603   4.5441   H         1 RES1   0.0000
    59 H8      13.6792   5.3035   2.3686   H         1 RES1   0.0000
    60 H9      10.7189   7.1738   8.4414   H         1 RES1   0.0000
    61 H10      9.3470   6.9057  10.5445   H         1 RES1   0.0000
    62 H11      7.5008   5.6749  10.3228   H         1 RES1   0.0000
    63 H12      6.9602   4.5927   8.1289   H         1 RES1   0.0000
    64 H13     15.2933   1.1332  15.3775   H         1 RES1   0.0000
    65 H14     14.5170   1.5848  12.9333   H         1 RES1   0.0000
    66 H15     10.9520   2.5491  14.7190   H         1 RES1   0.0000
    67 H16     11.8536   2.1412  17.1296   H         1 RES1   0.0000
    68 H17     13.9116   1.2235  17.3682   H         1 RES1   0.0000
    69 H18      9.4699   1.9533  10.2539   H         1 RES1   0.0000
    70 H19      8.6647   2.0290   7.8248   H         1 RES1   0.0000
    71 H20     12.1363   3.1958   6.2424   H         1 RES1   0.0000
    72 H21     12.9495   3.1215   8.6681   H         1 RES1   0.0000
    73 H22     11.0180   1.2702   1.8479   H         1 RES1   0.0000
    74 H23     10.0012   1.6693  -0.4804   H         1 RES1   0.0000
    75 H24      8.0875   2.8826  -0.4855   H         1 RES1   0.0000
    76 H25      7.3034   3.8687   1.6816   H         1 RES1   0.0000
    77 H26     10.4982   6.0245  -0.1126   H         1 RES1   0.0000
@<TRIPOS>BOND
     1     1     4    1
     2     2    27    2
     3     3    25    2
     4     4    19    1
     5     5     1    1
     6     6     1    1
     7     7     1    1
     8     8     1    1
     9     9     1    1
    10    10    12   ar
    11    11    13   ar
    12    12    15   ar
    13    13    19   ar
    14    14    17    1
    15    15     7    1
    16    16    10   ar
    17    17    36   ar
    18    18     5   ar
    19    19    30   ar
    20    20     4    2
    21    21    14    3
    22    22    11   ar
    23    23    15   ar
    24    24    16   ar
    25    25     9    2
    26    26    16    1
    27    27     8    2
    28    28     7    2
    29    29    18   ar
    30    30    38   ar
    31    31    29   ar
    32    32    37   ar
    33    33    36   ar
    34    34    26    3
    35    35    34    1
    36    36    66    1
    37    37    42   ar
    38    38    22   ar
    39    39    32   ar
    40    40    31   ar
    41    41    17   ar
    42    42     6   ar
    43    43    35   ar
    44    44     5   ar
    45    45    43   ar
    46    46    35   ar
    47    47    45   ar
    48    48    33   ar
    49    49    41   ar
    50    50     6   ar
    51    51    46   ar
    52    52    45    1
    53    53    51    1
    54    54    46    1
    55    55    43    1
    56    56    12    1
    57    57    47    1
    58    58    23    1
    59    59    24    1
    60    60    37    1
    61    61    32    1
    62    62    39    1
    63    63    50    1
    64    64    49    1
    65    65    41    1
    66    67    33    1
    67    68    48    1
    68    69    38    1
    69    70    30    1
    70    71    13    1
    71    72    11    1
    72    73    29    1
    73    74    31    1
    74    75    40    1
    75    76    44    1
    76    77    10    1
    77    18    20    1
    78    21    22    1
    79    23    24   ar
    80    28    42    1
    81    39    50   ar
    82    40    44   ar
    83    47    51   ar
    84    48    49   ar
@<TRIPOS>SUBSTRUCTURE
     1 RES1        1 GROUP             0 ****  ****    0  
@<TRIPOS>CRYSIN
   15.6370   14.5660   16.8210   90.0000   92.9500   90.0000    14     2
