@<TRIPOS>MOLECULE
NOWBIK04
    79    86     1     0     0
SMALL
NO_CHARGES
****
Generated from the CSD

@<TRIPOS>ATOM
     1 C1      14.1706   2.6228   3.0459   C.ar      1 RES1   0.0000
     2 C2      14.3390   2.9477   4.3849   C.ar      1 RES1   0.0000
     3 H1      13.6064   3.1960   4.9010   H         1 RES1   0.0000
     4 C3      15.6035   2.9008   4.9494   C.ar      1 RES1   0.0000
     5 H2      15.7163   3.1336   5.8427   H         1 RES1   0.0000
     6 C4      16.7121   2.5094   4.1934   C.ar      1 RES1   0.0000
     7 C5      15.2698   2.2650   2.2690   C.ar      1 RES1   0.0000
     8 H3      15.1596   2.0706   1.3668   H         1 RES1   0.0000
     9 C6      16.5281   2.1983   2.8450   C.ar      1 RES1   0.0000
    10 H4      17.2575   1.9457   2.3284   H         1 RES1   0.0000
    11 C7      11.8742   2.1664   2.9086   C.2       1 RES1   0.0000
    12 H5      11.9480   1.6477   3.6770   H         1 RES1   0.0000
    13 C8       9.5070   3.2400   0.4106   C.ar      1 RES1   0.0000
    14 H6       9.5330   3.7396  -0.3737   H         1 RES1   0.0000
    15 C9      10.5820   2.3388   2.2376   C.ar      1 RES1   0.0000
    16 C10      8.2945   2.6624   0.7914   C.ar      1 RES1   0.0000
    17 H7       7.5323   2.7731   0.2691   H         1 RES1   0.0000
    18 C11      9.4159   1.7513   2.6852   C.ar      1 RES1   0.0000
    19 H8       9.4117   1.2446   3.4644   H         1 RES1   0.0000
    20 C12      8.2485   1.9287   1.9521   C.ar      1 RES1   0.0000
    21 H9       7.4475   1.5540   2.2421   H         1 RES1   0.0000
    22 C13     11.3700   6.1877  -1.3795   C.1       1 RES1   0.0000
    23 C14     13.9182   2.1586  -1.1114   C.1       1 RES1   0.0000
    24 C15     14.3559   5.9229   2.2409   C.ar      1 RES1   0.0000
    25 C16     13.0972   6.0393   2.9833   C.2       1 RES1   0.0000
    26 H10     13.0519   6.5439   3.7634   H         1 RES1   0.0000
    27 C17     15.3947   5.0566   0.3836   C.ar      1 RES1   0.0000
    28 H11     15.3601   4.5585  -0.4019   H         1 RES1   0.0000
    29 C18     15.5279   6.5312   2.6658   C.ar      1 RES1   0.0000
    30 H12     15.5439   7.0321   3.4495   H         1 RES1   0.0000
    31 C19     16.5962   5.6527   0.7391   C.ar      1 RES1   0.0000
    32 H13     17.3435   5.5604   0.1943   H         1 RES1   0.0000
    33 C20     16.6781   6.3793   1.8983   C.ar      1 RES1   0.0000
    34 H14     17.4830   6.7611   2.1657   H         1 RES1   0.0000
    35 C21     10.8548   5.4875   3.3070   C.ar      1 RES1   0.0000
    36 C22     10.8815   5.3336   4.6928   C.ar      1 RES1   0.0000
    37 H15     11.6914   5.2113   5.1319   H         1 RES1   0.0000
    38 C23      9.6418   5.6522   2.6423   C.ar      1 RES1   0.0000
    39 H16      9.6251   5.7407   1.7173   H         1 RES1   0.0000
    40 C24      9.6996   5.3617   5.4129   C.ar      1 RES1   0.0000
    41 H17      9.7221   5.2667   6.3376   H         1 RES1   0.0000
    42 C25      8.4692   5.5339   4.7610   C.ar      1 RES1   0.0000
    43 C26      8.4574   5.6832   3.3673   C.ar      1 RES1   0.0000
    44 H18      7.6494   5.8045   2.9247   H         1 RES1   0.0000
    45 C27      7.2325   5.5868   5.4880   C.1       1 RES1   0.0000
    46 C28      6.1695   5.6777   6.0425   C.1       1 RES1   0.0000
    47 C29      4.8609   5.8426   6.6268   C.ar      1 RES1   0.0000
    48 C30      2.4553   5.7520   6.3783   C.ar      1 RES1   0.0000
    49 H19      1.7073   5.5547   5.8626   H         1 RES1   0.0000
    50 C31      3.7289   5.5462   5.8603   C.ar      1 RES1   0.0000
    51 H20      3.8284   5.2085   4.9990   H         1 RES1   0.0000
    52 C32      4.6993   6.3481   7.9260   C.ar      1 RES1   0.0000
    53 H21      5.4445   6.5468   8.4452   H         1 RES1   0.0000
    54 C33      2.3000   6.2516   7.6601   C.ar      1 RES1   0.0000
    55 H22      1.4468   6.3892   8.0051   H         1 RES1   0.0000
    56 C34      3.4198   6.5482   8.4327   C.ar      1 RES1   0.0000
    57 H23      3.3117   6.8831   9.2939   H         1 RES1   0.0000
    58 C35     19.0859   2.2310   5.3169   C.1       1 RES1   0.0000
    59 C36     18.0087   2.3843   4.8085   C.1       1 RES1   0.0000
    60 C37     20.3753   2.0280   5.9170   C.ar      1 RES1   0.0000
    61 C38     20.4788   1.6605   7.2650   C.ar      1 RES1   0.0000
    62 H24     19.7133   1.5881   7.7875   H         1 RES1   0.0000
    63 C39     21.5422   2.1813   5.1588   C.ar      1 RES1   0.0000
    64 H25     21.4867   2.4552   4.2716   H         1 RES1   0.0000
    65 C40     21.7263   1.4036   7.8209   C.ar      1 RES1   0.0000
    66 H26     21.7943   1.1552   8.7142   H         1 RES1   0.0000
    67 C41     22.7833   1.9259   5.7309   C.ar      1 RES1   0.0000
    68 H27     23.5567   2.0309   5.2266   H         1 RES1   0.0000
    69 C42     22.8704   1.5171   7.0436   C.ar      1 RES1   0.0000
    70 H28     23.7001   1.3156   7.4105   H         1 RES1   0.0000
    71 Fe1     12.4433   4.1502   0.8264   Fe        1 RES1   0.0000
    72 S1      14.8510   1.0398  -1.8684   S.2       1 RES1   0.0000
    73 S2      11.0039   7.2535  -2.5626   S.2       1 RES1   0.0000
    74 N1      10.6340   3.1107   1.1199   N.ar      1 RES1   0.0000
    75 N2      14.2805   5.1662   1.1252   N.ar      1 RES1   0.0000
    76 N3      12.0640   5.4350   2.5380   N.2       1 RES1   0.0000
    77 N4      12.8925   2.7446   2.4102   N.2       1 RES1   0.0000
    78 N5      13.2664   2.9429  -0.5861   N.2       1 RES1   0.0000
    79 N6      11.6204   5.4426  -0.5250   N.2       1 RES1   0.0000
@<TRIPOS>BOND
     1     1     2   ar
     2     2     3    1
     3     4     2   ar
     4     5     4    1
     5     6     4   ar
     6     7     1   ar
     7     8     7    1
     8     9     6   ar
     9    10     9    1
    10    11    12    1
    11    13    14    1
    12    15    11    1
    13    16    13   ar
    14    17    16    1
    15    18    15   ar
    16    19    18    1
    17    20    16   ar
    18    21    20    1
    19    22    73    2
    20    23    72    2
    21    24    25    1
    22    25    26    1
    23    27    28    1
    24    29    24   ar
    25    30    29    1
    26    31    27   ar
    27    32    31    1
    28    33    29   ar
    29    34    33    1
    30    35    36   ar
    31    36    37    1
    32    38    35   ar
    33    39    38    1
    34    40    36   ar
    35    41    40    1
    36    42    40   ar
    37    43    38   ar
    38    44    43    1
    39    45    42    1
    40    46    45    3
    41    47    46    1
    42    48    49    1
    43    50    47   ar
    44    51    50    1
    45    52    47   ar
    46    53    52    1
    47    54    48   ar
    48    55    54    1
    49    56    52   ar
    50    57    56    1
    51    58    59    3
    52    59     6    1
    53    60    58    1
    54    61    60   ar
    55    62    61    1
    56    63    60   ar
    57    64    63    1
    58    65    61   ar
    59    66    65    1
    60    67    63   ar
    61    68    67    1
    62    69    65   ar
    63    70    69    1
    64    71    74    1
    65    74    13   ar
    66    75    24   ar
    67    76    25    2
    68    77     1    1
    69    78    23    2
    70    79    22    2
    71     7     9   ar
    72    11    77    2
    73    15    74   ar
    74    18    20   ar
    75    27    75   ar
    76    31    33   ar
    77    35    76    1
    78    42    43   ar
    79    48    50   ar
    80    54    56   ar
    81    67    69   ar
    82    71    75    1
    83    71    76    1
    84    71    77    1
    85    71    78    1
    86    71    79    1
@<TRIPOS>SUBSTRUCTURE
     1 RES1        1 GROUP             0 ****  ****    0  
@<TRIPOS>CRYSIN
   15.6811   14.1920   16.6338   90.0000   93.1880   90.0000    14     1
