@<TRIPOS>MOLECULE
NOWBIK
    77    84     1     0     0
SMALL
NO_CHARGES
****
Generated from the CSD

@<TRIPOS>ATOM
     1 Fe1      3.5728   3.5893   7.8654   Fe        1 RES1   0.0000
     2 S1       0.2501   3.1614  11.1039   S.2       1 RES1   0.0000
     3 N1       4.8489   3.9309   6.4121   N.2       1 RES1   0.0000
     4 N2       4.4588   1.8564   7.7801   N.ar      1 RES1   0.0000
     5 N3       2.3037   3.0667   9.2387   N.2       1 RES1   0.0000
     6 C1       5.4634  11.2990   2.6364   C.ar      1 RES1   0.0000
     7 C2       5.5635   2.9145   5.9725   C.2       1 RES1   0.0000
     8 C3       1.4548   3.1212   9.9977   C.1       1 RES1   0.0000
     9 C4       5.3791   1.7185   6.7855   C.ar      1 RES1   0.0000
    10 C5       4.3059   0.8026   8.6019   C.ar      1 RES1   0.0000
    11 C6       4.9904  -0.4049   8.4466   C.ar      1 RES1   0.0000
    12 C7       5.4206  12.4217   3.4495   C.ar      1 RES1   0.0000
    13 C8       5.5778  13.6822   2.9086   C.ar      1 RES1   0.0000
    14 C9       5.8750  -0.5384   7.4206   C.ar      1 RES1   0.0000
    15 C10      6.0794   0.5513   6.5692   C.ar      1 RES1   0.0000
    16 C11      5.8179  13.8229   1.5738   C.ar      1 RES1   0.0000
    17 C12      5.8879  12.7332   0.7590   C.ar      1 RES1   0.0000
    18 C13      4.7703   5.2331   4.3184   C.ar      1 RES1   0.0000
    19 C14      4.9261   5.1800   5.6968   C.ar      1 RES1   0.0000
    20 C15      5.0504   7.6207   4.3794   C.ar      1 RES1   0.0000
    21 C16      5.2062   7.5647   5.7439   C.ar      1 RES1   0.0000
    22 C17      5.7050  11.4612   1.2824   C.ar      1 RES1   0.0000
    23 C18      5.1448   6.3458   6.4034   C.ar      1 RES1   0.0000
    24 C19      5.1605   8.8999   3.6903   C.1       1 RES1   0.0000
    25 C20      4.8332   6.4563   3.6658   C.ar      1 RES1   0.0000
    26 C21      5.2920   9.9824   3.2017   C.1       1 RES1   0.0000
    27 H1       5.2734  12.3470   4.4841   H         1 RES1   0.0000
    28 H2       5.4877  14.5436   3.4896   H         1 RES1   0.0000
    29 H3       5.9879  14.7877   1.1516   H         1 RES1   0.0000
    30 H4       6.1023  12.8495  -0.2617   H         1 RES1   0.0000
    31 H5       5.7450  10.6242   0.6630   H         1 RES1   0.0000
    32 H6       5.3591   8.4706   6.2638   H         1 RES1   0.0000
    33 H7       5.2734   6.3171   7.4328   H         1 RES1   0.0000
    34 H8       4.6017   4.3358   3.8037   H         1 RES1   0.0000
    35 H9       4.6874   6.4894   2.6346   H         1 RES1   0.0000
    36 H10      3.6156   0.8758   9.3870   H         1 RES1   0.0000
    37 H11      4.8446  -1.1916   9.1253   H         1 RES1   0.0000
    38 H12      6.3881  -1.4357   7.2933   H         1 RES1   0.0000
    39 H13      6.7596   0.4738   5.7753   H         1 RES1   0.0000
    40 N1A      2.2966   3.2476   6.4121   N.2       1 RES1   0.0000
    41 C2A      1.5820   4.2640   5.9725   C.2       1 RES1   0.0000
    42 C4A      1.7664   5.4600   6.7855   C.ar      1 RES1   0.0000
    43 N2A      2.6867   5.3221   7.7801   N.ar      1 RES1   0.0000
    44 N3A      4.8418   4.1118   9.2387   N.2       1 RES1   0.0000
    45 C3A      5.6907   4.0573   9.9977   C.1       1 RES1   0.0000
    46 S1A      6.8954   4.0171  11.1039   S.2       1 RES1   0.0000
    47 C5A      2.8396   6.3759   8.6019   C.ar      1 RES1   0.0000
    48 C6A      2.1551   7.5834   8.4466   C.ar      1 RES1   0.0000
    49 C9A      1.2705   7.7169   7.4206   C.ar      1 RES1   0.0000
    50 C10A     1.0661   6.6272   6.5692   C.ar      1 RES1   0.0000
    51 H13A     0.3859   6.7047   5.7753   H         1 RES1   0.0000
    52 H12A     0.7574   8.6142   7.2933   H         1 RES1   0.0000
    53 H11A     2.3009   8.3701   9.1253   H         1 RES1   0.0000
    54 H10A     3.5299   6.3027   9.3870   H         1 RES1   0.0000
    55 C14A     2.2194   1.9985   5.6968   C.ar      1 RES1   0.0000
    56 C13A     2.3752   1.9454   4.3184   C.ar      1 RES1   0.0000
    57 C20A     2.3123   0.7222   3.6658   C.ar      1 RES1   0.0000
    58 C15A     2.0951  -0.4422   4.3794   C.ar      1 RES1   0.0000
    59 C16A     1.9393  -0.3862   5.7439   C.ar      1 RES1   0.0000
    60 C18A     2.0007   0.8327   6.4034   C.ar      1 RES1   0.0000
    61 H7A      1.8721   0.8614   7.4328   H         1 RES1   0.0000
    62 H6A      1.7864  -1.2921   6.2638   H         1 RES1   0.0000
    63 C19A     1.9850  -1.7214   3.6903   C.1       1 RES1   0.0000
    64 C21A     1.8535  -2.8039   3.2017   C.1       1 RES1   0.0000
    65 C1A      1.6821  -4.1205   2.6364   C.ar      1 RES1   0.0000
    66 C7A      1.7249  -5.2432   3.4495   C.ar      1 RES1   0.0000
    67 C8A      1.5677  -6.5037   2.9086   C.ar      1 RES1   0.0000
    68 C11A     1.3276  -6.6444   1.5738   C.ar      1 RES1   0.0000
    69 C12A     1.2576  -5.5547   0.7590   C.ar      1 RES1   0.0000
    70 C17A     1.4405  -4.2827   1.2824   C.ar      1 RES1   0.0000
    71 H5A      1.4005  -3.4457   0.6630   H         1 RES1   0.0000
    72 H4A      1.0432  -5.6710  -0.2617   H         1 RES1   0.0000
    73 H3A      1.1576  -7.6092   1.1516   H         1 RES1   0.0000
    74 H2A      1.6578  -7.3651   3.4896   H         1 RES1   0.0000
    75 H1A      1.8721  -5.1685   4.4841   H         1 RES1   0.0000
    76 H9A      2.4581   0.6891   2.6346   H         1 RES1   0.0000
    77 H8A      2.5438   2.8427   3.8037   H         1 RES1   0.0000
@<TRIPOS>BOND
     1     1     3    1
     2     2     8    2
     3     3     7    2
     4     4     1    1
     5     5     1    1
     6     6    12   ar
     7     7     9    1
     8     8     5    2
     9     9     4   ar
    10    10     4   ar
    11    11    10   ar
    12    12    13   ar
    13    13    16   ar
    14    14    11   ar
    15    15     9   ar
    16    16    17   ar
    17    17    22   ar
    18    18    19   ar
    19    19     3    1
    20    20    21   ar
    21    21    23   ar
    22    22     6   ar
    23    23    19   ar
    24    24    20    1
    25    25    18   ar
    26    26     6    1
    27    27    12    1
    28    28    13    1
    29    29    16    1
    30    30    17    1
    31    31    22    1
    32    32    21    1
    33    33    23    1
    34    34    18    1
    35    35    25    1
    36    36    10    1
    37    37    11    1
    38    38    14    1
    39    39    15    1
    40    40     1    1
    41    41    40    2
    42    42    41    1
    43    43     1    1
    44    44     1    1
    45    45    44    2
    46    46    45    2
    47    47    43   ar
    48    48    47   ar
    49    49    48   ar
    50    50    42   ar
    51    51    50    1
    52    52    49    1
    53    53    48    1
    54    54    47    1
    55    55    40    1
    56    56    55   ar
    57    57    56   ar
    58    58    57   ar
    59    59    58   ar
    60    60    55   ar
    61    61    60    1
    62    62    59    1
    63    63    58    1
    64    64    63    3
    65    65    64    1
    66    66    65   ar
    67    67    66   ar
    68    68    67   ar
    69    69    68   ar
    70    70    65   ar
    71    71    70    1
    72    72    69    1
    73    73    68    1
    74    74    67    1
    75    75    66    1
    76    76    57    1
    77    77    56    1
    78    14    15   ar
    79    20    25   ar
    80    24    26    3
    81    42    43   ar
    82    49    50   ar
    83    59    60   ar
    84    69    70   ar
@<TRIPOS>SUBSTRUCTURE
     1 RES1        1 GROUP             0 ****  ****    0  
@<TRIPOS>CRYSIN
   14.2910   14.3570   17.4480   90.0000   90.0000   90.0000    56     1
