@<TRIPOS>MOLECULE
NOYJEQ
    81    86     5     0     0
SMALL
USER_CHARGES
****
Generated from the CSD

@<TRIPOS>ATOM
     1 Fe1     15.1885   8.3569   6.0127   Fe        1 RES1   2.0000
     2 N1      14.7745   6.8561   4.7674   N.ar      1 RES1   0.0000
     3 N2      16.1910   7.7414   3.1383   N.pl3     1 RES1   0.0000
     4 N3      17.0068   8.4695   5.2352   N.ar      1 RES1   0.0000
     5 N4      17.8919   9.2176   7.3020   N.pl3     1 RES1   0.0000
     6 N5      15.6316   9.8476   7.2641   N.ar      1 RES1   0.0000
     7 N6      14.5108   9.7160   4.7055   N.ar      1 RES1   0.0000
     8 N7      12.3959   8.7092   4.6795   N.pl3     1 RES1   0.0000
     9 N8      13.3570   8.2175   6.7883   N.ar      1 RES1   0.0000
    10 N9      14.2384   7.7258   8.9272   N.pl3     1 RES1   0.0000
    11 N10     15.8423   7.0222   7.3580   N.ar      1 RES1   0.0000
    12 C1      13.9134   5.8682   5.1272   C.ar      1 RES1   0.0000
    13 C2      13.3389   5.0018   4.2277   C.ar      1 RES1   0.0000
    14 C3      13.6559   5.1312   2.8784   C.ar      1 RES1   0.0000
    15 C4      14.6026   6.0589   2.5086   C.ar      1 RES1   0.0000
    16 C5      15.1726   6.8773   3.4861   C.ar      1 RES1   0.0000
    17 C6      17.2547   8.0971   3.9539   C.ar      1 RES1   0.0000
    18 C7      18.5295   8.0848   3.4062   C.ar      1 RES1   0.0000
    19 C8      19.5986   8.4706   4.1777   C.ar      1 RES1   0.0000
    20 C9      19.3707   8.8631   5.4850   C.ar      1 RES1   0.0000
    21 C10     18.0823   8.8396   5.9848   C.ar      1 RES1   0.0000
    22 C11     16.8515   9.9424   7.8298   C.ar      1 RES1   0.0000
    23 C12     17.1002  10.7652   8.9312   C.ar      1 RES1   0.0000
    24 C13     16.1076  11.5725   9.3929   C.ar      1 RES1   0.0000
    25 C14     14.8789  11.5781   8.7493   C.ar      1 RES1   0.0000
    26 C15     14.6872  10.7106   7.7058   C.ar      1 RES1   0.0000
    27 C16     15.3058  10.7162   4.2397   C.ar      1 RES1   0.0000
    28 C17     14.9608  11.5524   3.2163   C.ar      1 RES1   0.0000
    29 C18     13.7160  11.3930   2.6186   C.ar      1 RES1   0.0000
    30 C19     12.8704  10.4397   3.1003   C.ar      1 RES1   0.0000
    31 C20     13.2837   9.6212   4.1577   C.ar      1 RES1   0.0000
    32 C21     12.2525   8.3870   6.0227   C.ar      1 RES1   0.0000
    33 C22     10.9638   8.2621   6.5245   C.ar      1 RES1   0.0000
    34 C23     10.7880   8.0079   7.8637   C.ar      1 RES1   0.0000
    35 C24     11.8911   7.8540   8.6673   C.ar      1 RES1   0.0000
    36 C25     13.1513   7.9398   8.0976   C.ar      1 RES1   0.0000
    37 C26     15.3804   7.0066   8.6153   C.ar      1 RES1   0.0000
    38 C27     16.0119   6.2986   9.6408   C.ar      1 RES1   0.0000
    39 C28     17.0993   5.5281   9.3509   C.ar      1 RES1   0.0000
    40 C29     17.5312   5.4568   8.0357   C.ar      1 RES1   0.0000
    41 C30     16.8791   6.1915   7.0842   C.ar      1 RES1   0.0000
    42 H1      16.1636   8.0870   2.3507   H         1 RES1   0.0000
    43 H2      18.4976   8.9679   7.8577   H         1 RES1   0.0000
    44 H3      11.8833   8.3022   4.1238   H         1 RES1   0.0000
    45 H4      14.2015   8.0736   9.7127   H         1 RES1   0.0000
    46 H5      13.7038   5.7723   6.0287   H         1 RES1   0.0000
    47 H6      12.7488   4.3429   4.5156   H         1 RES1   0.0000
    48 H7      13.2372   4.6016   2.2408   H         1 RES1   0.0000
    49 H8      14.8585   6.1402   1.6191   H         1 RES1   0.0000
    50 H9      18.6577   7.8172   2.5266   H         1 RES1   0.0000
    51 H10     20.4614   8.4683   3.8259   H         1 RES1   0.0000
    52 H11     20.0771   9.1407   6.0207   H         1 RES1   0.0000
    53 H12     17.9322  10.7597   9.3449   H         1 RES1   0.0000
    54 H13     16.2521  12.1166  10.1325   H         1 RES1   0.0000
    55 H14     14.2016  12.1556   9.0191   H         1 RES1   0.0000
    56 H15     13.8618  10.6036   7.2781   H         1 RES1   0.0000
    57 H16     16.1349  10.8377   4.6435   H         1 RES1   0.0000
    58 H17     15.5452  12.2136   2.9264   H         1 RES1   0.0000
    59 H18     13.4626  11.9293   1.9030   H         1 RES1   0.0000
    60 H19     12.0243  10.3337   2.7285   H         1 RES1   0.0000
    61 H20     10.2284   8.3513   5.9628   H         1 RES1   0.0000
    62 H21      9.9317   7.9410   8.2216   H         1 RES1   0.0000
    63 H22     11.7940   7.6934   9.5788   H         1 RES1   0.0000
    64 H23     15.6924   6.3532  10.5143   H         1 RES1   0.0000
    65 H24     17.5412   5.0609  10.0226   H         1 RES1   0.0000
    66 H25     18.2534   4.9182   7.8058   H         1 RES1   0.0000
    67 H26     17.1638   6.1180   6.2026   H         1 RES1   0.0000
    68 Cl1     16.9406   8.0814   0.0260   Cl        2 RES2  -1.0000
    69 Cl2      7.5149   9.4139   2.0129   Cl        3 RES3  -1.0000
    70 O1      14.0438   7.8350  -0.8415   O.3       4 RES4   0.0000
    71 C31     13.5306   8.7014   0.1379   C.3       4 RES4   0.0000
    72 H27     14.7846   7.8629  -0.8056   H         4 RES4   0.0000
    73 H28     12.4889   8.7616   0.0000   H         4 RES4   0.0000
    74 H29     13.5263   8.3602   1.0135   H         4 RES4   0.0000
    75 H30     13.7404   9.4618   0.0640   H         4 RES4   0.0000
    76 O2      10.0011   8.2219   3.2502   O.3       5 RES5   0.0000
    77 C32      9.9995   6.8851   2.8565   C.3       5 RES5   0.0000
    78 H31      9.3568   8.7438   2.9424   H         5 RES5   0.0000
    79 H32     10.7123   7.5005   2.0609   H         5 RES5   0.0000
    80 H33      9.1449   6.8115   3.7140   H         5 RES5   0.0000
    81 H34      9.6797   6.3465   2.6825   H         5 RES5   0.0000
@<TRIPOS>BOND
     1     1     2    1
     2     2    12   ar
     3     3    16    1
     4     4     1    1
     5     5    21    1
     6     6     1    1
     7     7     1    1
     8     8    31    1
     9     9     1    1
    10    10    36    1
    11    11     1    1
    12    12    13   ar
    13    13    14   ar
    14    14    15   ar
    15    15    16   ar
    16    16     2   ar
    17    17     3    1
    18    18    17   ar
    19    19    18   ar
    20    20    19   ar
    21    21     4   ar
    22    22     5    1
    23    23    22   ar
    24    24    23   ar
    25    25    24   ar
    26    26     6   ar
    27    27     7   ar
    28    28    27   ar
    29    29    28   ar
    30    30    29   ar
    31    31     7   ar
    32    32     8    1
    33    33    32   ar
    34    34    33   ar
    35    35    34   ar
    36    36     9   ar
    37    37    10    1
    38    38    37   ar
    39    39    38   ar
    40    40    39   ar
    41    41    11   ar
    42    42     3    1
    43    43     5    1
    44    44     8    1
    45    45    10    1
    46    46    12    1
    47    47    13    1
    48    48    14    1
    49    49    15    1
    50    50    18    1
    51    51    19    1
    52    52    20    1
    53    53    23    1
    54    54    24    1
    55    55    25    1
    56    56    26    1
    57    57    27    1
    58    58    28    1
    59    59    29    1
    60    60    30    1
    61    61    33    1
    62    62    34    1
    63    63    35    1
    64    64    38    1
    65    65    39    1
    66    66    40    1
    67    67    41    1
    68     4    17   ar
    69     6    22   ar
    70     9    32   ar
    71    11    37   ar
    72    20    21   ar
    73    25    26   ar
    74    30    31   ar
    75    35    36   ar
    76    40    41   ar
    77    70    71    1
    78    71    73    1
    79    72    70    1
    80    74    71    1
    81    75    71    1
    82    76    77    1
    83    77    79    1
    84    78    76    1
    85    80    77    1
    86    81    77    1
@<TRIPOS>SUBSTRUCTURE
     1 RES1        1 GROUP             0 ****  ****    0  
     2 RES2       68 GROUP             0 ****  ****    0  
     3 RES3       69 GROUP             0 ****  ****    0  
     4 RES4       70 GROUP             0 ****  ****    0  
     5 RES5       76 GROUP             0 ****  ****    0  
@<TRIPOS>CRYSIN
   15.0179   11.1499   20.2308   90.0000   98.8640   90.0000   231     1
