@<TRIPOS>MOLECULE
NOYJUG
    93    89     9     0     0
SMALL
USER_CHARGES
****
Generated from the CSD

@<TRIPOS>ATOM
     1 Fe1      0.2362   0.8083   4.1372   Fe        1 RES1   0.0000
     2 N1      -0.1651   1.8353   5.8633   N.am      1 RES1   0.0000
     3 N2      -0.4966   2.6052   3.4903   N.am      1 RES1   0.0000
     4 O1       0.4965   2.0138   8.0664   O.2       1 RES1   0.0000
     5 O2       1.5382  -0.0070   5.3963   O.co2     1 RES1  -1.0000
     6 O3       2.1715  -0.1155   7.5318   O.co2     1 RES1   0.0000
     7 O4      -0.0039   4.3757   2.0958   O.2       1 RES1   0.0000
     8 O5       1.6060   1.3472   2.7312   O.co2     1 RES1  -1.0000
     9 O6       1.9544   2.7241   1.0281   O.co2     1 RES1   0.0000
    10 O7      -0.0997  -0.8538   3.0134   O.co2     1 RES1  -1.0000
    11 O8      -1.5348  -0.1662   4.4375   O.co2     1 RES1   0.0000
    12 O9      -1.9765  -2.0453   3.2890   O.co2     1 RES1   0.0000
    13 C1       0.5114   1.5274   6.9443   C.2       1 RES1   0.0000
    14 C2       1.4993   0.3639   6.6241   C.2       1 RES1   0.0000
    15 C3       0.1563   3.2473   2.5463   C.2       1 RES1   0.0000
    16 C4       1.3326   2.3620   2.0199   C.2       1 RES1   0.0000
    17 C5      -1.1248   2.8483   5.7346   C.ar      1 RES1   0.0000
    18 C6      -1.3303   3.2753   4.4210   C.ar      1 RES1   0.0000
    19 C7      -2.2926   4.2305   4.1075   C.ar      1 RES1   0.0000
    20 C8      -3.0525   4.7747   5.1290   C.ar      1 RES1   0.0000
    21 C9      -2.8584   4.3478   6.4426   C.ar      1 RES1   0.0000
    22 C10     -1.8915   3.3977   6.7512   C.ar      1 RES1   0.0000
    23 C11     -1.2450  -1.0848   3.5612   C.2       1 RES1   0.0000
    24 H1      -2.2417   4.3653   3.0365   H         1 RES1   0.0000
    25 H2      -3.8380   5.5130   5.1801   H         1 RES1   0.0000
    26 H3      -3.5788   4.9129   7.0152   H         1 RES1   0.0000
    27 H4      -1.9424   3.2665   7.8222   H         1 RES1   0.0000
    28 N3       1.3197  13.4037   5.3122   N.4       2 RES2   1.0000
    29 C12      2.2529  12.4292   5.9145   C.3       2 RES2   0.0000
    30 C13      2.0876  14.2890   4.4012   C.3       2 RES2   0.0000
    31 C14      0.2681  12.6671   4.5662   C.3       2 RES2   0.0000
    32 C15      0.6858  14.2330   6.3551   C.3       2 RES2   0.0000
    33 H15      1.7107  11.7748   6.5812   H         2 RES2   0.0000
    34 H16      3.0154  12.9558   6.4690   H         2 RES2   0.0000
    35 H17      2.7159  11.8430   5.1339   H         2 RES2   0.0000
    36 H18      1.4195  15.0081   3.9507   H         2 RES2   0.0000
    37 H19      2.5512  13.6941   3.6273   H         2 RES2   0.0000
    38 H20      2.8507  14.8069   4.9623   H         2 RES2   0.0000
    39 H21     -0.4189  13.3722   4.1223   H         2 RES2   0.0000
    40 H22     -0.2691  12.0215   5.2445   H         2 RES2   0.0000
    41 H23      0.7257  12.0722   3.7890   H         2 RES2   0.0000
    42 H24      0.1232  13.5996   7.0251   H         2 RES2   0.0000
    43 H25      0.0217  14.9468   5.8931   H         2 RES2   0.0000
    44 H26      1.4490  14.7561   6.9113   H         2 RES2   0.0000
    45 N4       3.1118   7.1104  -0.1848   N.4       3 RES3   1.0000
    46 C16      2.3465   6.5278   0.9324   C.3       3 RES3   0.0000
    47 C17      2.2154   7.4690  -1.3004   C.3       3 RES3   0.0000
    48 C18      4.0715   6.0746  -0.6700   C.3       3 RES3   0.0000
    49 C19      3.8755   8.3019   0.2723   C.3       3 RES3   0.0000
    50 H27      1.6412   7.2556   1.3053   H         3 RES3   0.0000
    51 H28      3.0234   6.2443   1.7245   H         3 RES3   0.0000
    52 H29      1.8123   5.6530   0.5875   H         3 RES3   0.0000
    53 H30      1.5117   8.2179  -0.9687   H         3 RES3   0.0000
    54 H31      1.6792   6.5907  -1.6288   H         3 RES3   0.0000
    55 H32      2.8004   7.8610  -2.1189   H         3 RES3   0.0000
    56 H33      4.6481   6.4735  -1.4918   H         3 RES3   0.0000
    57 H34      3.5255   5.2033  -1.0050   H         3 RES3   0.0000
    58 H35      4.7363   5.7947   0.1337   H         3 RES3   0.0000
    59 H36      3.1891   9.0577   0.6254   H         3 RES3   0.0000
    60 H37      4.4514   8.6973  -0.5512   H         3 RES3   0.0000
    61 H38      4.5419   8.0184   1.0743   H         3 RES3   0.0000
    62 N5       0.1524   7.7000   5.1323   N.4       4 RES4   1.0000
    63 C20     -0.2712   6.8234   6.1802   C.3       4 RES4   0.0000
    64 C21      1.0402   8.7183   5.6802   C.3       4 RES4   0.0000
    65 C22      0.8646   7.0264   4.1141   C.3       4 RES4   0.0000
    66 C23     -0.9483   8.3561   4.5894   C.3       4 RES4   0.0000
    67 H39      0.5872   6.3161   6.5944   H         4 RES4   0.0000
    68 H40     -0.9626   6.0956   5.7841   H         4 RES4   0.0000
    69 H41     -0.7576   7.3973   6.9542   H         4 RES4   0.0000
    70 H42      1.9087   8.2424   6.1125   H         4 RES4   0.0000
    71 H43      0.5201   9.2781   6.4426   H         4 RES4   0.0000
    72 H44      1.3513   9.3849   4.8897   H         4 RES4   0.0000
    73 H45      1.7137   6.5173   4.5464   H         4 RES4   0.0000
    74 H46      1.2084   7.7437   3.3830   H         4 RES4   0.0000
    75 H47      0.2186   6.3056   3.6355   H         4 RES4   0.0000
    76 H48     -1.6331   7.6335   4.1718   H         4 RES4   0.0000
    77 H49     -0.6162   9.0279   3.8104   H         4 RES4   0.0000
    78 H50     -1.4470   8.9212   5.3617   H         4 RES4   0.0000
    79 O10     -2.8637   3.9838  15.0107   O.3       5 RES5   0.0000
    80 H5      -3.8427   3.6199  15.2879   H         5 RES5   0.0000
    81 H6      -2.6986   4.9496  15.4645   H         5 RES5   0.0000
    82 O11      4.6160   2.2657   0.5231   O.3       6 RES6   0.0000
    83 H7       4.9998   1.4504  -0.0710   H         6 RES6   0.0000
    84 H8       5.4146   2.9603   0.7393   H         6 RES6   0.0000
    85 O12      0.2520   1.4032  14.2499   O.3       7 RES7   0.0000
    86 H9       0.9613   1.4994  15.0586   H         7 RES7   0.0000
    87 H10     -0.1478   0.4007  14.2384   H         7 RES7   0.0000
    88 O13      3.0672   2.1922   9.3833   O.3       8 RES8   0.0000
    89 H11      3.8070   2.9078   9.0582   H         8 RES8   0.0000
    90 H12      3.1538   2.0435  10.4494   H         8 RES8   0.0000
    91 O14      3.1861   7.7455   9.2381   O.3       9 RES9   0.0000
    92 H13      4.1354   7.2293   9.2480   H         9 RES9   0.0000
    93 H14      3.0353   8.2406  10.1870   H         9 RES9   0.0000
@<TRIPOS>BOND
     1     1     2    1
     2     2    13   am
     3     3     1    1
     4     4    13    2
     5     5     1    1
     6     6    14    2
     7     7    15    2
     8     8     1    1
     9     9    16    2
    10    10     1    1
    11    11     1    1
    12    12    23    2
    13    13    14    1
    14    14     5    1
    15    15     3   am
    16    16     8    1
    17    17     2    1
    18    18     3    1
    19    19    18   ar
    20    20    19   ar
    21    21    20   ar
    22    22    17   ar
    23    23    10    1
    24    24    19    1
    25    25    20    1
    26    26    21    1
    27    27    22    1
    28    11    23    1
    29    15    16    1
    30    17    18   ar
    31    21    22   ar
    32    28    29    1
    33    29    33    1
    34    30    28    1
    35    31    28    1
    36    32    28    1
    37    34    29    1
    38    35    29    1
    39    36    30    1
    40    37    30    1
    41    38    30    1
    42    39    31    1
    43    40    31    1
    44    41    31    1
    45    42    32    1
    46    43    32    1
    47    44    32    1
    48    45    46    1
    49    46    50    1
    50    47    45    1
    51    48    45    1
    52    49    45    1
    53    51    46    1
    54    52    46    1
    55    53    47    1
    56    54    47    1
    57    55    47    1
    58    56    48    1
    59    57    48    1
    60    58    48    1
    61    59    49    1
    62    60    49    1
    63    61    49    1
    64    62    63    1
    65    63    67    1
    66    64    62    1
    67    65    62    1
    68    66    62    1
    69    68    63    1
    70    69    63    1
    71    70    64    1
    72    71    64    1
    73    72    64    1
    74    73    65    1
    75    74    65    1
    76    75    65    1
    77    76    66    1
    78    77    66    1
    79    78    66    1
    80    79    80    1
    81    81    79    1
    82    82    83    1
    83    84    82    1
    84    85    86    1
    85    87    85    1
    86    88    89    1
    87    90    88    1
    88    91    92    1
    89    93    91    1
@<TRIPOS>SUBSTRUCTURE
     1 RES1        1 GROUP             0 ****  ****    0  
     2 RES2       28 GROUP             0 ****  ****    0  
     3 RES3       45 GROUP             0 ****  ****    0  
     4 RES4       62 GROUP             0 ****  ****    0  
     5 RES5       79 GROUP             0 ****  ****    0  
     6 RES6       82 GROUP             0 ****  ****    0  
     7 RES7       85 GROUP             0 ****  ****    0  
     8 RES8       88 GROUP             0 ****  ****    0  
     9 RES9       91 GROUP             0 ****  ****    0  
@<TRIPOS>CRYSIN
   11.4410   17.4960   17.0470   90.0000  104.5200   90.0000    14     2
