@<TRIPOS>MOLECULE
NOZDOX
   110   114     4     0     0
SMALL
USER_CHARGES
****
Generated from the CSD

@<TRIPOS>ATOM
     1 Fe1      2.8354   4.7148   4.4172   Fe        1 RES1   2.0000
     2 P1       4.6458   3.8116   5.4828   P.3       1 RES1   0.0000
     3 P2       0.9145   5.5487   3.5785   P.3       1 RES1   0.0000
     4 N1       1.8847   4.2964   6.0982   N.2       1 RES1   0.0000
     5 N2       3.4123   6.3994   5.0692   N.1       1 RES1   0.0000
     6 N3       2.3547   2.9600   3.7795   N.1       1 RES1   0.0000
     7 N4       3.7713   4.9988   2.7592   N.1       1 RES1   0.0000
     8 C1       3.9314   3.4591   7.1307   C.3       1 RES1   0.0000
     9 H1       3.6418   2.5139   7.1825   H         1 RES1   0.0000
    10 H2       4.6070   3.6189   7.8373   H         1 RES1   0.0000
    11 C2       2.7295   4.3918   7.3271   C.3       1 RES1   0.0000
    12 H3       3.0873   5.3246   7.3656   H         1 RES1   0.0000
    13 C3       0.7083   3.7735   6.1984   C.2       1 RES1   0.0000
    14 H4       0.4857   3.4269   7.0549   H         1 RES1   0.0000
    15 C4      -0.3290   3.6427   5.1737   C.ar      1 RES1   0.0000
    16 C5      -1.3966   2.8086   5.5159   C.ar      1 RES1   0.0000
    17 H5      -1.3743   2.3355   6.3390   H         1 RES1   0.0000
    18 C6      -2.4881   2.6592   4.6724   C.ar      1 RES1   0.0000
    19 H6      -3.1932   2.0699   4.9110   H         1 RES1   0.0000
    20 C7      -2.5491   3.3636   3.4886   C.ar      1 RES1   0.0000
    21 H7      -3.3022   3.2713   2.9170   H         1 RES1   0.0000
    22 C8      -1.5094   4.2071   3.1390   C.ar      1 RES1   0.0000
    23 H8      -1.5608   4.6989   2.3288   H         1 RES1   0.0000
    24 C9      -0.3949   4.3462   3.9510   C.ar      1 RES1   0.0000
    25 C10      2.0588   4.1117   8.6826   C.3       1 RES1   0.0000
    26 H9       1.7777   3.1624   8.6993   H         1 RES1   0.0000
    27 H10      2.7378   4.2300   9.3948   H         1 RES1   0.0000
    28 C11      0.8548   4.9687   9.0307   C.ar      1 RES1   0.0000
    29 C12      0.8858   6.3558   8.9268   C.ar      1 RES1   0.0000
    30 H11      1.6756   6.7864   8.6216   H         1 RES1   0.0000
    31 C13     -0.2175   7.1132   9.2597   C.ar      1 RES1   0.0000
    32 H12     -0.1845   8.0584   9.1765   H         1 RES1   0.0000
    33 C14     -1.3667   6.5084   9.7148   C.ar      1 RES1   0.0000
    34 H13     -2.1252   7.0344   9.9386   H         1 RES1   0.0000
    35 C15     -1.4156   5.1336   9.8443   C.ar      1 RES1   0.0000
    36 H14     -2.2070   4.7135  10.1606   H         1 RES1   0.0000
    37 C16     -0.3069   4.3669   9.5132   C.ar      1 RES1   0.0000
    38 H15     -0.3401   3.4238   9.6167   H         1 RES1   0.0000
    39 C17      3.8228   7.3498   5.5436   C.1       1 RES1   0.0000
    40 C18      4.3646   8.4983   6.2354   C.3       1 RES1   0.0000
    41 H16      3.8120   8.6965   7.0216   H         1 RES1   0.0000
    42 H17      4.3659   9.2713   5.6343   H         1 RES1   0.0000
    43 H18      5.2821   8.3053   6.5221   H         1 RES1   0.0000
    44 C19      2.1195   1.8935   3.4479   C.1       1 RES1   0.0000
    45 C20      1.8519   0.5167   3.0391   C.3       1 RES1   0.0000
    46 H19      2.6946   0.0187   2.9966   H         1 RES1   0.0000
    47 H20      1.4258   0.5146   2.1568   H         1 RES1   0.0000
    48 H21      1.2555   0.0923   3.6921   H         1 RES1   0.0000
    49 C21      4.2211   5.0496   1.7017   C.1       1 RES1   0.0000
    50 C22      4.7781   5.0838   0.3459   C.3       1 RES1   0.0000
    51 H22      4.3969   4.3524  -0.1813   H         1 RES1   0.0000
    52 H23      5.7515   4.9832   0.3903   H         1 RES1   0.0000
    53 H24      4.5574   5.9408  -0.0758   H         1 RES1   0.0000
    54 C23      6.0919   4.8950   5.7157   C.ar      1 RES1   0.0000
    55 C24      6.6861   5.1087   6.9328   C.ar      1 RES1   0.0000
    56 H25      6.3148   4.7135   7.7134   H         1 RES1   0.0000
    57 C25      7.8221   5.8942   7.0401   C.ar      1 RES1   0.0000
    58 H26      8.2178   6.0425   7.8909   H         1 RES1   0.0000
    59 C26      8.3817   6.4648   5.9099   C.ar      1 RES1   0.0000
    60 H27      9.1752   6.9846   5.9783   H         1 RES1   0.0000
    61 C27      7.7874   6.2760   4.6928   C.ar      1 RES1   0.0000
    62 H28      8.1467   6.6910   3.9177   H         1 RES1   0.0000
    63 C28      6.6604   5.4802   4.5929   C.ar      1 RES1   0.0000
    64 H29      6.2698   5.3308   3.7402   H         1 RES1   0.0000
    65 C29      5.4257   2.2462   4.9406   C.ar      1 RES1   0.0000
    66 C30      5.4313   1.9070   3.5977   C.ar      1 RES1   0.0000
    67 H30      4.9989   2.4662   2.9633   H         1 RES1   0.0000
    68 C31      6.0738   0.7418   3.1815   C.ar      1 RES1   0.0000
    69 H31      6.0691   0.5042   2.2604   H         1 RES1   0.0000
    70 C32      6.7127  -0.0643   4.0897   C.ar      1 RES1   0.0000
    71 H32      7.1485  -0.8580   3.7993   H         1 RES1   0.0000
    72 C33      6.7203   0.2843   5.4271   C.ar      1 RES1   0.0000
    73 H33      7.1765  -0.2646   6.0560   H         1 RES1   0.0000
    74 C34      6.0704   1.4235   5.8544   C.ar      1 RES1   0.0000
    75 H34      6.0623   1.6465   6.7793   H         1 RES1   0.0000
    76 C35      0.1247   7.0883   4.1637   C.ar      1 RES1   0.0000
    77 C36      0.4066   7.6237   5.4142   C.ar      1 RES1   0.0000
    78 H35      1.0672   7.2170   5.9617   H         1 RES1   0.0000
    79 C37     -0.2665   8.7432   5.8692   C.ar      1 RES1   0.0000
    80 H36     -0.0611   9.1042   6.7238   H         1 RES1   0.0000
    81 C38     -1.2315   9.3346   5.0905   C.ar      1 RES1   0.0000
    82 H37     -1.6804  10.1106   5.4012   H         1 RES1   0.0000
    83 C39     -1.5502   8.8085   3.8604   C.ar      1 RES1   0.0000
    84 H38     -2.2283   9.2111   3.3314   H         1 RES1   0.0000
    85 C40     -0.8792   7.6922   3.3943   C.ar      1 RES1   0.0000
    86 H39     -1.1008   7.3301   2.5434   H         1 RES1   0.0000
    87 C41      0.9758   5.7447   1.7776   C.ar      1 RES1   0.0000
    88 C42      0.8521   4.6554   0.9230   C.ar      1 RES1   0.0000
    89 H40      0.6243   3.8025   1.2745   H         1 RES1   0.0000
    90 C43      1.0616   4.8048  -0.4402   C.ar      1 RES1   0.0000
    91 H41      0.9656   4.0598  -1.0210   H         1 RES1   0.0000
    92 C44      1.4122   6.0436  -0.9526   C.ar      1 RES1   0.0000
    93 H42      1.5445   6.1463  -1.8867   H         1 RES1   0.0000
    94 C45      1.5668   7.1215  -0.1184   C.ar      1 RES1   0.0000
    95 H43      1.8177   7.9650  -0.4772   H         1 RES1   0.0000
    96 C46      1.3591   6.9846   1.2523   C.ar      1 RES1   0.0000
    97 H44      1.4765   7.7306   1.8275   H         1 RES1   0.0000
    98 B1       3.4015   1.3509  -0.4199   B         2 RES2  -1.0000
    99 F1       2.0723   1.3830  -0.2997   F         2 RES2   0.0000
   100 F2       3.7185   2.3604  -1.4132   F         2 RES2   0.0000
   101 F3       4.0733   1.6880   0.6862   F         2 RES2   0.0000
   102 F4       3.8329   0.1836  -0.9286   F         2 RES2   0.0000
   103 B2       5.5155   5.5092  10.4510   B         3 RES3  -1.0000
   104 F5       6.8061   5.9844  10.2401   F         3 RES3   0.0000
   105 F6       5.4766   4.1356  10.2582   F         3 RES3   0.0000
   106 F7       5.1369   5.8153  11.7491   F         3 RES3   0.0000
   107 F8       4.6342   6.1027   9.5457   F         3 RES3   0.0000
   108 O1       4.6420   8.1632   2.1475   O.3       4 RES4   0.0000
   109 H45      4.3874   8.5772   1.4631   H         4 RES4   0.0000
   110 H46      4.4101   7.3737   2.3140   H         4 RES4   0.0000
@<TRIPOS>BOND
     1     1     2    1
     2     2     8    1
     3     3     1    1
     4     4     1    1
     5     5     1    1
     6     6     1    1
     7     7     1    1
     8     8     9    1
     9    10     8    1
    10    11     4    1
    11    12    11    1
    12    13     4    2
    13    14    13    1
    14    15    13    1
    15    16    15   ar
    16    17    16    1
    17    18    16   ar
    18    19    18    1
    19    20    18   ar
    20    21    20    1
    21    22    20   ar
    22    23    22    1
    23    24     3    1
    24    25    11    1
    25    26    25    1
    26    27    25    1
    27    28    25    1
    28    29    28   ar
    29    30    29    1
    30    31    29   ar
    31    32    31    1
    32    33    31   ar
    33    34    33    1
    34    35    33   ar
    35    36    35    1
    36    37    28   ar
    37    38    37    1
    38    39     5    3
    39    40    39    1
    40    41    40    1
    41    42    40    1
    42    43    40    1
    43    44     6    3
    44    45    44    1
    45    46    45    1
    46    47    45    1
    47    48    45    1
    48    49     7    3
    49    50    49    1
    50    51    50    1
    51    52    50    1
    52    53    50    1
    53    54     2    1
    54    55    54   ar
    55    56    55    1
    56    57    55   ar
    57    58    57    1
    58    59    57   ar
    59    60    59    1
    60    61    59   ar
    61    62    61    1
    62    63    54   ar
    63    64    63    1
    64    65     2    1
    65    66    65   ar
    66    67    66    1
    67    68    66   ar
    68    69    68    1
    69    70    68   ar
    70    71    70    1
    71    72    70   ar
    72    73    72    1
    73    74    65   ar
    74    75    74    1
    75    76     3    1
    76    77    76   ar
    77    78    77    1
    78    79    77   ar
    79    80    79    1
    80    81    79   ar
    81    82    81    1
    82    83    81   ar
    83    84    83    1
    84    85    76   ar
    85    86    85    1
    86    87     3    1
    87    88    87   ar
    88    89    88    1
    89    90    88   ar
    90    91    90    1
    91    92    90   ar
    92    93    92    1
    93    94    92   ar
    94    95    94    1
    95    96    87   ar
    96    97    96    1
    97     8    11    1
    98    15    24   ar
    99    22    24   ar
   100    35    37   ar
   101    61    63   ar
   102    72    74   ar
   103    83    85   ar
   104    94    96   ar
   105    98    99    1
   106   100    98    1
   107   101    98    1
   108   102    98    1
   109   103   104    1
   110   105   103    1
   111   106   103    1
   112   107   103    1
   113   108   109    1
   114   110   108    1
@<TRIPOS>SUBSTRUCTURE
     1 RES1        1 GROUP             0 ****  ****    0  
     2 RES2       98 GROUP             0 ****  ****    0  
     3 RES3      103 GROUP             0 ****  ****    0  
     4 RES4      108 GROUP             0 ****  ****    0  
@<TRIPOS>CRYSIN
   11.8424   10.3752   19.0248   90.0000  103.5240   90.0000     4     1
