@<TRIPOS>MOLECULE
NUBRUZ
    77    78     2     0     0
SMALL
USER_CHARGES
****
Generated from the CSD

@<TRIPOS>ATOM
     1 Fe1     -0.1896  15.2197   2.2302   Fe        1 RES1   1.0000
     2 P1       0.4505  17.3093   2.4371   P.3       1 RES1   0.0000
     3 P2       0.1156  13.0751   1.9179   P.3       1 RES1   0.0000
     4 P3      -1.9290  15.0835   3.6907   P.3       1 RES1   0.0000
     5 O1      -1.8922  15.6145  -0.0783   O.2       1 RES1   0.0000
     6 N1       1.0892  14.9458   3.7519   N.ar      1 RES1   0.0000
     7 N2       1.2415  17.2445   3.9473   N.pl3     1 RES1   0.0000
     8 N3       0.9980  12.6827   3.3135   N.pl3     1 RES1   0.0000
     9 C1       1.5839  16.0036   4.4428   C.ar      1 RES1   0.0000
    10 C2       2.3819  15.8370   5.5769   C.ar      1 RES1   0.0000
    11 C3       2.6946  14.5536   5.9699   C.ar      1 RES1   0.0000
    12 C4       2.2676  13.4628   5.2380   C.ar      1 RES1   0.0000
    13 C5       1.4671  13.6980   4.1181   C.ar      1 RES1   0.0000
    14 C6       1.7284  17.9288   1.2554   C.3       1 RES1   0.0000
    15 C7       3.0364  17.1623   1.3705   C.3       1 RES1   0.0000
    16 C8       1.2061  17.8729  -0.1740   C.3       1 RES1   0.0000
    17 C9      -0.6778  18.7591   2.6683   C.3       1 RES1   0.0000
    18 C10      0.0170  20.1147   2.7508   C.3       1 RES1   0.0000
    19 C11     -1.8212  18.7939   1.6491   C.3       1 RES1   0.0000
    20 C12      1.1704  12.5471   0.4920   C.3       1 RES1   0.0000
    21 C13      2.6548  12.8259   0.7302   C.3       1 RES1   0.0000
    22 C14      0.7175  13.2196  -0.8101   C.3       1 RES1   0.0000
    23 C15     -1.2369  11.8160   1.9455   C.3       1 RES1   0.0000
    24 C16     -0.7500  10.3798   2.1652   C.3       1 RES1   0.0000
    25 C17     -2.1328  11.8863   0.7133   C.3       1 RES1   0.0000
    26 C18     -1.2132  15.4653   0.8572   C.1       1 RES1   0.0000
    27 C19     -1.6869  13.9736   5.1117   C.3       1 RES1   0.0000
    28 C20     -2.5064  16.5683   4.5855   C.3       1 RES1   0.0000
    29 C21     -3.4934  14.4917   2.9796   C.3       1 RES1   0.0000
    30 H1       2.7038  16.5956   6.0693   H         1 RES1   0.0000
    31 H2       3.2166  14.4157   6.7637   H         1 RES1   0.0000
    32 H3       2.5137  12.5702   5.4915   H         1 RES1   0.0000
    33 H4       1.9097  18.8422   1.4882   H         1 RES1   0.0000
    34 H5       3.3591  17.2132   2.2734   H         1 RES1   0.0000
    35 H6       2.8913  16.2433   1.1341   H         1 RES1   0.0000
    36 H7       3.6860  17.5465   0.7768   H         1 RES1   0.0000
    37 H8       0.3669  18.3368  -0.2264   H         1 RES1   0.0000
    38 H9       1.8392  18.2897  -0.7627   H         1 RES1   0.0000
    39 H10      1.0818  16.9571  -0.4339   H         1 RES1   0.0000
    40 H11     -1.0548  18.6074   3.5382   H         1 RES1   0.0000
    41 H12      0.7191  20.0750   3.4041   H         1 RES1   0.0000
    42 H13      0.3886  20.3364   1.8941   H         1 RES1   0.0000
    43 H14     -0.6204  20.7858   3.0065   H         1 RES1   0.0000
    44 H15     -2.2183  17.9222   1.5835   H         1 RES1   0.0000
    45 H16     -2.4847  19.4268   1.9338   H         1 RES1   0.0000
    46 H17     -1.4778  19.0544   0.7914   H         1 RES1   0.0000
    47 H18      1.0595  11.5970   0.4107   H         1 RES1   0.0000
    48 H19      2.9720  12.2771   1.4513   H         1 RES1   0.0000
    49 H20      3.1505  12.6243  -0.0669   H         1 RES1   0.0000
    50 H21      2.7747  13.7513   0.9560   H         1 RES1   0.0000
    51 H22     -0.2217  13.0697  -0.9378   H         1 RES1   0.0000
    52 H23      0.8873  14.1631  -0.7586   H         1 RES1   0.0000
    53 H24      1.2047  12.8468  -1.5487   H         1 RES1   0.0000
    54 H25     -1.7599  12.0534   2.7148   H         1 RES1   0.0000
    55 H26     -0.2427  10.3347   2.9790   H         1 RES1   0.0000
    56 H27     -1.5059   9.7913   2.2262   H         1 RES1   0.0000
    57 H28     -0.1959  10.1135   1.4277   H         1 RES1   0.0000
    58 H29     -2.4431  12.7871   0.5941   H         1 RES1   0.0000
    59 H30     -1.6350  11.6142  -0.0608   H         1 RES1   0.0000
    60 H31     -2.8858  11.3020   0.8312   H         1 RES1   0.0000
    61 H32     -0.9862  14.3171   5.6704   H         1 RES1   0.0000
    62 H33     -2.5015  13.9189   5.6172   H         1 RES1   0.0000
    63 H34     -1.4464  13.0991   4.7973   H         1 RES1   0.0000
    64 H35     -1.7735  16.9548   5.0704   H         1 RES1   0.0000
    65 H36     -2.8471  17.2086   3.9567   H         1 RES1   0.0000
    66 H37     -3.2018  16.3216   5.1996   H         1 RES1   0.0000
    67 H38     -3.7192  15.0251   2.2142   H         1 RES1   0.0000
    68 H39     -3.3971  13.5743   2.7132   H         1 RES1   0.0000
    69 H40     -4.1904  14.5626   3.6360   H         1 RES1   0.0000
    70 H41      0.9482  15.1661   1.3219   H         1 RES1   0.0000
    71 H42      1.3016  11.9936   3.3725   H         1 RES1   0.0000
    72 H43      1.7089  17.9195   4.2384   H         1 RES1   0.0000
    73 F1       4.9662  20.2297   4.9926   F         2 RES2   0.0000
    74 F2       3.0633  21.2594   4.9263   F         2 RES2   0.0000
    75 F3       3.1651  19.1605   5.4315   F         2 RES2   0.0000
    76 F4       3.4931  19.6768   3.5233   F         2 RES2   0.0000
    77 B1       3.6939  20.1044   4.7672   B         2 RES2  -1.0000
@<TRIPOS>BOND
     1     1     2    1
     2     2     7    1
     3     3     1    1
     4     4     1    1
     5     5    26    3
     6     6     1    1
     7     7     9    1
     8     8     3    1
     9     9     6   ar
    10    10     9   ar
    11    11    10   ar
    12    12    11   ar
    13    13     6   ar
    14    14     2    1
    15    15    14    1
    16    16    14    1
    17    17     2    1
    18    18    17    1
    19    19    17    1
    20    20     3    1
    21    21    20    1
    22    22    20    1
    23    23     3    1
    24    24    23    1
    25    25    23    1
    26    26     1    1
    27    27     4    1
    28    28     4    1
    29    29     4    1
    30    30    10    1
    31    31    11    1
    32    32    12    1
    33    33    14    1
    34    34    15    1
    35    35    15    1
    36    36    15    1
    37    37    16    1
    38    38    16    1
    39    39    16    1
    40    40    17    1
    41    41    18    1
    42    42    18    1
    43    43    18    1
    44    44    19    1
    45    45    19    1
    46    46    19    1
    47    47    20    1
    48    48    21    1
    49    49    21    1
    50    50    21    1
    51    51    22    1
    52    52    22    1
    53    53    22    1
    54    54    23    1
    55    55    24    1
    56    56    24    1
    57    57    24    1
    58    58    25    1
    59    59    25    1
    60    60    25    1
    61    61    27    1
    62    62    27    1
    63    63    27    1
    64    64    28    1
    65    65    28    1
    66    66    28    1
    67    67    29    1
    68    68    29    1
    69    69    29    1
    70    70     1    1
    71    71     8    1
    72    72     7    1
    73     8    13    1
    74    12    13   ar
    75    73    77    1
    76    74    77    1
    77    75    77    1
    78    76    77    1
@<TRIPOS>SUBSTRUCTURE
     1 RES1        1 GROUP             0 ****  ****    0  
     2 RES2       73 GROUP             0 ****  ****    0  
@<TRIPOS>CRYSIN
    8.5095   20.2457   17.1097   90.0000   97.9075   90.0000    14     1
