@<TRIPOS>MOLECULE
NUBROT
    75    77     2     0     0
SMALL
USER_CHARGES
****
Generated from the CSD

@<TRIPOS>ATOM
     1 Fe1     10.5248   2.8200   1.8993   Fe        1 RES1   1.0000
     2 P1      10.8382   0.6668   2.1598   P.3       1 RES1   0.0000
     3 O1       7.7714   2.8200   2.8076   O.2       1 RES1   0.0000
     4 N1      12.5187   2.8200   1.5957   N.ar      1 RES1   0.0000
     5 N2      12.4477   0.5130   1.6242   N.pl3     1 RES1   0.0000
     6 N3      10.1786   2.8200  -0.1392   N.ar      1 RES1   0.0000
     7 C1      13.2050   1.6550   1.5160   C.ar      1 RES1   0.0000
     8 C2      14.5854   1.6191   1.3211   C.ar      1 RES1   0.0000
     9 C3      15.2606   2.8200   1.2203   C.ar      1 RES1   0.0000
    10 C4      10.8481   0.0088   3.8924   C.3       1 RES1   0.0000
    11 C5      12.1373   0.4063   4.6151   C.3       1 RES1   0.0000
    12 C6       9.6255   0.4670   4.6977   C.3       1 RES1   0.0000
    13 C7      10.0217  -0.6955   1.2159   C.3       1 RES1   0.0000
    14 C8      10.1516  -0.5297  -0.2939   C.3       1 RES1   0.0000
    15 C9       8.5568  -0.8475   1.6087   C.3       1 RES1   0.0000
    16 C10      8.8662   2.8200   2.4173   C.1       1 RES1   0.0000
    17 C11     11.1709   2.8200  -1.0560   C.ar      1 RES1   0.0000
    18 C12     10.9506   2.8200  -2.4215   C.ar      1 RES1   0.0000
    19 C13      9.6462   2.8200  -2.8991   C.ar      1 RES1   0.0000
    20 C14      8.6177   2.8200  -1.9752   C.ar      1 RES1   0.0000
    21 C15      8.9156   2.8200  -0.6288   C.ar      1 RES1   0.0000
    22 H1      15.0533   0.7832   1.2587   H         1 RES1   0.0000
    23 H2      16.2101   2.8200   1.0788   H         1 RES1   0.0000
    24 H3      10.8061  -0.9481   3.8272   H         1 RES1   0.0000
    25 H4      12.8844  -0.0324   4.2015   H         1 RES1   0.0000
    26 H5      12.2545   1.3576   4.5605   H         1 RES1   0.0000
    27 H6      12.0818   0.1431   5.5367   H         1 RES1   0.0000
    28 H7       8.8249   0.2547   4.2123   H         1 RES1   0.0000
    29 H8       9.6142   0.0175   5.5458   H         1 RES1   0.0000
    30 H9       9.6724   1.4154   4.8386   H         1 RES1   0.0000
    31 H10     10.4889  -1.4994   1.4547   H         1 RES1   0.0000
    32 H11     11.0703  -0.3669  -0.5201   H         1 RES1   0.0000
    33 H12      9.8516  -1.3303  -0.7307   H         1 RES1   0.0000
    34 H13      9.6148   0.2122  -0.5818   H         1 RES1   0.0000
    35 H14      8.4955  -1.0414   2.5469   H         1 RES1   0.0000
    36 H15      8.0884  -0.0311   1.4196   H         1 RES1   0.0000
    37 H16      8.1637  -1.5655   1.1072   H         1 RES1   0.0000
    38 H17     12.0783   2.8200  -0.7427   H         1 RES1   0.0000
    39 H18     11.6910   2.8200  -3.0326   H         1 RES1   0.0000
    40 H19      9.4645   2.8200  -3.8417   H         1 RES1   0.0000
    41 H20      7.7037   2.8200  -2.2686   H         1 RES1   0.0000
    42 H21      8.1872   2.8200  -0.0034   H         1 RES1   0.0000
    43 H22     10.8644   2.8200   3.3186   H         1 RES1   0.0000
    44 H23     12.8524  -0.2448   1.6733   H         1 RES1   0.0000
    45 P1F     10.8382   4.9733   2.1598   P.3       1 RES1   0.0000
    46 N2F     12.4477   5.1270   1.6242   N.pl3     1 RES1   0.0000
    47 C1F     13.2050   3.9850   1.5160   C.ar      1 RES1   0.0000
    48 C2F     14.5854   4.0209   1.3211   C.ar      1 RES1   0.0000
    49 C4F     10.8481   5.6313   3.8924   C.3       1 RES1   0.0000
    50 C5F     12.1373   5.2337   4.6151   C.3       1 RES1   0.0000
    51 C6F      9.6255   5.1731   4.6977   C.3       1 RES1   0.0000
    52 C7F     10.0217   6.3356   1.2159   C.3       1 RES1   0.0000
    53 C8F     10.1516   6.1698  -0.2939   C.3       1 RES1   0.0000
    54 C9F      8.5568   6.4875   1.6087   C.3       1 RES1   0.0000
    55 H1F     15.0533   4.8568   1.2587   H         1 RES1   0.0000
    56 H3F     10.8061   6.5882   3.8272   H         1 RES1   0.0000
    57 H4F     12.8844   5.6724   4.2015   H         1 RES1   0.0000
    58 H5F     12.2545   4.2825   4.5605   H         1 RES1   0.0000
    59 H6F     12.0818   5.4969   5.5367   H         1 RES1   0.0000
    60 H7F      8.8249   5.3853   4.2123   H         1 RES1   0.0000
    61 H8F      9.6142   5.6225   5.5458   H         1 RES1   0.0000
    62 H9F      9.6724   4.2247   4.8386   H         1 RES1   0.0000
    63 H10F    10.4889   7.1394   1.4547   H         1 RES1   0.0000
    64 H11F    11.0703   6.0069  -0.5201   H         1 RES1   0.0000
    65 H12F     9.8516   6.9703  -0.7307   H         1 RES1   0.0000
    66 H13F     9.6148   5.4278  -0.5818   H         1 RES1   0.0000
    67 H14F     8.4955   6.6815   2.5469   H         1 RES1   0.0000
    68 H15F     8.0884   5.6711   1.4196   H         1 RES1   0.0000
    69 H16F     8.1637   7.2055   1.1072   H         1 RES1   0.0000
    70 H23F    12.8524   5.8848   1.6733   H         1 RES1   0.0000
    71 F1      14.2893  -2.8200   4.0109   F         2 RES2   0.0000
    72 F2      12.4720  -2.8200   2.6220   F         2 RES2   0.0000
    73 F3      14.3575  -1.6821   2.0428   F         2 RES2   0.0000
    74 B1      13.8744  -2.8200   2.6893   B         2 RES2  -1.0000
    75 F3F     14.3575  -3.9580   2.0428   F         2 RES2   0.0000
@<TRIPOS>BOND
     1     1     2    1
     2     2     5    1
     3     3    16    3
     4     4     1    1
     5     5     7    1
     6     6     1    1
     7     7     4   ar
     8     8     7   ar
     9     9     8   ar
    10    10     2    1
    11    11    10    1
    12    12    10    1
    13    13     2    1
    14    14    13    1
    15    15    13    1
    16    16     1    1
    17    17     6   ar
    18    18    17   ar
    19    19    18   ar
    20    20    19   ar
    21    21     6   ar
    22    22     8    1
    23    23     9    1
    24    24    10    1
    25    25    11    1
    26    26    11    1
    27    27    11    1
    28    28    12    1
    29    29    12    1
    30    30    12    1
    31    31    13    1
    32    32    14    1
    33    33    14    1
    34    34    14    1
    35    35    15    1
    36    36    15    1
    37    37    15    1
    38    38    17    1
    39    39    18    1
    40    40    19    1
    41    41    20    1
    42    42    21    1
    43    43     1    1
    44    44     5    1
    45    45     1    1
    46    46    45    1
    47    47     4   ar
    48    48     9   ar
    49    49    45    1
    50    50    49    1
    51    51    49    1
    52    52    45    1
    53    53    52    1
    54    54    52    1
    55    55    48    1
    56    56    49    1
    57    57    50    1
    58    58    50    1
    59    59    50    1
    60    60    51    1
    61    61    51    1
    62    62    51    1
    63    63    52    1
    64    64    53    1
    65    65    53    1
    66    66    53    1
    67    67    54    1
    68    68    54    1
    69    69    54    1
    70    70    46    1
    71    20    21   ar
    72    46    47    1
    73    47    48   ar
    74    71    74    1
    75    72    74    1
    76    73    74    1
    77    74    75    1
@<TRIPOS>SUBSTRUCTURE
     1 RES1        1 GROUP             0 ****  ****    0  
     2 RES2       71 GROUP             0 ****  ****    0  
@<TRIPOS>CRYSIN
   14.2000   11.2801   17.5587   90.0000   90.0000   90.0000    62     1
