@<TRIPOS>MOLECULE
NUCZUG
    97   102     3     0     0
SMALL
USER_CHARGES
****
Generated from the CSD

@<TRIPOS>ATOM
     1 Fe1      4.3048   0.4137   2.9507   Fe        1 RES1   1.0000
     2 Cl1      5.6148  -0.2654   1.2312   Cl        1 RES1   0.0000
     3 N1       2.8892  -1.2220   2.8382   N.3       1 RES1   0.0000
     4 N2       2.7782   1.3961   1.7537   N.3       1 RES1   0.0000
     5 N3       2.8598   1.0367   4.5352   N.3       1 RES1   0.0000
     6 O1       5.3923  -0.4457   4.3383   O.2       1 RES1   0.0000
     7 O2       5.2959   2.0772   3.2671   O.3       1 RES1   0.0000
     8 C1       2.2170  -0.9604   1.5101   C.3       1 RES1   0.0000
     9 H1       2.8304  -1.2070   0.7992   H         1 RES1   0.0000
    10 H2       1.4408  -1.5376   1.4383   H         1 RES1   0.0000
    11 C2       1.7978   0.3831   1.2965   C.3       1 RES1   0.0000
    12 H3       0.9609   0.5271   1.7637   H         1 RES1   0.0000
    13 H4       1.6342   0.5134   0.3504   H         1 RES1   0.0000
    14 C3       2.1413   2.4065   2.6664   C.3       1 RES1   0.0000
    15 H5       2.7403   3.1628   2.7631   H         1 RES1   0.0000
    16 H6       1.3230   2.7283   2.2559   H         1 RES1   0.0000
    17 C4       1.8340   1.8894   3.9729   C.3       1 RES1   0.0000
    18 H7       1.0060   1.3861   3.9195   H         1 RES1   0.0000
    19 H8       1.6862   2.6357   4.5752   H         1 RES1   0.0000
    20 C5       2.3182  -0.2467   4.9940   C.3       1 RES1   0.0000
    21 H9       2.9805  -0.6686   5.5630   H         1 RES1   0.0000
    22 H10      1.5361  -0.0689   5.5396   H         1 RES1   0.0000
    23 C6       1.9502  -1.1732   3.9745   C.3       1 RES1   0.0000
    24 H11      1.0705  -0.9353   3.6408   H         1 RES1   0.0000
    25 H12      1.8868  -2.0585   4.3650   H         1 RES1   0.0000
    26 C7       3.5906  -2.5480   2.7948   C.3       1 RES1   0.0000
    27 H13      4.1968  -2.5643   2.0507   H         1 RES1   0.0000
    28 H14      2.9418  -3.2479   2.6931   H         1 RES1   0.0000
    29 H15      4.0779  -2.6782   3.6091   H         1 RES1   0.0000
    30 C8       3.3447   2.0898   0.5940   C.3       1 RES1   0.0000
    31 H16      3.9792   2.7459   0.8927   H         1 RES1   0.0000
    32 H17      2.6412   2.5242   0.1051   H         1 RES1   0.0000
    33 H18      3.7856   1.4537   0.0250   H         1 RES1   0.0000
    34 C9       3.5239   1.7079   5.6898   C.3       1 RES1   0.0000
    35 H19      4.2005   1.1294   6.0502   H         1 RES1   0.0000
    36 H20      2.8701   1.8982   6.3672   H         1 RES1   0.0000
    37 H21      3.9262   2.5267   5.3945   H         1 RES1   0.0000
    38 C10      7.3653  -1.1857   5.3544   C.3       1 RES1   0.0000
    39 H22      6.8261  -1.9758   5.4328   H         1 RES1   0.0000
    40 H23      7.6013  -0.8702   6.2304   H         1 RES1   0.0000
    41 H24      8.1636  -1.3911   4.8622   H         1 RES1   0.0000
    42 C11      6.5951  -0.1252   4.6319   C.2       1 RES1   0.0000
    43 C12      7.1704   1.1256   4.3933   C.2       1 RES1   0.0000
    44 C13      6.4717   2.1561   3.7526   C.2       1 RES1   0.0000
    45 C14      7.1075   3.5134   3.5641   C.3       1 RES1   0.0000
    46 H25      6.4924   4.0944   3.1102   H         1 RES1   0.0000
    47 H26      7.9079   3.4232   3.0418   H         1 RES1   0.0000
    48 H27      7.3252   3.8865   4.4217   H         1 RES1   0.0000
    49 C15      8.5658   1.3886   4.8655   C.ar      1 RES1   0.0000
    50 C16      8.7681   2.0309   6.1103   C.ar      1 RES1   0.0000
    51 C17      7.7202   2.4166   6.9663   C.ar      1 RES1   0.0000
    52 H28      6.8437   2.2413   6.7126   H         1 RES1   0.0000
    53 C18      7.9505   3.0388   8.1543   C.ar      1 RES1   0.0000
    54 H29      7.2403   3.2667   8.7099   H         1 RES1   0.0000
    55 C19      9.2690   3.3356   8.5364   C.ar      1 RES1   0.0000
    56 H30      9.4224   3.7601   9.3490   H         1 RES1   0.0000
    57 C20     10.3053   3.0201   7.7555   C.ar      1 RES1   0.0000
    58 H31     11.1671   3.2492   8.0191   H         1 RES1   0.0000
    59 C21     10.1030   2.3352   6.5224   C.ar      1 RES1   0.0000
    60 C22     11.1599   1.9545   5.7015   C.ar      1 RES1   0.0000
    61 H32     12.0234   2.1661   5.9718   H         1 RES1   0.0000
    62 C23     10.9995   1.2909   4.5318   C.ar      1 RES1   0.0000
    63 C24     12.0859   0.8552   3.7209   C.ar      1 RES1   0.0000
    64 H33     12.9548   1.0092   4.0112   H         1 RES1   0.0000
    65 C25     11.8923   0.2329   2.5546   C.ar      1 RES1   0.0000
    66 H34     12.6262  -0.0188   2.0423   H         1 RES1   0.0000
    67 C26     10.5799  -0.0501   2.0857   C.ar      1 RES1   0.0000
    68 H35     10.4542  -0.4946   1.2781   H         1 RES1   0.0000
    69 C27      9.5088   0.3406   2.8349   C.ar      1 RES1   0.0000
    70 H36      8.6510   0.1540   2.5245   H         1 RES1   0.0000
    71 C28      9.6539   1.0167   4.0663   C.ar      1 RES1   0.0000
    72 Cl2     16.4908  -0.3994   3.1503   Cl        2 RES2   0.0000
    73 O3      15.1854  -0.6661   3.1369   O.3       2 RES2  -1.0000
    74 O4      16.8898   0.8026   2.8933   O.2       2 RES2   0.0000
    75 O5      17.1561  -1.2571   2.2209   O.2       2 RES2   0.0000
    76 O6      17.0929  -0.8276   4.3016   O.2       2 RES2   0.0000
    77 C29      3.7458  -0.5346   9.0353   C.ar      3 RES3   0.0000
    78 C30      2.3698  -0.6574   9.2806   C.ar      3 RES3   0.0000
    79 H37      1.9602  -0.0551   9.8596   H         3 RES3   0.0000
    80 C31      1.6190  -1.6352   8.6982   C.ar      3 RES3   0.0000
    81 C32      2.2223  -2.5180   7.8356   C.ar      3 RES3   0.0000
    82 H38      1.7085  -3.1691   7.4134   H         3 RES3   0.0000
    83 C33      3.5910  -2.4554   7.5803   C.ar      3 RES3   0.0000
    84 C34      4.3269  -1.4437   8.1843   C.ar      3 RES3   0.0000
    85 H39      5.2376  -1.3786   8.0058   H         3 RES3   0.0000
    86 C35      4.5589   0.5609   9.6844   C.3       3 RES3   0.0000
    87 H40      3.9890   1.0956  10.2417   H         3 RES3   0.0000
    88 H41      4.9507   1.1144   9.0052   H         3 RES3   0.0000
    89 H42      5.2528   0.1690  10.2200   H         3 RES3   0.0000
    90 C36      0.1375  -1.7842   8.9919   C.3       3 RES3   0.0000
    91 H43     -0.2153  -2.5230   8.4913   H         3 RES3   0.0000
    92 H44     -0.3221  -0.9791   8.7416   H         3 RES3   0.0000
    93 H45      0.0115  -1.9445   9.9313   H         3 RES3   0.0000
    94 C37      4.2737  -3.4633   6.7193   C.3       3 RES3   0.0000
    95 H46      3.6283  -4.0894   6.3823   H         3 RES3   0.0000
    96 H47      4.9345  -3.9328   7.2366   H         3 RES3   0.0000
    97 H48      4.7028  -3.0188   5.9835   H         3 RES3   0.0000
@<TRIPOS>BOND
     1     1     2    1
     2     3     1    1
     3     4     1    1
     4     5     1    1
     5     6     1    1
     6     7     1    1
     7     8     3    1
     8     9     8    1
     9    10     8    1
    10    11     4    1
    11    12    11    1
    12    13    11    1
    13    14     4    1
    14    15    14    1
    15    16    14    1
    16    17     5    1
    17    18    17    1
    18    19    17    1
    19    20     5    1
    20    21    20    1
    21    22    20    1
    22    23     3    1
    23    24    23    1
    24    25    23    1
    25    26     3    1
    26    27    26    1
    27    28    26    1
    28    29    26    1
    29    30     4    1
    30    31    30    1
    31    32    30    1
    32    33    30    1
    33    34     5    1
    34    35    34    1
    35    36    34    1
    36    37    34    1
    37    38    39    1
    38    40    38    1
    39    41    38    1
    40    42     6    2
    41    43    42    1
    42    44     7    1
    43    45    44    1
    44    46    45    1
    45    47    45    1
    46    48    45    1
    47    49    43    1
    48    50    49   ar
    49    51    50   ar
    50    52    51    1
    51    53    51   ar
    52    54    53    1
    53    55    53   ar
    54    56    55    1
    55    57    55   ar
    56    58    57    1
    57    59    50   ar
    58    60    59   ar
    59    61    60    1
    60    62    60   ar
    61    63    62   ar
    62    64    63    1
    63    65    63   ar
    64    66    65    1
    65    67    65   ar
    66    68    67    1
    67    69    67   ar
    68    70    69    1
    69    71    49   ar
    70     8    11    1
    71    14    17    1
    72    20    23    1
    73    38    42    1
    74    43    44    2
    75    57    59   ar
    76    62    71   ar
    77    69    71   ar
    78    72    73    1
    79    74    72    2
    80    75    72    2
    81    76    72    2
    82    77    78   ar
    83    78    79    1
    84    80    78   ar
    85    81    80   ar
    86    82    81    1
    87    83    81   ar
    88    84    77   ar
    89    85    84    1
    90    86    77    1
    91    87    86    1
    92    88    86    1
    93    89    86    1
    94    90    80    1
    95    91    90    1
    96    92    90    1
    97    93    90    1
    98    94    83    1
    99    95    94    1
   100    96    94    1
   101    97    94    1
   102    83    84   ar
@<TRIPOS>SUBSTRUCTURE
     1 RES1        1 GROUP             0 ****  ****    0  
     2 RES2       72 GROUP             0 ****  ****    0  
     3 RES3       77 GROUP             0 ****  ****    0  
@<TRIPOS>CRYSIN
   18.4490   12.5210   16.6860   90.0000   90.3700   90.0000    14     1
