@<TRIPOS>MOLECULE
NUDJED
    78    80     4     0     0
SMALL
USER_CHARGES
****
Generated from the CSD

@<TRIPOS>ATOM
     1 Fe1     -3.2734   4.2784   8.2057   Fe        1 RES1   2.0000
     2 C1      -3.3300   3.0565   5.2707   C.2       1 RES1   0.0000
     3 H1      -4.1505   2.6628   5.4666   H         1 RES1   0.0000
     4 C2      -1.5770   4.2005   5.5024   C.2       1 RES1   0.0000
     5 C3       0.4016   5.1854   5.0683   C.2       1 RES1   0.0000
     6 C4       0.4082   4.6181   3.7735   C.2       1 RES1   0.0000
     7 H2       1.1117   4.8072   3.1953   H         1 RES1   0.0000
     8 C5      -0.5926   3.8052   3.3610   C.2       1 RES1   0.0000
     9 C6       1.5494   6.0188   5.5341   C.3       1 RES1   0.0000
    10 H3       1.2242   6.7136   6.1132   H         1 RES1   0.0000
    11 H4       1.9869   6.4132   4.7757   H         1 RES1   0.0000
    12 H5       2.1731   5.4694   6.0131   H         1 RES1   0.0000
    13 C7      -0.6801   3.0915   2.0636   C.3       1 RES1   0.0000
    14 H6       0.0752   3.3234   1.5197   H         1 RES1   0.0000
    15 H7      -1.4886   3.3457   1.6132   H         1 RES1   0.0000
    16 H8      -0.6843   2.1443   2.2188   H         1 RES1   0.0000
    17 N1      -2.7312   2.8656   4.1155   N.2       1 RES1   0.0000
    18 N2      -2.6968   3.8522   6.1593   N.2       1 RES1   0.0000
    19 N3      -0.5868   4.9834   5.9302   N.2       1 RES1   0.0000
    20 N4      -1.5953   3.6150   4.2724   N.pl3     1 RES1   0.0000
    21 O1      -1.2671   4.8225   8.7274   O.3       1 RES1   0.0000
    22 H9      -0.9250   4.2920   9.2593   H         1 RES1   0.0000
    23 H10     -0.7782   4.9269   8.1679   H         1 RES1   0.0000
    24 O2      -2.8363   2.2437   8.6380   O.3       1 RES1   0.0000
    25 H11     -3.0550   1.9355   9.3364   H         1 RES1   0.0000
    26 H12     -2.1555   2.0262   8.4765   H         1 RES1   0.0000
    27 C1B     -3.2168   5.5002  11.1407   C.2       1 RES1   0.0000
    28 H1B     -2.3963   5.8939  10.9447   H         1 RES1   0.0000
    29 C2B     -4.9698   4.3562  10.9090   C.2       1 RES1   0.0000
    30 C3B     -6.9484   3.3713  11.3430   C.2       1 RES1   0.0000
    31 C4B     -6.9551   3.9386  12.6379   C.2       1 RES1   0.0000
    32 H2B     -7.6585   3.7495  13.2161   H         1 RES1   0.0000
    33 C5B     -5.9542   4.7515  13.0503   C.2       1 RES1   0.0000
    34 C6B     -8.0962   2.5379  10.8773   C.3       1 RES1   0.0000
    35 H3B     -7.7710   1.8431  10.2981   H         1 RES1   0.0000
    36 H4B     -8.5337   2.1435  11.6357   H         1 RES1   0.0000
    37 H5B     -8.7199   3.0873  10.3982   H         1 RES1   0.0000
    38 C7B     -5.8667   5.4652  14.3478   C.3       1 RES1   0.0000
    39 H6B     -6.6220   5.2333  14.8917   H         1 RES1   0.0000
    40 H7B     -5.0582   5.2110  14.7981   H         1 RES1   0.0000
    41 H8B     -5.8625   6.4124  14.1925   H         1 RES1   0.0000
    42 N1B     -3.8156   5.6911  12.2959   N.2       1 RES1   0.0000
    43 N2B     -3.8500   4.7045  10.2520   N.2       1 RES1   0.0000
    44 N3B     -5.9600   3.5733  10.4811   N.2       1 RES1   0.0000
    45 N4B     -4.9515   4.9417  12.1390   N.pl3     1 RES1   0.0000
    46 O1B     -5.2797   3.7342   7.6840   O.3       1 RES1   0.0000
    47 H9B     -5.6218   4.2647   7.1521   H         1 RES1   0.0000
    48 H10B    -5.7686   3.6298   8.2434   H         1 RES1   0.0000
    49 O2B     -3.7105   6.3130   7.7734   O.3       1 RES1   0.0000
    50 H11B    -3.4918   6.6212   7.0749   H         1 RES1   0.0000
    51 H12B    -4.3913   6.5305   7.9349   H         1 RES1   0.0000
    52 Cl1      1.0290   1.8959   7.1522   Cl        2 RES2   0.0000
    53 O3       1.2611   2.2812   5.8342   O.3       2 RES2  -1.0000
    54 O4      -0.3582   1.7208   7.3137   O.2       2 RES2   0.0000
    55 O5       1.7314   0.6880   7.3891   O.2       2 RES2   0.0000
    56 O6       1.4452   2.9007   8.0427   O.2       2 RES2   0.0000
    57 C8      -1.7355   8.1511   5.1702   C.2       3 RES3   0.0000
    58 H13     -1.3815   8.6517   5.8687   H         3 RES3   0.0000
    59 C9      -3.0134   6.8513   4.1363   C.2       3 RES3   0.0000
    60 C10     -3.8768   5.6038   2.4560   C.2       3 RES3   0.0000
    61 C11     -2.8480   6.0325   1.5917   C.2       3 RES3   0.0000
    62 H14     -2.8257   5.7159   0.7172   H         3 RES3   0.0000
    63 C12     -1.8910   6.8967   2.0101   C.2       3 RES3   0.0000
    64 C13     -4.9214   4.6600   1.9490   C.3       3 RES3   0.0000
    65 H15     -5.5076   4.4187   2.6701   H         3 RES3   0.0000
    66 H16     -4.4942   3.8711   1.6067   H         3 RES3   0.0000
    67 H17     -5.4286   5.0775   1.2489   H         3 RES3   0.0000
    68 C14     -0.7549   7.4255   1.2098   C.3       3 RES3   0.0000
    69 H18     -0.6654   6.9112   0.4037   H         3 RES3   0.0000
    70 H19      0.0569   7.3682   1.7183   H         3 RES3   0.0000
    71 H20     -0.9291   8.3428   0.9863   H         3 RES3   0.0000
    72 N5      -1.1805   8.1520   3.9799   N.2       3 RES3   0.0000
    73 N6      -2.8436   7.3913   5.3378   N.2       3 RES3   0.0000
    74 N7      -3.9683   6.0119   3.7182   N.2       3 RES3   0.0000
    75 N8      -2.0084   7.2975   3.3030   N.pl3     3 RES3   0.0000
    76 O7      -4.5357   9.3662   2.7154   O.3       4 RES4   0.0000
    77 H21     -4.0123   9.8257   2.6997   H         4 RES4   0.0000
    78 H22     -5.0890   9.6999   3.2544   H         4 RES4   0.0000
@<TRIPOS>BOND
     1     1    18    1
     2     2     3    1
     3     4    18    2
     4     5     6    1
     5     6     7    1
     6     8     6    2
     7     9     5    1
     8    10     9    1
     9    11     9    1
    10    12     9    1
    11    13     8    1
    12    14    13    1
    13    15    13    1
    14    16    13    1
    15    17     2    2
    16    18     2    1
    17    19     4    1
    18    20     4    1
    19    21     1    1
    20    22    21    1
    21    23    21    1
    22    24     1    1
    23    25    24    1
    24    26    24    1
    25    27    28    1
    26    29    43    2
    27    30    31    1
    28    31    32    1
    29    33    31    2
    30    34    30    1
    31    35    34    1
    32    36    34    1
    33    37    34    1
    34    38    33    1
    35    39    38    1
    36    40    38    1
    37    41    38    1
    38    42    27    2
    39    43     1    1
    40    44    29    1
    41    45    29    1
    42    46     1    1
    43    47    46    1
    44    48    46    1
    45    49     1    1
    46    50    49    1
    47    51    49    1
    48     5    19    2
    49     8    20    1
    50    17    20    1
    51    27    43    1
    52    30    44    2
    53    33    45    1
    54    42    45    1
    55    52    53    1
    56    54    52    2
    57    55    52    2
    58    56    52    2
    59    57    58    1
    60    59    73    2
    61    60    61    1
    62    61    62    1
    63    63    61    2
    64    64    60    1
    65    65    64    1
    66    66    64    1
    67    67    64    1
    68    68    63    1
    69    69    68    1
    70    70    68    1
    71    71    68    1
    72    72    57    2
    73    73    57    1
    74    74    59    1
    75    75    59    1
    76    60    74    2
    77    63    75    1
    78    72    75    1
    79    76    77    1
    80    78    76    1
@<TRIPOS>SUBSTRUCTURE
     1 RES1        1 GROUP             0 ****  ****    0  
     2 RES2       52 GROUP             0 ****  ****    0  
     3 RES3       57 GROUP             0 ****  ****    0  
     4 RES4       76 GROUP             0 ****  ****    0  
@<TRIPOS>CRYSIN
   14.8776    8.5567   17.6690   90.0000  111.7480   90.0000   231     1
