@<TRIPOS>MOLECULE
NUFMOS01
   110   124     2     0     0
SMALL
USER_CHARGES
****
Generated from the CSD

@<TRIPOS>ATOM
     1 P1      16.3224  -5.4408   5.6587   P.3       1 RES1   1.0000
     2 C20     14.9250  -5.6717   4.5745   C.ar      1 RES1   0.0000
     3 C21     14.9546  -6.7348   3.6676   C.ar      1 RES1   0.0000
     4 H11     15.6673  -7.3320   3.6744   H         1 RES1   0.0000
     5 C22     13.9265  -6.8946   2.7629   C.ar      1 RES1   0.0000
     6 H12     13.9415  -7.6062   2.1639   H         1 RES1   0.0000
     7 C23     12.8930  -6.0171   2.7456   C.ar      1 RES1   0.0000
     8 H13     12.1983  -6.1372   2.1390   H         1 RES1   0.0000
     9 C24     12.8603  -4.9598   3.6065   C.ar      1 RES1   0.0000
    10 H14     12.1482  -4.3635   3.5763   H         1 RES1   0.0000
    11 C25     13.8834  -4.7657   4.5315   C.ar      1 RES1   0.0000
    12 H15     13.8653  -4.0371   5.1102   H         1 RES1   0.0000
    13 C20A    17.7198  -5.2099   4.5745   C.ar      1 RES1   0.0000
    14 C21A    17.6902  -4.1468   3.6676   C.ar      1 RES1   0.0000
    15 H11A    16.9775  -3.5496   3.6744   H         1 RES1   0.0000
    16 C22A    18.7183  -3.9870   2.7629   C.ar      1 RES1   0.0000
    17 H12A    18.7033  -3.2754   2.1639   H         1 RES1   0.0000
    18 C23A    19.7518  -4.8645   2.7456   C.ar      1 RES1   0.0000
    19 H13A    20.4465  -4.7444   2.1390   H         1 RES1   0.0000
    20 C24A    19.7845  -5.9218   3.6065   C.ar      1 RES1   0.0000
    21 H14A    20.4966  -6.5181   3.5763   H         1 RES1   0.0000
    22 C25A    18.7614  -6.1159   4.5315   C.ar      1 RES1   0.0000
    23 H15A    18.7795  -6.8445   5.1102   H         1 RES1   0.0000
    24 C20F    16.0915  -4.0434   6.7429   C.ar      1 RES1   0.0000
    25 C21F    15.0284  -4.0730   7.6498   C.ar      1 RES1   0.0000
    26 H11F    14.4312  -4.7857   7.6430   H         1 RES1   0.0000
    27 C22F    14.8686  -3.0449   8.5544   C.ar      1 RES1   0.0000
    28 H12F    14.1570  -3.0599   9.1535   H         1 RES1   0.0000
    29 C23F    15.7461  -2.0114   8.5718   C.ar      1 RES1   0.0000
    30 H13F    15.6260  -1.3167   9.1784   H         1 RES1   0.0000
    31 C24F    16.8034  -1.9787   7.7109   C.ar      1 RES1   0.0000
    32 H14F    17.3997  -1.2666   7.7411   H         1 RES1   0.0000
    33 C25F    16.9975  -3.0018   6.7859   C.ar      1 RES1   0.0000
    34 H15F    17.7261  -2.9837   6.2072   H         1 RES1   0.0000
    35 C20G    16.5533  -6.8382   6.7429   C.ar      1 RES1   0.0000
    36 C21G    17.6164  -6.8086   7.6498   C.ar      1 RES1   0.0000
    37 H11G    18.2136  -6.0959   7.6430   H         1 RES1   0.0000
    38 C22G    17.7762  -7.8367   8.5544   C.ar      1 RES1   0.0000
    39 H12G    18.4878  -7.8217   9.1535   H         1 RES1   0.0000
    40 C23G    16.8987  -8.8702   8.5718   C.ar      1 RES1   0.0000
    41 H13G    17.0188  -9.5649   9.1784   H         1 RES1   0.0000
    42 C24G    15.8414  -8.9029   7.7109   C.ar      1 RES1   0.0000
    43 H14G    15.2451  -9.6150   7.7411   H         1 RES1   0.0000
    44 C25G    15.6473  -7.8798   6.7859   C.ar      1 RES1   0.0000
    45 H15G    14.9187  -7.8979   6.2072   H         1 RES1   0.0000
    46 Fe1     10.8816   0.0000   3.7725   Fe        2 RES2   0.0000
    47 N1       9.6583  -0.9310   5.0868   N.2       2 RES2   0.0000
    48 N2      10.6838  -1.5493   2.4936   N.2       2 RES2   0.0000
    49 N3      13.3968  -1.4383   4.9155   N.1       2 RES2   0.0000
    50 C1       9.2230  -0.4283   6.2909   C.2       2 RES2   0.0000
    51 C2       8.3111  -1.3652   6.9202   C.2       2 RES2   0.0000
    52 C3       7.6189  -1.3341   8.1236   C.2       2 RES2   0.0000
    53 H1       7.6781  -0.6028   8.6963   H         2 RES2   0.0000
    54 C4       6.8410  -2.4279   8.4352   C.2       2 RES2   0.0000
    55 H2       6.3701  -2.4331   9.2372   H         2 RES2   0.0000
    56 C5       6.7392  -3.5230   7.5849   C.2       2 RES2   0.0000
    57 H3       6.2069  -4.2460   7.8286   H         2 RES2   0.0000
    58 C6       7.4182  -3.5481   6.3852   C.2       2 RES2   0.0000
    59 H4       7.3429  -4.2743   5.8096   H         2 RES2   0.0000
    60 C7       8.2173  -2.4575   6.0601   C.2       2 RES2   0.0000
    61 C8       9.0598  -2.1559   4.9193   C.2       2 RES2   0.0000
    62 C9       9.2161  -2.9820   3.8290   C.2       2 RES2   0.0000
    63 H5       8.7749  -3.7999   3.8509   H         2 RES2   0.0000
    64 C10      9.9675  -2.7034   2.7101   C.2       2 RES2   0.0000
    65 C11     10.1641  -3.6220   1.6139   C.2       2 RES2   0.0000
    66 C12      9.7149  -4.9318   1.3898   C.2       2 RES2   0.0000
    67 H6       9.1405  -5.3559   1.9858   H         2 RES2   0.0000
    68 C13     10.1595  -5.5657   0.2482   C.2       2 RES2   0.0000
    69 H7       9.8957  -6.4419   0.0830   H         2 RES2   0.0000
    70 C14     10.9911  -4.9285  -0.6594   C.2       2 RES2   0.0000
    71 H8      11.2625  -5.3820  -1.4245   H         2 RES2   0.0000
    72 C15     11.4213  -3.6421  -0.4519   C.2       2 RES2   0.0000
    73 H9      11.9698  -3.2144  -1.0691   H         2 RES2   0.0000
    74 C16     11.0080  -2.9927   0.7160   C.2       2 RES2   0.0000
    75 C17     11.3269  -1.6997   1.2872   C.2       2 RES2   0.0000
    76 C18     12.1750  -0.7806   0.7115   C.2       2 RES2   0.0000
    77 H10     12.5334  -0.9968  -0.1192   H         2 RES2   0.0000
    78 C19     12.4727  -0.9112   4.5066   C.1       2 RES2   0.0000
    79 N1D     12.1049   0.9310   2.4581   N.2       2 RES2   0.0000
    80 N2D     11.0794   1.5493   5.0513   N.2       2 RES2   0.0000
    81 C1D     12.5402   0.4283   1.2540   C.2       2 RES2   0.0000
    82 C2D     13.4521   1.3652   0.6247   C.2       2 RES2   0.0000
    83 C3D     14.1443   1.3341  -0.5787   C.2       2 RES2   0.0000
    84 H1D     14.0851   0.6028  -1.1514   H         2 RES2   0.0000
    85 C4D     14.9222   2.4279  -0.8903   C.2       2 RES2   0.0000
    86 H2D     15.3931   2.4331  -1.6923   H         2 RES2   0.0000
    87 C5D     15.0240   3.5230  -0.0400   C.2       2 RES2   0.0000
    88 H3D     15.5563   4.2460  -0.2837   H         2 RES2   0.0000
    89 C6D     14.3450   3.5481   1.1597   C.2       2 RES2   0.0000
    90 H4D     14.4203   4.2743   1.7353   H         2 RES2   0.0000
    91 C7D     13.5459   2.4575   1.4848   C.2       2 RES2   0.0000
    92 C8D     12.7034   2.1559   2.6256   C.2       2 RES2   0.0000
    93 C9D     12.5471   2.9820   3.7159   C.2       2 RES2   0.0000
    94 H5D     12.9883   3.7999   3.6940   H         2 RES2   0.0000
    95 C10D    11.7957   2.7034   4.8348   C.2       2 RES2   0.0000
    96 C11D    11.5991   3.6220   5.9310   C.2       2 RES2   0.0000
    97 C12D    12.0483   4.9318   6.1551   C.2       2 RES2   0.0000
    98 H6D     12.6227   5.3559   5.5591   H         2 RES2   0.0000
    99 C13D    11.6037   5.5657   7.2967   C.2       2 RES2   0.0000
   100 H7D     11.8675   6.4419   7.4619   H         2 RES2   0.0000
   101 C14D    10.7721   4.9285   8.2043   C.2       2 RES2   0.0000
   102 H8D     10.5007   5.3820   8.9694   H         2 RES2   0.0000
   103 C15D    10.3419   3.6421   7.9968   C.2       2 RES2   0.0000
   104 H9D      9.7934   3.2144   8.6140   H         2 RES2   0.0000
   105 C16D    10.7552   2.9927   6.8289   C.2       2 RES2   0.0000
   106 C17D    10.4363   1.6997   6.2577   C.2       2 RES2   0.0000
   107 C18D     9.5882   0.7806   6.8334   C.2       2 RES2   0.0000
   108 H10D     9.2298   0.9968   7.6641   H         2 RES2   0.0000
   109 N3D      8.3664   1.4383   2.6294   N.1       2 RES2   0.0000
   110 C19D     9.2905   0.9112   3.0383   C.1       2 RES2   0.0000
@<TRIPOS>BOND
     1     1     2    1
     2     2     3   ar
     3     3     4    1
     4     5     3   ar
     5     6     5    1
     6     7     5   ar
     7     8     7    1
     8     9     7   ar
     9    10     9    1
    10    11     2   ar
    11    12    11    1
    12    13     1    1
    13    14    13   ar
    14    15    14    1
    15    16    14   ar
    16    17    16    1
    17    18    16   ar
    18    19    18    1
    19    20    18   ar
    20    21    20    1
    21    22    13   ar
    22    23    22    1
    23    24     1    1
    24    25    24   ar
    25    26    25    1
    26    27    25   ar
    27    28    27    1
    28    29    27   ar
    29    30    29    1
    30    31    29   ar
    31    32    31    1
    32    33    24   ar
    33    34    33    1
    34    35     1    1
    35    36    35   ar
    36    37    36    1
    37    38    36   ar
    38    39    38    1
    39    40    38   ar
    40    41    40    1
    41    42    40   ar
    42    43    42    1
    43    44    35   ar
    44    45    44    1
    45     9    11   ar
    46    20    22   ar
    47    31    33   ar
    48    42    44   ar
    49    46    47   un
    50    47    50   un
    51    48    46   un
    52    49    78   un
    53    50    51   un
    54    51    52   un
    55    52    53    1
    56    54    52   un
    57    55    54    1
    58    56    54   un
    59    57    56    1
    60    58    56   un
    61    59    58    1
    62    60    51   un
    63    61    47   un
    64    62    61   un
    65    63    62    1
    66    64    48   un
    67    65    64   un
    68    66    65   un
    69    67    66    1
    70    68    66   un
    71    69    68    1
    72    70    68   un
    73    71    70    1
    74    72    70   un
    75    73    72    1
    76    74    65   un
    77    75    48   un
    78    76    75   un
    79    77    76    1
    80    78    46   un
    81    79    46   un
    82    80    46   un
    83    81    76   un
    84    82    81   un
    85    83    82   un
    86    84    83    1
    87    85    83   un
    88    86    85    1
    89    87    85   un
    90    88    87    1
    91    89    87   un
    92    90    89    1
    93    91    82   un
    94    92    79   un
    95    93    92   un
    96    94    93    1
    97    95    80   un
    98    96    95   un
    99    97    96   un
   100    98    97    1
   101    99    97   un
   102   100    99    1
   103   101    99   un
   104   102   101    1
   105   103   101   un
   106   104   103    1
   107   105    96   un
   108   106    80   un
   109   107    50   un
   110   108   107    1
   111   109   110   un
   112   110    46   un
   113    58    60   un
   114    60    61   un
   115    62    64   un
   116    72    74   un
   117    74    75   un
   118    79    81   un
   119    89    91   un
   120    91    92   un
   121    93    95   un
   122   103   105   un
   123   105   106   un
   124   106   107   un
@<TRIPOS>SUBSTRUCTURE
     1 RES1        1 GROUP             0 ****  ****    0  
     2 RES2       46 GROUP             0 ****  ****    0  
