@<TRIPOS>MOLECULE
NUMVUP
    79    88     1     0     0
SMALL
NO_CHARGES
****
Generated from the CSD

@<TRIPOS>ATOM
     1 B1      11.3942   2.6519  12.8024   B         1 RES1   0.0000
     2 S1      14.9358   6.6274  11.2401   S.3       1 RES1   0.0000
     3 Fe1      9.7541   0.0000  12.5119   Fe        1 RES1   0.0000
     4 N1       9.7493   1.2205  14.0628   N.ar      1 RES1   0.0000
     5 N2      10.5078   2.3534  14.0518   N.ar      1 RES1   0.0000
     6 N3       9.6419   1.5784  11.3514   N.ar      1 RES1   0.0000
     7 N4      10.3915   2.6882  11.6126   N.ar      1 RES1   0.0000
     8 N5      11.6957   0.1841  12.4422   N.ar      1 RES1   0.0000
     9 N6      12.2900   1.3981  12.6066   N.ar      1 RES1   0.0000
    10 C1       9.0697   1.2299  15.2066   C.ar      1 RES1   0.0000
    11 H1       8.4653   0.5511  15.4829   H         1 RES1   0.0000
    12 C2       9.3693   2.3779  15.9443   C.ar      1 RES1   0.0000
    13 H2       9.0194   2.6303  16.7907   H         1 RES1   0.0000
    14 C3      10.2809   3.0614  15.1773   C.ar      1 RES1   0.0000
    15 H3      10.6835   3.8922  15.4016   H         1 RES1   0.0000
    16 C4       8.8417   1.8867  10.3346   C.ar      1 RES1   0.0000
    17 H4       8.2162   1.2906   9.9398   H         1 RES1   0.0000
    18 C5       9.0469   3.2075   9.9262   C.ar      1 RES1   0.0000
    19 H5       8.6067   3.6762   9.2269   H         1 RES1   0.0000
    20 C6      10.0297   3.6746  10.7658   C.ar      1 RES1   0.0000
    21 H6      10.3956   4.5513  10.7520   H         1 RES1   0.0000
    22 C7      12.6716  -0.7096  12.3116   C.ar      1 RES1   0.0000
    23 H7      12.5380  -1.6406  12.1778   H         1 RES1   0.0000
    24 C8      13.9156  -0.0926  12.3981   C.ar      1 RES1   0.0000
    25 H8      14.7709  -0.5015  12.3377   H         1 RES1   0.0000
    26 C9      13.6338   1.2419  12.5914   C.ar      1 RES1   0.0000
    27 H9      14.2747   1.9353  12.6960   H         1 RES1   0.0000
    28 C10     12.2153   4.0133  13.0063   C.3       1 RES1   0.0000
    29 H10     11.5547   4.7263  13.1935   H         1 RES1   0.0000
    30 H11     12.7594   3.9049  13.8263   H         1 RES1   0.0000
    31 C11     13.1539   4.5432  11.9072   C.3       1 RES1   0.0000
    32 H12     13.8905   3.8995  11.7548   H         1 RES1   0.0000
    33 H13     12.6533   4.6487  11.0596   H         1 RES1   0.0000
    34 C12     13.7204   5.8808  12.3408   C.3       1 RES1   0.0000
    35 H14     14.1382   5.7661  13.2309   H         1 RES1   0.0000
    36 H15     12.9681   6.5156  12.4472   H         1 RES1   0.0000
    37 C13     13.9406   6.9917   9.7978   C.3       1 RES1   0.0000
    38 H16     14.5017   7.4107   9.1117   H         1 RES1   0.0000
    39 H17     13.5595   6.1610   9.4455   H         1 RES1   0.0000
    40 H18     13.2173   7.6042  10.0465   H         1 RES1   0.0000
    41 B1B      8.1140  -2.6519  12.2214   B         1 RES1   0.0000
    42 S1B      4.5724  -6.6274  13.7838   S.3       1 RES1   0.0000
    43 N1B      9.7590  -1.2205  10.9611   N.ar      1 RES1   0.0000
    44 N2B      9.0005  -2.3534  10.9721   N.ar      1 RES1   0.0000
    45 N3B      9.8664  -1.5784  13.6724   N.ar      1 RES1   0.0000
    46 N4B      9.1167  -2.6882  13.4113   N.ar      1 RES1   0.0000
    47 N5B      7.8125  -0.1841  12.5816   N.ar      1 RES1   0.0000
    48 N6B      7.2183  -1.3981  12.4172   N.ar      1 RES1   0.0000
    49 C1B     10.4386  -1.2299   9.8172   C.ar      1 RES1   0.0000
    50 H1B     11.0430  -0.5511   9.5410   H         1 RES1   0.0000
    51 C2B     10.1390  -2.3779   9.0795   C.ar      1 RES1   0.0000
    52 H2B     10.4889  -2.6303   8.2331   H         1 RES1   0.0000
    53 C3B      9.2274  -3.0614   9.8465   C.ar      1 RES1   0.0000
    54 H3B      8.8248  -3.8922   9.6222   H         1 RES1   0.0000
    55 C4B     10.6666  -1.8867  14.6892   C.ar      1 RES1   0.0000
    56 H4B     11.2921  -1.2906  15.0841   H         1 RES1   0.0000
    57 C5B     10.4614  -3.2075  15.0976   C.ar      1 RES1   0.0000
    58 H5B     10.9015  -3.6762  15.7969   H         1 RES1   0.0000
    59 C6B      9.4786  -3.6746  14.2581   C.ar      1 RES1   0.0000
    60 H6B      9.1126  -4.5513  14.2718   H         1 RES1   0.0000
    61 C7B      6.8366   0.7096  12.7122   C.ar      1 RES1   0.0000
    62 H7B      6.9703   1.6406  12.8461   H         1 RES1   0.0000
    63 C8B      5.5927   0.0926  12.6258   C.ar      1 RES1   0.0000
    64 H8B      4.7373   0.5015  12.6861   H         1 RES1   0.0000
    65 C9B      5.8745  -1.2419  12.4325   C.ar      1 RES1   0.0000
    66 H9B      5.2336  -1.9353  12.3279   H         1 RES1   0.0000
    67 C10B     7.2929  -4.0133  12.0176   C.3       1 RES1   0.0000
    68 H10B     7.9536  -4.7263  11.8303   H         1 RES1   0.0000
    69 H11B     6.7489  -3.9049  11.1976   H         1 RES1   0.0000
    70 C11B     6.3544  -4.5432  13.1166   C.3       1 RES1   0.0000
    71 H12B     5.6178  -3.8995  13.2691   H         1 RES1   0.0000
    72 H13B     6.8549  -4.6487  13.9643   H         1 RES1   0.0000
    73 C12B     5.7879  -5.8808  12.6831   C.3       1 RES1   0.0000
    74 H14B     5.3701  -5.7661  11.7929   H         1 RES1   0.0000
    75 H15B     6.5402  -6.5156  12.5766   H         1 RES1   0.0000
    76 C13B     5.5677  -6.9917  15.2260   C.3       1 RES1   0.0000
    77 H16B     5.0065  -7.4107  15.9121   H         1 RES1   0.0000
    78 H17B     5.9488  -6.1610  15.5783   H         1 RES1   0.0000
    79 H18B     6.2910  -7.6042  14.9774   H         1 RES1   0.0000
@<TRIPOS>BOND
     1     1     5    1
     2     2    34    1
     3     3     4    1
     4     4     5   ar
     5     5    14   ar
     6     6     3    1
     7     7     1    1
     8     8     3    1
     9     9     1    1
    10    10     4   ar
    11    11    10    1
    12    12    10   ar
    13    13    12    1
    14    14    12   ar
    15    15    14    1
    16    16     6   ar
    17    17    16    1
    18    18    16   ar
    19    19    18    1
    20    20     7   ar
    21    21    20    1
    22    22     8   ar
    23    23    22    1
    24    24    22   ar
    25    25    24    1
    26    26     9   ar
    27    27    26    1
    28    28     1    1
    29    29    28    1
    30    30    28    1
    31    31    28    1
    32    32    31    1
    33    33    31    1
    34    34    31    1
    35    35    34    1
    36    36    34    1
    37    37     2    1
    38    38    37    1
    39    39    37    1
    40    40    37    1
    41    41    44    1
    42    42    73    1
    43    43     3    1
    44    44    43   ar
    45    45     3    1
    46    46    41    1
    47    47     3    1
    48    48    41    1
    49    49    43   ar
    50    50    49    1
    51    51    49   ar
    52    52    51    1
    53    53    44   ar
    54    54    53    1
    55    55    45   ar
    56    56    55    1
    57    57    55   ar
    58    58    57    1
    59    59    46   ar
    60    60    59    1
    61    61    47   ar
    62    62    61    1
    63    63    61   ar
    64    64    63    1
    65    65    48   ar
    66    66    65    1
    67    67    41    1
    68    68    67    1
    69    69    67    1
    70    70    67    1
    71    71    70    1
    72    72    70    1
    73    73    70    1
    74    74    73    1
    75    75    73    1
    76    76    42    1
    77    77    76    1
    78    78    76    1
    79    79    76    1
    80     6     7   ar
    81     8     9   ar
    82    18    20   ar
    83    24    26   ar
    84    45    46   ar
    85    47    48   ar
    86    51    53   ar
    87    57    59   ar
    88    63    65   ar
@<TRIPOS>SUBSTRUCTURE
     1 RES1        1 GROUP             0 ****  ****    0  
@<TRIPOS>CRYSIN
   12.0338   10.3275   12.7179   90.0000  100.3260   90.0000   231     1
