@<TRIPOS>MOLECULE
NUPNIV
    76    80     6     0     0
SMALL
USER_CHARGES
****
Generated from the CSD

@<TRIPOS>ATOM
     1 Fe1      6.0640   3.0743   2.6106   Fe        1 RES1   2.0000
     2 N1       6.8778   0.3368   1.4285   N.pl3     1 RES1   0.0000
     3 N2       6.0546   1.1875   2.0786   N.2       1 RES1   0.0000
     4 N3       5.9078   6.0047   3.6291   N.pl3     1 RES1   0.0000
     5 N4       5.4611   4.7373   3.4759   N.2       1 RES1   0.0000
     6 N5       4.4189   2.4895   3.3962   N.ar      1 RES1   0.0000
     7 C1       6.3915  -0.9176   1.4708   C.2       1 RES1   0.0000
     8 C2       5.2079  -0.8949   2.1520   C.2       1 RES1   0.0000
     9 C3       5.0305   0.4475   2.5194   C.2       1 RES1   0.0000
    10 C4       4.0242   1.2004   3.2542   C.ar      1 RES1   0.0000
    11 C5       2.8230   0.7657   3.7549   C.ar      1 RES1   0.0000
    12 C6       5.0056   6.7271   4.3365   C.2       1 RES1   0.0000
    13 C7       3.9542   5.9259   4.6441   C.2       1 RES1   0.0000
    14 C8       4.2692   4.6854   4.0911   C.2       1 RES1   0.0000
    15 C9       3.6282   3.3838   4.0401   C.ar      1 RES1   0.0000
    16 C10      2.3998   3.0090   4.5357   C.ar      1 RES1   0.0000
    17 C11      2.0032   1.6865   4.3875   C.ar      1 RES1   0.0000
    18 N6       4.1737   3.8558   0.3064   N.pl3     1 RES1   0.0000
    19 N7       5.3831   3.6917   0.8780   N.2       1 RES1   0.0000
    20 N8       7.3412   2.1908   5.2780   N.pl3     1 RES1   0.0000
    21 N9       7.3632   2.6948   4.0239   N.2       1 RES1   0.0000
    22 N10      7.6904   3.5981   1.7523   N.ar      1 RES1   0.0000
    23 C12      4.3272   4.4161  -0.9166   C.2       1 RES1   0.0000
    24 C13      5.6459   4.6132  -1.1433   C.2       1 RES1   0.0000
    25 C14      6.2789   4.1497   0.0075   C.2       1 RES1   0.0000
    26 C15      7.6534   4.0623   0.4770   C.ar      1 RES1   0.0000
    27 C16      8.8224   4.3764  -0.1930   C.ar      1 RES1   0.0000
    28 C17      8.5949   2.1119   5.7637   C.2       1 RES1   0.0000
    29 C18      9.4545   2.5654   4.8197   C.2       1 RES1   0.0000
    30 C19      8.6476   2.9113   3.7362   C.2       1 RES1   0.0000
    31 C20      8.8634   3.4475   2.3887   C.ar      1 RES1   0.0000
    32 C21     10.0647   3.7601   1.7759   C.ar      1 RES1   0.0000
    33 C22     10.0284   4.2183   0.4745   C.ar      1 RES1   0.0000
    34 H1       7.7301   0.6014   0.9764   H         1 RES1   0.0000
    35 H2       6.7766   6.3545   3.2729   H         1 RES1   0.0000
    36 H3       6.8200  -1.7280   1.0723   H         1 RES1   0.0000
    37 H4       4.5986  -1.6642   2.3538   H         1 RES1   0.0000
    38 H5       2.5408  -0.1878   3.6639   H         1 RES1   0.0000
    39 H6       5.0989   7.6975   4.5855   H         1 RES1   0.0000
    40 H7       3.1326   6.1724   5.1696   H         1 RES1   0.0000
    41 H8       1.8039   3.6752   4.9866   H         1 RES1   0.0000
    42 H9       1.1124   1.3988   4.7387   H         1 RES1   0.0000
    43 H10      3.2980   3.6042   0.7286   H         1 RES1   0.0000
    44 H11      6.5174   1.9174   5.7711   H         1 RES1   0.0000
    45 H12      3.5858   4.6530  -1.5493   H         1 RES1   0.0000
    46 H13      6.0804   4.9997  -1.9627   H         1 RES1   0.0000
    47 H14      8.7953   4.7163  -1.1370   H         1 RES1   0.0000
    48 H15      8.8521   1.7762   6.6728   H         1 RES1   0.0000
    49 H16     10.4483   2.6298   4.8844   H         1 RES1   0.0000
    50 H17     10.9306   3.6548   2.2691   H         1 RES1   0.0000
    51 H18     10.8901   4.4423   0.0000   H         1 RES1   0.0000
    52 S1       5.1741   1.0820   7.8497   S.o2      2 RES2   0.0000
    53 O1       6.5784   1.0582   8.1249   O.3       2 RES2  -1.0000
    54 O2       4.8567   1.8664   6.6952   O.2       2 RES2   0.0000
    55 O3       4.3426   1.3011   8.9618   O.2       2 RES2   0.0000
    56 C23      4.8412  -0.6028   7.3179   C.3       2 RES2   0.0000
    57 F1       3.5624  -0.7361   6.9854   F         2 RES2   0.0000
    58 F2       5.5421  -0.9114   6.2606   F         2 RES2   0.0000
    59 F3       5.0988  -1.4665   8.2370   F         2 RES2   0.0000
    60 S2       0.5090   1.2724  -2.4696   S.o2      3 RES3   0.0000
    61 O4      -0.8001   1.8097  -2.4298   O.3       3 RES3  -1.0000
    62 O5       0.5728  -0.1126  -2.1981   O.2       3 RES3   0.0000
    63 O6       1.4288   2.1088  -1.8096   O.2       3 RES3   0.0000
    64 C24      0.9835   1.4090  -4.1895   C.3       3 RES3   0.0000
    65 F4       2.1905   1.0071  -4.3863   F         3 RES3   0.0000
    66 F5       0.2500   0.7203  -4.9778   F         3 RES3   0.0000
    67 F6       0.9579   2.6683  -4.5930   F         3 RES3   0.0000
    68 O7       8.1200   6.8975   2.3600   O.3       4 RES4   0.0000
    69 H19      8.7654   6.8754   3.0574   H         4 RES4   0.0000
    70 H20      8.3428   7.8186   2.3164   H         4 RES4   0.0000
    71 O8       9.1990   0.7974   0.0012   O.3       5 RES5   0.0000
    72 H21      9.9326   0.7441   0.5243   H         5 RES5   0.0000
    73 H22      9.6433   1.2211  -0.8332   H         5 RES5   0.0000
    74 O9       1.7780   2.5092   0.9839   O.3       6 RES6   0.0000
    75 H23      1.9010   2.2948   0.0174   H         6 RES6   0.0000
    76 H24      1.0100   1.7686   1.0225   H         6 RES6   0.0000
@<TRIPOS>BOND
     1     1     3    1
     2     2     3    1
     3     3     9    2
     4     4     5    1
     5     5     1    1
     6     6     1    1
     7     7     2    1
     8     8     7    2
     9     9     8    1
    10    10     6   ar
    11    11    10   ar
    12    12     4    1
    13    13    12    2
    14    14     5    2
    15    15     6   ar
    16    16    15   ar
    17    17    11   ar
    18    18    19    1
    19    19     1    1
    20    20    21    1
    21    21     1    1
    22    22     1    1
    23    23    18    1
    24    24    23    2
    25    25    19    2
    26    26    22   ar
    27    27    26   ar
    28    28    20    1
    29    29    28    2
    30    30    21    2
    31    31    22   ar
    32    32    31   ar
    33    33    27   ar
    34    34     2    1
    35    35     4    1
    36    36     7    1
    37    37     8    1
    38    38    11    1
    39    39    12    1
    40    40    13    1
    41    41    16    1
    42    42    17    1
    43    43    18    1
    44    44    20    1
    45    45    23    1
    46    46    24    1
    47    47    27    1
    48    48    28    1
    49    49    29    1
    50    50    32    1
    51    51    33    1
    52     9    10    1
    53    13    14    1
    54    14    15    1
    55    16    17   ar
    56    24    25    1
    57    25    26    1
    58    29    30    1
    59    30    31    1
    60    32    33   ar
    61    52    53    1
    62    54    52    2
    63    55    52    2
    64    56    52    1
    65    57    56    1
    66    58    56    1
    67    59    56    1
    68    60    61    1
    69    62    60    2
    70    63    60    2
    71    64    60    1
    72    65    64    1
    73    66    64    1
    74    67    64    1
    75    68    69    1
    76    70    68    1
    77    71    72    1
    78    73    71    1
    79    74    75    1
    80    76    74    1
@<TRIPOS>SUBSTRUCTURE
     1 RES1        1 GROUP             0 ****  ****    0  
     2 RES2       52 GROUP             0 ****  ****    0  
     3 RES3       60 GROUP             0 ****  ****    0  
     4 RES4       68 GROUP             0 ****  ****    0  
     5 RES5       71 GROUP             0 ****  ****    0  
     6 RES6       74 GROUP             0 ****  ****    0  
@<TRIPOS>CRYSIN
   11.4900   12.2180   13.6660  104.6700  104.5800  104.3500     2     1
