@<TRIPOS>MOLECULE
NUSMOE
    80    85     2     0     0
SMALL
USER_CHARGES
****
Generated from the CSD

@<TRIPOS>ATOM
     1 Fe1     13.0357   6.5437  13.4703   Fe        1 RES1   0.0000
     2 S1      13.9525   8.2866  14.5836   S.3       1 RES1  -1.0000
     3 C1      15.4173   7.6550  15.2628   C.2       1 RES1   0.0000
     4 C2      15.8476   6.3881  14.9573   C.2       1 RES1   0.0000
     5 S2      14.8718   5.3426  13.9777   S.3       1 RES1   0.0000
     6 C3      16.1137   8.5070  16.1871   C.1       1 RES1   0.0000
     7 N1      16.6196   9.2173  16.9392   N.1       1 RES1   0.0000
     8 C4      17.1066   5.8629  15.4101   C.1       1 RES1   0.0000
     9 N2      18.1141   5.3995  15.7363   N.1       1 RES1   0.0000
    10 S3      11.2609   7.8790  13.1652   S.3       1 RES1   0.0000
    11 C5      10.2703   7.5772  14.5569   C.2       1 RES1   0.0000
    12 C6      10.6092   6.6060  15.4700   C.2       1 RES1   0.0000
    13 S4      11.9823   5.5852  15.2297   S.3       1 RES1   0.0000
    14 C7       9.1059   8.3906  14.7523   C.1       1 RES1   0.0000
    15 N3       8.1711   9.0416  14.9184   N.1       1 RES1   0.0000
    16 C8       9.8630   6.4578  16.6856   C.1       1 RES1   0.0000
    17 N4       9.2953   6.3383  17.6898   N.1       1 RES1   0.0000
    18 S5      13.6972   7.2712  11.3632   S.2       1 RES1   0.0000
    19 C9      13.2321   5.7192  10.7662   C.3       1 RES1   0.0000
    20 S6      12.5490   4.7670  12.0350   S.2       1 RES1   0.0000
    21 N5      13.3910   5.3213   9.5221   N.pl3     1 RES1   0.0000
    22 C10     14.0877   6.1650   8.5321   C.3       1 RES1   0.0000
    23 H1      14.6667   5.5935   7.9676   H         1 RES1   0.0000
    24 H2      14.6677   6.8111   9.0076   H         1 RES1   0.0000
    25 C11     13.1167   6.9260   7.6406   C.3       1 RES1   0.0000
    26 H3      12.5990   6.2904   7.1049   H         1 RES1   0.0000
    27 H4      13.6186   7.5229   7.0470   H         1 RES1   0.0000
    28 H5      12.5083   7.4558   8.1973   H         1 RES1   0.0000
    29 C12     12.9135   4.0006   9.0741   C.3       1 RES1   0.0000
    30 H6      12.5718   4.0737   8.1487   H         1 RES1   0.0000
    31 H7      12.1660   3.7096   9.6537   H         1 RES1   0.0000
    32 C13     14.0212   2.9575   9.1204   C.3       1 RES1   0.0000
    33 H8      14.7853   3.2687   8.5912   H         1 RES1   0.0000
    34 H9      13.6904   2.1130   8.7518   H         1 RES1   0.0000
    35 H10     14.3014   2.8203  10.0496   H         1 RES1   0.0000
    36 P1       6.1712   7.2710  11.0135   P.3       2 RES2   1.0000
    37 C14      5.0259   8.3489  11.8881   C.ar      2 RES2   0.0000
    38 C15      5.5763   9.2763  12.7832   C.ar      2 RES2   0.0000
    39 H11      6.5174   9.3188  12.9046   H         2 RES2   0.0000
    40 C16      4.7429  10.1335  13.4930   C.ar      2 RES2   0.0000
    41 H12      5.1122  10.7535  14.1109   H         2 RES2   0.0000
    42 C17      3.3618  10.0791  13.2932   C.ar      2 RES2   0.0000
    43 H13      2.7907  10.6588  13.7841   H         2 RES2   0.0000
    44 C18      2.8152   9.1793  12.3780   C.ar      2 RES2   0.0000
    45 H14      1.8763   9.1636  12.2361   H         2 RES2   0.0000
    46 C19      3.6381   8.3041  11.6707   C.ar      2 RES2   0.0000
    47 H15      3.2668   7.6871  11.0523   H         2 RES2   0.0000
    48 C20      7.0399   6.1976  12.1605   C.ar      2 RES2   0.0000
    49 C21      8.0086   5.3212  11.6405   C.ar      2 RES2   0.0000
    50 H16      8.1750   5.2921  10.7050   H         2 RES2   0.0000
    51 C22      8.7234   4.4938  12.5097   C.ar      2 RES2   0.0000
    52 H17      9.4006   3.9193  12.1726   H         2 RES2   0.0000
    53 C23      8.4411   4.5147  13.8698   C.ar      2 RES2   0.0000
    54 H18      8.9422   3.9648  14.4619   H         2 RES2   0.0000
    55 C24      7.4345   5.3294  14.3768   C.ar      2 RES2   0.0000
    56 H19      7.2183   5.3003  15.3022   H         2 RES2   0.0000
    57 C25      6.7420   6.1896  13.5227   C.ar      2 RES2   0.0000
    58 H20      6.0713   6.7664  13.8681   H         2 RES2   0.0000
    59 C26      7.3434   8.3409  10.1603   C.ar      2 RES2   0.0000
    60 C27      8.7216   8.2795  10.4249   C.ar      2 RES2   0.0000
    61 H21      9.0674   7.6251  11.0205   H         2 RES2   0.0000
    62 C28      9.5786   9.1905   9.8029   C.ar      2 RES2   0.0000
    63 H22     10.5116   9.1532   9.9749   H         2 RES2   0.0000
    64 C29      9.0759  10.1522   8.9324   C.ar      2 RES2   0.0000
    65 H23      9.6655  10.7692   8.5166   H         2 RES2   0.0000
    66 C30      7.7089  10.2119   8.6682   C.ar      2 RES2   0.0000
    67 H24      7.3694  10.8669   8.0703   H         2 RES2   0.0000
    68 C31      6.8377   9.3099   9.2808   C.ar      2 RES2   0.0000
    69 H25      5.9061   9.3524   9.1029   H         2 RES2   0.0000
    70 C32      5.2900   6.1888   9.8755   C.ar      2 RES2   0.0000
    71 C33      5.5472   6.1857   8.5027   C.ar      2 RES2   0.0000
    72 H26      6.1745   6.7932   8.1300   H         2 RES2   0.0000
    73 C34      4.8691   5.2772   7.6847   C.ar      2 RES2   0.0000
    74 H27      5.0479   5.2585   6.7520   H         2 RES2   0.0000
    75 C35      3.9339   4.3996   8.2284   C.ar      2 RES2   0.0000
    76 H28      3.4574   3.8051   7.6614   H         2 RES2   0.0000
    77 C36      3.6938   4.3908   9.6046   C.ar      2 RES2   0.0000
    78 H29      3.0639   3.7820   9.9749   H         2 RES2   0.0000
    79 C37      4.3766   5.2727  10.4314   C.ar      2 RES2   0.0000
    80 H30      4.2277   5.2585  11.3697   H         2 RES2   0.0000
@<TRIPOS>BOND
     1     1     2    1
     2     2     3    1
     3     3     4    2
     4     4     5    1
     5     5     1    1
     6     6     3    1
     7     7     6    3
     8     8     4    1
     9     9     8    3
    10    10     1    1
    11    11    10    1
    12    12    11    2
    13    13     1    1
    14    14    11    1
    15    15    14    3
    16    16    12    1
    17    17    16    3
    18    18     1    1
    19    19    18   un
    20    20     1    1
    21    21    19    1
    22    22    21    1
    23    23    22    1
    24    24    22    1
    25    25    22    1
    26    26    25    1
    27    27    25    1
    28    28    25    1
    29    29    21    1
    30    30    29    1
    31    31    29    1
    32    32    29    1
    33    33    32    1
    34    34    32    1
    35    35    32    1
    36    12    13    1
    37    19    20   un
    38    36    37    1
    39    37    38   ar
    40    38    39    1
    41    40    38   ar
    42    41    40    1
    43    42    40   ar
    44    43    42    1
    45    44    42   ar
    46    45    44    1
    47    46    37   ar
    48    47    46    1
    49    48    36    1
    50    49    48   ar
    51    50    49    1
    52    51    49   ar
    53    52    51    1
    54    53    51   ar
    55    54    53    1
    56    55    53   ar
    57    56    55    1
    58    57    48   ar
    59    58    57    1
    60    59    36    1
    61    60    59   ar
    62    61    60    1
    63    62    60   ar
    64    63    62    1
    65    64    62   ar
    66    65    64    1
    67    66    64   ar
    68    67    66    1
    69    68    59   ar
    70    69    68    1
    71    70    36    1
    72    71    70   ar
    73    72    71    1
    74    73    71   ar
    75    74    73    1
    76    75    73   ar
    77    76    75    1
    78    77    75   ar
    79    78    77    1
    80    79    70   ar
    81    80    79    1
    82    44    46   ar
    83    55    57   ar
    84    66    68   ar
    85    77    79   ar
@<TRIPOS>SUBSTRUCTURE
     1 RES1        1 GROUP             0 ****  ****    0  
     2 RES2       36 GROUP             0 ****  ****    0  
