@<TRIPOS>MOLECULE
NUSMIY
    80    85     2     0     0
SMALL
USER_CHARGES
****
Generated from the CSD

@<TRIPOS>ATOM
     1 Fe1     10.2142  10.5317   4.4577   Fe        1 RES1   0.0000
     2 S1       9.2917  10.5725   2.3676   S.3       1 RES1  -1.0000
     3 C1       8.0558  11.7877   2.5150   C.2       1 RES1   0.0000
     4 C2       7.7710  12.3800   3.7204   C.2       1 RES1   0.0000
     5 S2       8.6469  11.9771   5.1784   S.3       1 RES1   0.0000
     6 C3       7.2830  12.0831   1.3416   C.1       1 RES1   0.0000
     7 N1       6.6632  12.2966   0.3892   N.1       1 RES1   0.0000
     8 C4       6.6746  13.3074   3.8204   C.1       1 RES1   0.0000
     9 N2       5.7954  14.0509   3.8912   N.1       1 RES1   0.0000
    10 S3      11.4019   8.6427   3.6881   S.2       1 RES1   0.0000
    11 C5      10.2142   7.6675   4.4577   C.3       1 RES1   0.0000
    12 N3      10.2142   6.3420   4.4577   N.pl3     1 RES1   0.0000
    13 C6      11.3294   5.5864   3.8600   C.3       1 RES1   0.0000
    14 H1      11.4338   4.7305   4.3454   H         1 RES1   0.0000
    15 H2      12.1652   6.1034   3.9781   H         1 RES1   0.0000
    16 C7      11.1356   5.2937   2.3824   C.3       1 RES1   0.0000
    17 H3      10.3184   4.7672   2.2574   H         1 RES1   0.0000
    18 H4      11.9037   4.7870   2.0470   H         1 RES1   0.0000
    19 H5      11.0600   6.1371   1.8901   H         1 RES1   0.0000
    20 S1B     11.1368  10.5725   6.5479   S.3       1 RES1  -1.0000
    21 C1B     12.3727  11.7877   6.4004   C.2       1 RES1   0.0000
    22 C2B     12.6575  12.3800   5.1950   C.2       1 RES1   0.0000
    23 S2B     11.7816  11.9771   3.7370   S.3       1 RES1   0.0000
    24 C3B     13.1455  12.0831   7.5739   C.1       1 RES1   0.0000
    25 N1B     13.7653  12.2966   8.5262   N.1       1 RES1   0.0000
    26 C4B     13.7539  13.3074   5.0950   C.1       1 RES1   0.0000
    27 N2B     14.6331  14.0509   5.0242   N.1       1 RES1   0.0000
    28 S3B      9.0266   8.6427   5.2273   S.2       1 RES1   0.0000
    29 C6B      9.0991   5.5864   5.0554   C.3       1 RES1   0.0000
    30 H1B      8.9947   4.7305   4.5701   H         1 RES1   0.0000
    31 H2B      8.2633   6.1034   4.9374   H         1 RES1   0.0000
    32 C7B      9.2929   5.2937   6.5331   C.3       1 RES1   0.0000
    33 H3B     10.1101   4.7672   6.6581   H         1 RES1   0.0000
    34 H4B      8.5248   4.7870   6.8685   H         1 RES1   0.0000
    35 H5B      9.3685   6.1371   7.0254   H         1 RES1   0.0000
    36 P1      13.0548   2.5328   7.4389   P.3       2 RES2   1.0000
    37 C8      14.0285   1.8255   8.7776   C.ar      2 RES2   0.0000
    38 C9      14.5864   2.6203   9.7827   C.ar      2 RES2   0.0000
    39 H6      14.4082   3.5532   9.8088   H         2 RES2   0.0000
    40 C10     15.4076   2.0358  10.7476   C.ar      2 RES2   0.0000
    41 H7      15.7790   2.5701  11.4403   H         2 RES2   0.0000
    42 C11     15.6819   0.6813  10.6985   C.ar      2 RES2   0.0000
    43 H8      16.2447   0.2905  11.3565   H         2 RES2   0.0000
    44 C12     15.1373  -0.1138   9.6920   C.ar      2 RES2   0.0000
    45 H9      15.3357  -1.0427   9.6608   H         2 RES2   0.0000
    46 C13     14.3032   0.4501   8.7341   C.ar      2 RES2   0.0000
    47 H10     13.9220  -0.0917   8.0542   H         2 RES2   0.0000
    48 C14     11.5078   1.6188   7.2504   C.ar      2 RES2   0.0000
    49 C15     10.3258   1.9931   7.9003   C.ar      2 RES2   0.0000
    50 H11     10.3021   2.7765   8.4376   H         2 RES2   0.0000
    51 C16      9.1844   1.2052   7.7527   C.ar      2 RES2   0.0000
    52 H12      8.3777   1.4616   8.1844   H         2 RES2   0.0000
    53 C17      9.2128   0.0538   6.9840   C.ar      2 RES2   0.0000
    54 H13      8.4268  -0.4724   6.8899   H         2 RES2   0.0000
    55 C18     10.3910  -0.3338   6.3490   C.ar      2 RES2   0.0000
    56 H14     10.4124  -1.1283   5.8271   H         2 RES2   0.0000
    57 C19     11.5378   0.4454   6.4799   C.ar      2 RES2   0.0000
    58 H15     12.3409   0.1819   6.0482   H         2 RES2   0.0000
    59 C20     13.9858   2.3394   5.9102   C.ar      2 RES2   0.0000
    60 C21     13.3506   2.4319   4.6597   C.ar      2 RES2   0.0000
    61 H16     12.4062   2.5120   4.6093   H         2 RES2   0.0000
    62 C22     14.1149   2.4061   3.4957   C.ar      2 RES2   0.0000
    63 H17     13.6932   2.4769   2.6479   H         2 RES2   0.0000
    64 C23     15.4975   2.2773   3.5790   C.ar      2 RES2   0.0000
    65 H18     16.0180   2.2720   2.7852   H         2 RES2   0.0000
    66 C24     16.1232   2.1561   4.8129   C.ar      2 RES2   0.0000
    67 H19     17.0660   2.0488   4.8571   H         2 RES2   0.0000
    68 C25     15.3733   2.1916   5.9873   C.ar      2 RES2   0.0000
    69 H20     15.8014   2.1160   6.8328   H         2 RES2   0.0000
    70 C26     12.7931   4.2934   7.7172   C.ar      2 RES2   0.0000
    71 C27     13.2773   5.2061   6.7720   C.ar      2 RES2   0.0000
    72 H21     13.7647   4.8971   6.0161   H         2 RES2   0.0000
    73 C28     13.0436   6.5685   6.9426   C.ar      2 RES2   0.0000
    74 H22     13.3725   7.1890   6.3032   H         2 RES2   0.0000
    75 C29     12.3308   7.0243   8.0433   C.ar      2 RES2   0.0000
    76 H23     12.1529   7.9519   8.1434   H         2 RES2   0.0000
    77 C30     11.8761   6.1190   9.0034   C.ar      2 RES2   0.0000
    78 H24     11.4032   6.4368   9.7624   H         2 RES2   0.0000
    79 C31     12.1094   4.7603   8.8591   C.ar      2 RES2   0.0000
    80 H25     11.8118   4.1495   9.5235   H         2 RES2   0.0000
@<TRIPOS>BOND
     1     1     2    1
     2     2     3    1
     3     3     4    2
     4     4     5    1
     5     5     1    1
     6     6     3    1
     7     7     6    3
     8     8     4    1
     9     9     8    3
    10    10     1    1
    11    11    10   un
    12    12    11    1
    13    13    12    1
    14    14    13    1
    15    15    13    1
    16    16    13    1
    17    17    16    1
    18    18    16    1
    19    19    16    1
    20    20     1    1
    21    21    20    1
    22    22    21    2
    23    23     1    1
    24    24    21    1
    25    25    24    3
    26    26    22    1
    27    27    26    3
    28    28     1    1
    29    29    12    1
    30    30    29    1
    31    31    29    1
    32    32    29    1
    33    33    32    1
    34    34    32    1
    35    35    32    1
    36    11    28   un
    37    22    23    1
    38    36    37    1
    39    37    38   ar
    40    38    39    1
    41    40    38   ar
    42    41    40    1
    43    42    40   ar
    44    43    42    1
    45    44    42   ar
    46    45    44    1
    47    46    37   ar
    48    47    46    1
    49    48    36    1
    50    49    48   ar
    51    50    49    1
    52    51    49   ar
    53    52    51    1
    54    53    51   ar
    55    54    53    1
    56    55    53   ar
    57    56    55    1
    58    57    48   ar
    59    58    57    1
    60    59    36    1
    61    60    59   ar
    62    61    60    1
    63    62    60   ar
    64    63    62    1
    65    64    62   ar
    66    65    64    1
    67    66    64   ar
    68    67    66    1
    69    68    59   ar
    70    69    68    1
    71    70    36    1
    72    71    70   ar
    73    72    71    1
    74    73    71   ar
    75    74    73    1
    76    75    73   ar
    77    76    75    1
    78    77    75   ar
    79    78    77    1
    80    79    70   ar
    81    80    79    1
    82    44    46   ar
    83    55    57   ar
    84    66    68   ar
    85    77    79   ar
@<TRIPOS>SUBSTRUCTURE
     1 RES1        1 GROUP             0 ****  ****    0  
     2 RES2       36 GROUP             0 ****  ****    0  
@<TRIPOS>CRYSIN
   20.4285   15.2892   17.8309   90.0000   90.0000   90.0000    60     1
