@<TRIPOS>MOLECULE
NUYFEU
    96   104     2     0     0
SMALL
NO_CHARGES
****
Generated from the CSD

@<TRIPOS>ATOM
     1 C1       0.1759  27.0823  17.8748   C.2       1 RES1   0.0000
     2 C2      -0.0849  28.2899  17.1717   C.2       1 RES1   0.0000
     3 C3       0.1962  29.5801  17.6887   C.2       1 RES1   0.0000
     4 H1      -0.1672  30.3232  17.2226   H         1 RES1   0.0000
     5 C4       1.2117  31.1708  19.1325   C.ar      1 RES1   0.0000
     6 C5       0.5265  32.2968  18.7601   C.ar      1 RES1   0.0000
     7 H2      -0.2554  32.2068  18.2284   H         1 RES1   0.0000
     8 C6       0.9513  33.5831  19.1472   C.ar      1 RES1   0.0000
     9 C7       0.2908  34.7611  18.7494   C.ar      1 RES1   0.0000
    10 H3      -0.4791  34.6945  18.1963   H         1 RES1   0.0000
    11 C8       0.7248  35.9889  19.1338   C.ar      1 RES1   0.0000
    12 H4       0.2473  36.7655  18.8673   H         1 RES1   0.0000
    13 C9       1.8771  36.1122  19.9254   C.ar      1 RES1   0.0000
    14 H5       2.1912  36.9751  20.1705   H         1 RES1   0.0000
    15 C10      2.5461  35.0064  20.3432   C.ar      1 RES1   0.0000
    16 H6       3.3123  35.1038  20.8964   H         1 RES1   0.0000
    17 C11      2.1173  33.7165  19.9682   C.ar      1 RES1   0.0000
    18 C12      2.7785  32.5453  20.3968   C.ar      1 RES1   0.0000
    19 H7       3.5149  32.6161  20.9942   H         1 RES1   0.0000
    20 C13      2.3760  31.2971  19.9642   C.ar      1 RES1   0.0000
    21 C14      4.2914  30.0653  20.5964   C.2       1 RES1   0.0000
    22 H8       4.7756  30.8730  20.4772   H         1 RES1   0.0000
    23 C15      5.0038  28.9457  21.0732   C.2       1 RES1   0.0000
    24 C16      4.4252  27.6876  21.3451   C.2       1 RES1   0.0000
    25 C17     -0.2725  25.7275  17.3351   C.3       1 RES1   0.0000
    26 H9       0.5113  25.2171  17.0458   H         1 RES1   0.0000
    27 H10     -0.8739  25.8631  16.5730   H         1 RES1   0.0000
    28 H11     -0.7422  25.2344  18.0396   H         1 RES1   0.0000
    29 C18     -0.6898  28.3163  15.8176   C.2       1 RES1   0.0000
    30 C19     -0.0592  27.5194  14.6912   C.ar      1 RES1   0.0000
    31 C20     -0.7435  27.3375  13.5059   C.ar      1 RES1   0.0000
    32 H12     -1.6389  27.6481  13.4363   H         1 RES1   0.0000
    33 C21     -0.1601  26.7162  12.4224   C.ar      1 RES1   0.0000
    34 H13     -0.6533  26.6003  11.6188   H         1 RES1   0.0000
    35 C22      1.1734  26.2526  12.5108   C.ar      1 RES1   0.0000
    36 H14      1.5852  25.8163  11.7755   H         1 RES1   0.0000
    37 C23      1.8614  26.4523  13.6894   C.ar      1 RES1   0.0000
    38 H15      2.7631  26.1590  13.7604   H         1 RES1   0.0000
    39 C24      1.2593  27.0670  14.7636   C.ar      1 RES1   0.0000
    40 H16      1.7502  27.1846  15.5685   H         1 RES1   0.0000
    41 C25      5.1863  26.5510  21.9786   C.3       1 RES1   0.0000
    42 H17      5.0441  26.5633  22.9483   H         1 RES1   0.0000
    43 H18      6.1410  26.6471  21.7871   H         1 RES1   0.0000
    44 H19      4.8642  25.6979  21.6143   H         1 RES1   0.0000
    45 C26      6.4504  29.1866  21.3102   C.2       1 RES1   0.0000
    46 C27      7.2125  29.9484  20.2589   C.ar      1 RES1   0.0000
    47 C28      6.9613  29.7611  18.9142   C.ar      1 RES1   0.0000
    48 H20      6.2224  29.2260  18.6503   H         1 RES1   0.0000
    49 C29      7.7650  30.3380  17.9391   C.ar      1 RES1   0.0000
    50 H21      7.5847  30.1827  17.0190   H         1 RES1   0.0000
    51 C30      8.8294  31.1368  18.3141   C.ar      1 RES1   0.0000
    52 H22      9.3922  31.5214  17.6538   H         1 RES1   0.0000
    53 C31      9.0688  31.3686  19.6334   C.ar      1 RES1   0.0000
    54 H23      9.7746  31.9529  19.8825   H         1 RES1   0.0000
    55 C32      8.3008  30.7694  20.6178   C.ar      1 RES1   0.0000
    56 H24      8.5084  30.9100  21.5339   H         1 RES1   0.0000
    57 C33     -0.7713  28.5357  21.2915   C.ar      1 RES1   0.0000
    58 H25     -1.0900  28.3902  20.4075   H         1 RES1   0.0000
    59 C34     -1.6899  28.6319  22.3121   C.ar      1 RES1   0.0000
    60 H26     -2.6183  28.5308  22.1393   H         1 RES1   0.0000
    61 C35     -1.2399  28.8710  23.5764   C.ar      1 RES1   0.0000
    62 H27     -1.8538  28.9400  24.2983   H         1 RES1   0.0000
    63 C36      0.1159  29.0140  23.7961   C.ar      1 RES1   0.0000
    64 H28      0.4514  29.2014  24.6653   H         1 RES1   0.0000
    65 C37      0.9679  28.8759  22.7299   C.ar      1 RES1   0.0000
    66 H29      1.9017  28.9548  22.8853   H         1 RES1   0.0000
    67 C38      3.7229  26.7038  18.0007   C.ar      1 RES1   0.0000
    68 H30      3.4853  26.0480  18.6476   H         1 RES1   0.0000
    69 C39      4.5048  26.3217  16.9239   C.ar      1 RES1   0.0000
    70 H31      4.7925  25.4218  16.8302   H         1 RES1   0.0000
    71 C40      4.8585  27.2635  15.9931   C.ar      1 RES1   0.0000
    72 H32      5.3868  27.0219  15.2417   H         1 RES1   0.0000
    73 C41      4.4403  28.5628  16.1605   C.ar      1 RES1   0.0000
    74 H33      4.6807  29.2384  15.5364   H         1 RES1   0.0000
    75 C42      3.6585  28.8587  17.2654   C.ar      1 RES1   0.0000
    76 H34      3.3695  29.7561  17.3860   H         1 RES1   0.0000
    77 Fe1      1.9175  28.4085  19.8572   Fe        1 RES1   0.0000
    78 N1       0.9126  29.8321  18.7534   N.2       1 RES1   0.0000
    79 N2       3.0017  30.0779  20.3031   N.2       1 RES1   0.0000
    80 N3       0.5505  28.6370  21.4844   N.ar      1 RES1   0.0000
    81 N4       3.2898  27.9514  18.1668   N.ar      1 RES1   0.0000
    82 O1       0.7364  27.0433  19.0213   O.3       1 RES1   0.0000
    83 O2       3.2093  27.4206  21.0491   O.3       1 RES1   0.0000
    84 O3      -1.6055  29.1111  15.5524   O.2       1 RES1   0.0000
    85 O4       7.0515  28.7835  22.3027   O.2       1 RES1   0.0000
    86 C43      8.5730  26.7901  17.9900   C.ar      2 RES2   0.0000
    87 H35      8.8725  27.6925  18.0168   H         2 RES2   0.0000
    88 C44      8.1728  24.9459  16.7659   C.ar      2 RES2   0.0000
    89 H36      8.2460  24.5588  15.9007   H         2 RES2   0.0000
    90 C45      7.5960  24.2457  17.7771   C.ar      2 RES2   0.0000
    91 H37      7.2389  23.3779  17.6257   H         2 RES2   0.0000
    92 C46      7.5415  24.7906  18.9584   C.ar      2 RES2   0.0000
    93 H38      7.1677  24.3222  19.6950   H         2 RES2   0.0000
    94 C47      8.0275  26.0381  19.1084   C.ar      2 RES2   0.0000
    95 H39      8.0133  26.4376  19.9696   H         2 RES2   0.0000
    96 N5       8.5802  26.0258  16.9601   N.ar      2 RES2   0.0000
@<TRIPOS>BOND
     1     1     2    2
     2     2     3    1
     3     3     4    1
     4     5     6   ar
     5     6     7    1
     6     8     6   ar
     7     9     8   ar
     8    10     9    1
     9    11     9   ar
    10    12    11    1
    11    13    11   ar
    12    14    13    1
    13    15    13   ar
    14    16    15    1
    15    17     8   ar
    16    18    17   ar
    17    19    18    1
    18    20     5   ar
    19    21    22    1
    20    23    21    1
    21    24    23    2
    22    25     1    1
    23    26    25    1
    24    27    25    1
    25    28    25    1
    26    29     2    1
    27    30    29    1
    28    31    30   ar
    29    32    31    1
    30    33    31   ar
    31    34    33    1
    32    35    33   ar
    33    36    35    1
    34    37    35   ar
    35    38    37    1
    36    39    30   ar
    37    40    39    1
    38    41    24    1
    39    42    41    1
    40    43    41    1
    41    44    41    1
    42    45    23    1
    43    46    45    1
    44    47    46   ar
    45    48    47    1
    46    49    47   ar
    47    50    49    1
    48    51    49   ar
    49    52    51    1
    50    53    51   ar
    51    54    53    1
    52    55    46   ar
    53    56    55    1
    54    57    58    1
    55    59    57   ar
    56    60    59    1
    57    61    59   ar
    58    62    61    1
    59    63    61   ar
    60    64    63    1
    61    65    63   ar
    62    66    65    1
    63    67    68    1
    64    69    67   ar
    65    70    69    1
    66    71    69   ar
    67    72    71    1
    68    73    71   ar
    69    74    73    1
    70    75    73   ar
    71    76    75    1
    72    77    78    1
    73    78     3    2
    74    79    20    1
    75    80    57   ar
    76    81    67   ar
    77    82     1    1
    78    83    24    1
    79    84    29    2
    80    85    45    2
    81     5    78    1
    82    15    17   ar
    83    18    20   ar
    84    21    79    2
    85    37    39   ar
    86    53    55   ar
    87    65    80   ar
    88    75    81   ar
    89    77    79    1
    90    77    80    1
    91    77    81    1
    92    77    82    1
    93    77    83    1
    94    86    87    1
    95    88    89    1
    96    90    88   ar
    97    91    90    1
    98    92    90   ar
    99    93    92    1
   100    94    86   ar
   101    95    94    1
   102    96    86   ar
   103    88    96   ar
   104    92    94   ar
@<TRIPOS>SUBSTRUCTURE
     1 RES1        1 GROUP             0 ****  ****    0  
     2 RES2       86 GROUP             0 ****  ****    0  
@<TRIPOS>CRYSIN
   12.1787   24.6550   16.5874   90.0000  126.1530   90.0000    14     1
