@<TRIPOS>MOLECULE
NUYFEU01
    96   104     2     0     0
SMALL
NO_CHARGES
****
Generated from the CSD

@<TRIPOS>ATOM
     1 C1       5.9316  34.6286  15.4342   C.2       1 RES1   0.0000
     2 C2       6.2740  33.4550  16.1423   C.2       1 RES1   0.0000
     3 C3       6.0162  32.1323  15.6778   C.2       1 RES1   0.0000
     4 H1       6.4551  31.4127  16.1170   H         1 RES1   0.0000
     5 C4       4.9209  30.4953  14.3400   C.ar      1 RES1   0.0000
     6 C5       5.5792  29.3610  14.7420   C.ar      1 RES1   0.0000
     7 H2       6.3466  29.4381  15.2971   H         1 RES1   0.0000
     8 C6       5.1353  28.0851  14.3453   C.ar      1 RES1   0.0000
     9 C7       5.7812  26.8989  14.7633   C.ar      1 RES1   0.0000
    10 H3       6.5328  26.9569  15.3423   H         1 RES1   0.0000
    11 C8       5.3524  25.6825  14.3586   C.ar      1 RES1   0.0000
    12 H4       5.8105  24.9008  14.6422   H         1 RES1   0.0000
    13 C9       4.2330  25.5696  13.5200   C.ar      1 RES1   0.0000
    14 H5       3.9314  24.7105  13.2445   H         1 RES1   0.0000
    15 C10      3.5805  26.6794  13.1047   C.ar      1 RES1   0.0000
    16 H6       2.8287  26.5887  12.5310   H         1 RES1   0.0000
    17 C11      3.9935  27.9672  13.5014   C.ar      1 RES1   0.0000
    18 C12      3.3455  29.1510  13.0661   C.ar      1 RES1   0.0000
    19 H7       2.6113  29.0897  12.4658   H         1 RES1   0.0000
    20 C13      3.7608  30.3728  13.5001   C.ar      1 RES1   0.0000
    21 C14      1.9144  31.6949  12.7999   C.2       1 RES1   0.0000
    22 H8       1.4070  30.8912  12.8145   H         1 RES1   0.0000
    23 C15      1.2608  32.8658  12.3540   C.2       1 RES1   0.0000
    24 C16      1.9301  34.1032  12.1876   C.2       1 RES1   0.0000
    25 C17      6.3934  36.0091  15.8934   C.3       1 RES1   0.0000
    26 H9       6.8958  36.4418  15.1706   H         1 RES1   0.0000
    27 H10      6.9689  35.9154  16.6801   H         1 RES1   0.0000
    28 H11      5.6122  36.5555  16.1223   H         1 RES1   0.0000
    29 C18      6.9079  33.4663  17.4987   C.2       1 RES1   0.0000
    30 C19      6.2533  34.2549  18.6235   C.ar      1 RES1   0.0000
    31 C20      4.9271  34.6783  18.5450   C.ar      1 RES1   0.0000
    32 H12      4.4462  34.5463  17.7356   H         1 RES1   0.0000
    33 C21      4.2925  35.2877  19.6192   C.ar      1 RES1   0.0000
    34 H13      3.3911  35.5744  19.5366   H         1 RES1   0.0000
    35 C22      4.9698  35.4730  20.8025   C.ar      1 RES1   0.0000
    36 H14      4.5421  35.8981  21.5360   H         1 RES1   0.0000
    37 C23      6.2971  35.0307  20.9183   C.ar      1 RES1   0.0000
    38 H15      6.7728  35.1518  21.7316   H         1 RES1   0.0000
    39 C24      6.9105  34.4146  19.8268   C.ar      1 RES1   0.0000
    40 H16      7.8019  34.0965  19.9133   H         1 RES1   0.0000
    41 C25      1.2828  35.2803  11.4994   C.3       1 RES1   0.0000
    42 H17      1.5506  36.1082  11.9480   H         1 RES1   0.0000
    43 H18      0.3082  35.1864  11.5394   H         1 RES1   0.0000
    44 H19      1.5703  35.3099  10.5623   H         1 RES1   0.0000
    45 C26     -0.1806  32.7044  12.0771   C.2       1 RES1   0.0000
    46 C27     -0.9737  31.8768  13.0635   C.ar      1 RES1   0.0000
    47 C28     -2.0024  31.0240  12.6322   C.ar      1 RES1   0.0000
    48 H20     -2.1723  30.9184  11.7031   H         1 RES1   0.0000
    49 C29     -2.7685  30.3377  13.5600   C.ar      1 RES1   0.0000
    50 H21     -3.4377  29.7322  13.2631   H         1 RES1   0.0000
    51 C30     -2.5694  30.5230  14.8991   C.ar      1 RES1   0.0000
    52 H22     -3.1139  30.0609  15.5260   H         1 RES1   0.0000
    53 C31     -1.5732  31.3830  15.3476   C.ar      1 RES1   0.0000
    54 H23     -1.4481  31.5264  16.2794   H         1 RES1   0.0000
    55 C32     -0.7674  32.0313  14.4278   C.ar      1 RES1   0.0000
    56 H24     -0.0618  32.5890  14.7340   H         1 RES1   0.0000
    57 C33      2.5758  34.7507  15.4515   C.ar      1 RES1   0.0000
    58 H25      2.8379  35.4286  14.8378   H         1 RES1   0.0000
    59 C34      1.7743  35.1073  16.5190   C.ar      1 RES1   0.0000
    60 H26      1.4876  36.0068  16.6282   H         1 RES1   0.0000
    61 C35      1.3935  34.1361  17.4295   C.ar      1 RES1   0.0000
    62 H27      0.8574  34.3585  18.1816   H         1 RES1   0.0000
    63 C36      1.8076  32.8386  17.2192   C.ar      1 RES1   0.0000
    64 H28      1.5431  32.1442  17.8142   H         1 RES1   0.0000
    65 C37      2.6146  32.5611  16.1303   C.ar      1 RES1   0.0000
    66 H29      2.9092  31.6672  16.0065   H         1 RES1   0.0000
    67 C38      4.9411  32.7067  10.8924   C.ar      1 RES1   0.0000
    68 H30      4.0080  32.5594  10.7873   H         1 RES1   0.0000
    69 C39      5.7415  32.6884   9.7756   C.ar      1 RES1   0.0000
    70 H31      5.3651  32.5223   8.9197   H         1 RES1   0.0000
    71 C40      7.1029  32.9128   9.9074   C.ar      1 RES1   0.0000
    72 H32      7.6707  32.9276   9.1460   H         1 RES1   0.0000
    73 C41      7.6128  33.1154  11.1760   C.ar      1 RES1   0.0000
    74 H33      8.5440  33.2563  11.3024   H         1 RES1   0.0000
    75 C42      6.7515  33.1117  12.2608   C.ar      1 RES1   0.0000
    76 H34      7.1135  33.2464  13.1287   H         1 RES1   0.0000
    77 Fe1      4.2101  33.1298  13.6947   Fe        1 RES1   0.0000
    78 N1       5.2179  31.8474  14.6848   N.2       1 RES1   0.0000
    79 N2       3.1624  31.6223  13.1939   N.2       1 RES1   0.0000
    80 N3       3.0053  33.4933  15.2345   N.ar      1 RES1   0.0000
    81 N4       5.4259  32.9254  12.1357   N.ar      1 RES1   0.0000
    82 O1       5.2683  34.6333  14.3409   O.3       1 RES1   0.0000
    83 O2       3.1161  34.3395  12.6205   O.3       1 RES1   0.0000
    84 O3       7.8419  32.7000  17.7649   O.2       1 RES1   0.0000
    85 O4      -0.7729  33.2298  11.1334   O.2       1 RES1   0.0000
    86 C43      5.8459  26.1019  21.1087   C.ar      2 RES2   0.0000
    87 H35      5.9069  26.6579  20.3406   H         2 RES2   0.0000
    88 C44      6.4499  24.8366  21.1260   C.ar      2 RES2   0.0000
    89 H36      6.9317  24.5202  20.3699   H         2 RES2   0.0000
    90 C45      6.3338  24.0655  22.2494   C.ar      2 RES2   0.0000
    91 H37      6.7528  23.2129  22.3027   H         2 RES2   0.0000
    92 C46      5.5956  24.5548  23.2983   C.ar      2 RES2   0.0000
    93 H38      5.4849  23.9988  24.0624   H         2 RES2   0.0000
    94 C47      5.1614  26.5195  22.2334   C.ar      2 RES2   0.0000
    95 H39      4.7744  27.3869  22.2295   H         2 RES2   0.0000
    96 N5       5.0171  25.7682  23.3156   N.ar      2 RES2   0.0000
@<TRIPOS>BOND
     1     1     2    2
     2     2     3    1
     3     3     4    1
     4     5     6   ar
     5     6     7    1
     6     8     6   ar
     7     9     8   ar
     8    10     9    1
     9    11     9   ar
    10    12    11    1
    11    13    11   ar
    12    14    13    1
    13    15    13   ar
    14    16    15    1
    15    17     8   ar
    16    18    17   ar
    17    19    18    1
    18    20     5   ar
    19    21    22    1
    20    23    21    1
    21    24    23    2
    22    25     1    1
    23    26    25    1
    24    27    25    1
    25    28    25    1
    26    29     2    1
    27    30    29    1
    28    31    30   ar
    29    32    31    1
    30    33    31   ar
    31    34    33    1
    32    35    33   ar
    33    36    35    1
    34    37    35   ar
    35    38    37    1
    36    39    30   ar
    37    40    39    1
    38    41    24    1
    39    42    41    1
    40    43    41    1
    41    44    41    1
    42    45    23    1
    43    46    45    1
    44    47    46   ar
    45    48    47    1
    46    49    47   ar
    47    50    49    1
    48    51    49   ar
    49    52    51    1
    50    53    51   ar
    51    54    53    1
    52    55    46   ar
    53    56    55    1
    54    57    58    1
    55    59    57   ar
    56    60    59    1
    57    61    59   ar
    58    62    61    1
    59    63    61   ar
    60    64    63    1
    61    65    63   ar
    62    66    65    1
    63    67    68    1
    64    69    67   ar
    65    70    69    1
    66    71    69   ar
    67    72    71    1
    68    73    71   ar
    69    74    73    1
    70    75    73   ar
    71    76    75    1
    72    77    78    1
    73    78     3    2
    74    79    20    1
    75    80    57   ar
    76    81    67   ar
    77    82     1    1
    78    83    24    1
    79    84    29    2
    80    85    45    2
    81     5    78    1
    82    15    17   ar
    83    18    20   ar
    84    21    79    2
    85    37    39   ar
    86    53    55   ar
    87    65    80   ar
    88    75    81   ar
    89    77    79    1
    90    77    80    1
    91    77    81    1
    92    77    82    1
    93    77    83    1
    94    86    87    1
    95    88    86   ar
    96    89    88    1
    97    90    88   ar
    98    91    90    1
    99    92    90   ar
   100    93    92    1
   101    94    86   ar
   102    95    94    1
   103    96    92   ar
   104    94    96   ar
@<TRIPOS>SUBSTRUCTURE
     1 RES1        1 GROUP             0 ****  ****    0  
     2 RES2       86 GROUP             0 ****  ****    0  
@<TRIPOS>CRYSIN
   11.9203   24.7130   16.2863   90.0000  125.1830   90.0000    14     1
