@<TRIPOS>MOLECULE
NUYGAR
    99   107     1     0     0
SMALL
NO_CHARGES
****
Generated from the CSD

@<TRIPOS>ATOM
     1 C1       9.7804   6.3663   1.0004   C.2       1 RES1   0.0000
     2 C2      10.7258   7.1814   1.6819   C.2       1 RES1   0.0000
     3 C3      10.6756   7.4390   3.0699   C.2       1 RES1   0.0000
     4 H1      11.3708   7.9731   3.4351   H         1 RES1   0.0000
     5 C4       9.7797   7.4130   5.2723   C.ar      1 RES1   0.0000
     6 C5      10.7124   8.1669   5.8935   C.ar      1 RES1   0.0000
     7 H2      11.4370   8.5150   5.3870   H         1 RES1   0.0000
     8 C6      10.6422   8.4561   7.2746   C.ar      1 RES1   0.0000
     9 C7      11.6350   9.1912   7.9588   C.ar      1 RES1   0.0000
    10 H3      12.3727   9.5405   7.4732   H         1 RES1   0.0000
    11 C8      11.5549   9.4107   9.2992   C.ar      1 RES1   0.0000
    12 H4      12.2351   9.9043   9.7414   H         1 RES1   0.0000
    13 C9      10.4772   8.9102  10.0212   C.ar      1 RES1   0.0000
    14 H5      10.4360   9.0543  10.9587   H         1 RES1   0.0000
    15 C10      9.4780   8.2181   9.4056   C.ar      1 RES1   0.0000
    16 H6       8.7409   7.9066   9.9163   H         1 RES1   0.0000
    17 C11      9.5245   7.9581   8.0175   C.ar      1 RES1   0.0000
    18 C12      8.5352   7.2220   7.3445   C.ar      1 RES1   0.0000
    19 H7       7.7587   6.9481   7.8175   H         1 RES1   0.0000
    20 C13      8.6640   6.8888   6.0153   C.ar      1 RES1   0.0000
    21 C14      6.8707   5.3386   5.8488   C.2       1 RES1   0.0000
    22 H8       6.7699   5.4554   6.7862   H         1 RES1   0.0000
    23 C15      5.9940   4.4300   5.2303   C.2       1 RES1   0.0000
    24 C16      6.0029   4.1656   3.8339   C.2       1 RES1   0.0000
    25 C17      9.7623   6.2334  -0.5009   C.3       1 RES1   0.0000
    26 H9      10.5345   5.7044  -0.7920   H         1 RES1   0.0000
    27 H10      9.8044   7.1237  -0.9081   H         1 RES1   0.0000
    28 H11      8.9355   5.7855  -0.7794   H         1 RES1   0.0000
    29 C18     11.8021   7.8207   0.9081   C.2       1 RES1   0.0000
    30 C19     13.8223   9.0801   1.0424   C.3       1 RES1   0.0000
    31 H12     14.1110   8.5428   0.2631   H         1 RES1   0.0000
    32 H13     14.5951   9.1715   1.6553   H         1 RES1   0.0000
    33 C20     13.3843  10.4459   0.5779   C.3       1 RES1   0.0000
    34 H14     12.6254  10.3546  -0.0350   H         1 RES1   0.0000
    35 H15     14.1271  10.8870   0.1147   H         1 RES1   0.0000
    36 H16     13.1152  10.9832   1.3516   H         1 RES1   0.0000
    37 C21      5.0012   3.2765   3.1552   C.3       1 RES1   0.0000
    38 H17      5.0737   3.3833   2.1842   H         1 RES1   0.0000
    39 H18      4.0977   3.5214   3.4435   H         1 RES1   0.0000
    40 H19      5.1777   2.3423   3.3959   H         1 RES1   0.0000
    41 C22      5.0201   3.7409   6.0824   C.2       1 RES1   0.0000
    42 C23      4.1537   3.5273   8.2946   C.3       1 RES1   0.0000
    43 H20      3.2939   3.3517   7.8370   H         1 RES1   0.0000
    44 H21      3.9749   4.1192   9.0684   H         1 RES1   0.0000
    45 C24      4.7421   2.2236   8.7815   C.3       1 RES1   0.0000
    46 H22      4.9388   1.6473   8.0133   H         1 RES1   0.0000
    47 H23      4.1008   1.7757   9.3706   H         1 RES1   0.0000
    48 H24      5.5702   2.4028   9.2754   H         1 RES1   0.0000
    49 C25      6.5539   7.2785   1.6553   C.ar      1 RES1   0.0000
    50 H25      6.4737   6.4169   1.2635   H         1 RES1   0.0000
    51 C26      5.9753   8.3449   1.0116   C.ar      1 RES1   0.0000
    52 H26      5.5651   8.2085   0.1651   H         1 RES1   0.0000
    53 C27      5.9756   9.6184   1.5713   C.ar      1 RES1   0.0000
    54 C28      6.6071   9.7235   2.8208   C.ar      1 RES1   0.0000
    55 H27      6.6296  10.5593   3.2714   H         1 RES1   0.0000
    56 C29      7.1971   8.6172   3.3987   C.ar      1 RES1   0.0000
    57 H28      7.6013   8.7172   4.2522   H         1 RES1   0.0000
    58 C30      5.4595  10.8035   0.8605   C.ar      1 RES1   0.0000
    59 C31      5.5029  10.8514  -0.5345   C.ar      1 RES1   0.0000
    60 H29      5.8517  10.1136  -1.0228   H         1 RES1   0.0000
    61 C32      5.0326  11.9832  -1.2187   C.ar      1 RES1   0.0000
    62 H30      5.0741  12.0121  -2.1674   H         1 RES1   0.0000
    63 C33      4.5150  13.0531  -0.5275   C.ar      1 RES1   0.0000
    64 H31      4.1980  13.8166  -0.9962   H         1 RES1   0.0000
    65 C34      4.4557  13.0081   0.8647   C.ar      1 RES1   0.0000
    66 H32      4.0891  13.7424   1.3433   H         1 RES1   0.0000
    67 C35      4.9284  11.8987   1.5587   C.ar      1 RES1   0.0000
    68 H33      4.8917  11.8829   2.5074   H         1 RES1   0.0000
    69 C36      9.5629   3.2502   2.9622   C.ar      1 RES1   0.0000
    70 H34      9.0826   3.3198   2.1450   H         1 RES1   0.0000
    71 C37     10.3853   2.1450   3.1552   C.ar      1 RES1   0.0000
    72 H35     10.4541   1.4885   2.4724   H         1 RES1   0.0000
    73 C38     11.1051   1.9896   4.3292   C.ar      1 RES1   0.0000
    74 C39     10.9187   2.9823   5.3003   C.ar      1 RES1   0.0000
    75 H36     11.3663   2.9205   6.1356   H         1 RES1   0.0000
    76 C40     10.0847   4.0497   5.0400   C.ar      1 RES1   0.0000
    77 H37      9.9748   4.7022   5.7214   H         1 RES1   0.0000
    78 C41     12.0522   0.8759   4.5629   C.ar      1 RES1   0.0000
    79 C42     11.7124  -0.4314   4.2243   C.ar      1 RES1   0.0000
    80 H38     10.8634  -0.6221   3.8409   H         1 RES1   0.0000
    81 C43     12.6175  -1.4453   4.4481   C.ar      1 RES1   0.0000
    82 H39     12.3726  -2.3387   4.2340   H         1 RES1   0.0000
    83 C44     13.8674  -1.2027   4.9756   C.ar      1 RES1   0.0000
    84 H40     14.4805  -1.9154   5.1114   H         1 RES1   0.0000
    85 C45     14.2189   0.1059   5.3045   C.ar      1 RES1   0.0000
    86 H41     15.0776   0.2924   5.6641   H         1 RES1   0.0000
    87 C46     13.3145   1.1244   5.1058   C.ar      1 RES1   0.0000
    88 H42     13.5544   2.0119   5.3408   H         1 RES1   0.0000
    89 N1       9.7618   7.0099   3.8968   N.2       1 RES1   0.0000
    90 N2       7.8032   6.0348   5.2723   N.2       1 RES1   0.0000
    91 N3       7.2286   7.3960   2.8138   N.ar      1 RES1   0.0000
    92 N4       9.4135   4.2260   3.8800   N.ar      1 RES1   0.0000
    93 O1       8.8781   5.7018   1.5909   O.3       1 RES1   0.0000
    94 O2       6.8547   4.6662   3.0237   O.3       1 RES1   0.0000
    95 O3      11.9182   7.8584  -0.2980   O.2       1 RES1   0.0000
    96 O4      12.7469   8.4028   1.7224   O.3       1 RES1   0.0000
    97 O5       4.2277   2.8882   5.7606   O.2       1 RES1   0.0000
    98 O6       5.0615   4.1881   7.3809   O.3       1 RES1   0.0000
    99 Fe1      8.3218   5.8506   3.4468   Fe        1 RES1   0.0000
@<TRIPOS>BOND
     1     1     2    2
     2     2     3    1
     3     3     4    1
     4     5     6   ar
     5     6     7    1
     6     8     6   ar
     7     9     8   ar
     8    10     9    1
     9    11     9   ar
    10    12    11    1
    11    13    11   ar
    12    14    13    1
    13    15    13   ar
    14    16    15    1
    15    17     8   ar
    16    18    17   ar
    17    19    18    1
    18    20     5   ar
    19    21    22    1
    20    23    21    1
    21    24    23    2
    22    25     1    1
    23    26    25    1
    24    27    25    1
    25    28    25    1
    26    29     2    1
    27    30    31    1
    28    32    30    1
    29    33    30    1
    30    34    33    1
    31    35    33    1
    32    36    33    1
    33    37    24    1
    34    38    37    1
    35    39    37    1
    36    40    37    1
    37    41    23    1
    38    42    43    1
    39    44    42    1
    40    45    42    1
    41    46    45    1
    42    47    45    1
    43    48    45    1
    44    49    50    1
    45    51    49   ar
    46    52    51    1
    47    53    51   ar
    48    54    53   ar
    49    55    54    1
    50    56    54   ar
    51    57    56    1
    52    58    53    1
    53    59    58   ar
    54    60    59    1
    55    61    59   ar
    56    62    61    1
    57    63    61   ar
    58    64    63    1
    59    65    63   ar
    60    66    65    1
    61    67    58   ar
    62    68    67    1
    63    69    70    1
    64    71    69   ar
    65    72    71    1
    66    73    71   ar
    67    74    73   ar
    68    75    74    1
    69    76    74   ar
    70    77    76    1
    71    78    73    1
    72    79    78   ar
    73    80    79    1
    74    81    79   ar
    75    82    81    1
    76    83    81   ar
    77    84    83    1
    78    85    83   ar
    79    86    85    1
    80    87    78   ar
    81    88    87    1
    82    89     3    2
    83    90    20    1
    84    91    49   ar
    85    92    69   ar
    86    93     1    1
    87    94    24    1
    88    95    29    2
    89    96    29    1
    90    97    41    2
    91    98    41    1
    92    99    89    1
    93     5    89    1
    94    15    17   ar
    95    18    20   ar
    96    21    90    2
    97    30    96    1
    98    42    98    1
    99    56    91   ar
   100    65    67   ar
   101    76    92   ar
   102    85    87   ar
   103    90    99    1
   104    91    99    1
   105    92    99    1
   106    93    99    1
   107    94    99    1
@<TRIPOS>SUBSTRUCTURE
     1 RES1        1 GROUP             0 ****  ****    0  
@<TRIPOS>CRYSIN
   11.5899   11.9233   14.3604   77.0120   88.0900   84.1220     2     1
