@<TRIPOS>MOLECULE
OBAGIL
   120   129     2     0     0
SMALL
USER_CHARGES
****
Generated from the CSD

@<TRIPOS>ATOM
     1 Fe1      1.4545   3.5980   5.4911   Fe        1 RES1   1.0000
     2 N1       0.6789   1.7409   6.6502   N.3       1 RES1   0.0000
     3 N2       0.3897   2.4399   4.0891   N.ar      1 RES1   0.0000
     4 N3       0.7833   5.1537   3.9510   N.3       1 RES1   0.0000
     5 N4      -0.4731   4.1917   6.0661   N.ar      1 RES1   0.0000
     6 C1       0.8341   0.6520   5.6319   C.3       1 RES1   0.0000
     7 H1       0.3250  -0.1465   5.9207   H         1 RES1   0.0000
     8 H2       1.7885   0.3991   5.5604   H         1 RES1   0.0000
     9 C2       0.3305   1.1124   4.2833   C.ar      1 RES1   0.0000
    10 C3      -0.1967   0.2851   3.3123   C.ar      1 RES1   0.0000
    11 H3      -0.2503  -0.6534   3.4502   H         1 RES1   0.0000
    12 C4      -0.6466   0.8559   2.1297   C.ar      1 RES1   0.0000
    13 H4      -0.9666   0.3000   1.4290   H         1 RES1   0.0000
    14 C5      -0.6317   2.2305   1.9651   C.ar      1 RES1   0.0000
    15 H5      -0.9607   2.6302   1.1686   H         1 RES1   0.0000
    16 C6      -0.1231   3.0090   2.9960   C.ar      1 RES1   0.0000
    17 C7      -0.2296   4.5113   3.0503   C.3       1 RES1   0.0000
    18 H6      -0.1187   4.8728   2.1353   H         1 RES1   0.0000
    19 H7      -1.1364   4.7564   3.3628   H         1 RES1   0.0000
    20 C8       0.0779   6.1627   4.8080   C.3       1 RES1   0.0000
    21 H8      -0.4936   6.7372   4.2393   H         1 RES1   0.0000
    22 H9       0.7456   6.7407   5.2553   H         1 RES1   0.0000
    23 C9      -0.7758   5.4776   5.8519   C.ar      1 RES1   0.0000
    24 C10     -1.7673   6.0872   6.5965   C.ar      1 RES1   0.0000
    25 H10     -1.9991   6.9962   6.4461   H         1 RES1   0.0000
    26 C11     -2.4133   5.3443   7.5640   C.ar      1 RES1   0.0000
    27 H11     -3.0559   5.7637   8.1240   H         1 RES1   0.0000
    28 C12     -2.1385   3.9933   7.7318   C.ar      1 RES1   0.0000
    29 H12     -2.6112   3.4704   8.3688   H         1 RES1   0.0000
    30 C13     -1.1533   3.4371   6.9392   C.ar      1 RES1   0.0000
    31 C14     -0.7844   1.9743   6.9005   C.3       1 RES1   0.0000
    32 H13     -1.0336   1.5568   7.7628   H         1 RES1   0.0000
    33 H14     -1.3075   1.5295   6.1873   H         1 RES1   0.0000
    34 C15      1.3901   1.3905   7.9716   C.3       1 RES1   0.0000
    35 C16      2.9012   1.4254   7.7533   C.3       1 RES1   0.0000
    36 H15      3.1769   2.3371   7.5226   H         1 RES1   0.0000
    37 H16      3.1398   0.8172   7.0229   H         1 RES1   0.0000
    38 H17      3.3564   1.1444   8.5744   H         1 RES1   0.0000
    39 C17      0.9822   0.0096   8.4908   C.3       1 RES1   0.0000
    40 H18      1.2529  -0.6755   7.8446   H         1 RES1   0.0000
    41 H19      0.0099  -0.0204   8.6106   H         1 RES1   0.0000
    42 H20      1.4224  -0.1596   9.3499   H         1 RES1   0.0000
    43 C18      1.0372   2.4469   9.0125   C.3       1 RES1   0.0000
    44 H21      1.5945   2.3201   9.8086   H         1 RES1   0.0000
    45 H22      0.0924   2.3608   9.2580   H         1 RES1   0.0000
    46 H23      1.1979   3.3390   8.6400   H         1 RES1   0.0000
    47 C19      1.9246   5.7915   3.1300   C.3       1 RES1   0.0000
    48 C20      3.0724   6.1862   4.0557   C.3       1 RES1   0.0000
    49 H24      3.4615   5.3804   4.4554   H         1 RES1   0.0000
    50 H25      2.7337   6.7717   4.7648   H         1 RES1   0.0000
    51 H26      3.7590   6.6598   3.5411   H         1 RES1   0.0000
    52 C21      1.4309   7.0268   2.3672   C.3       1 RES1   0.0000
    53 H27      1.1931   7.7315   3.0054   H         1 RES1   0.0000
    54 H28      0.6432   6.7888   1.8349   H         1 RES1   0.0000
    55 H29      2.1408   7.3497   1.7737   H         1 RES1   0.0000
    56 C22      2.4417   4.7420   2.1419   C.3       1 RES1   0.0000
    57 H30      3.2485   5.0792   1.6996   H         1 RES1   0.0000
    58 H31      1.7527   4.5590   1.4694   H         1 RES1   0.0000
    59 H32      2.6547   3.9160   2.6245   H         1 RES1   0.0000
    60 O1       2.1662   4.6988   6.7746   O.3       1 RES1   0.0000
    61 O2       4.7582   3.6360   5.8339   O.co2     1 RES1   0.0000
    62 O3       3.0281   2.6821   4.7789   O.co2     1 RES1   0.0000
    63 C23      4.2974   2.8192   5.0478   C.2       1 RES1   0.0000
    64 C24      5.2013   1.8736   4.3161   C.ar      1 RES1   0.0000
    65 C25      4.7092   0.9750   3.3804   C.ar      1 RES1   0.0000
    66 H33      3.7769   0.9389   3.2012   H         1 RES1   0.0000
    67 C26      5.5801   0.1272   2.7051   C.ar      1 RES1   0.0000
    68 H34      5.2411  -0.4864   2.0643   H         1 RES1   0.0000
    69 C27      6.9307   0.1730   2.9608   C.ar      1 RES1   0.0000
    70 H35      7.5221  -0.4052   2.4936   H         1 RES1   0.0000
    71 C28      7.4261   1.0583   3.8951   C.ar      1 RES1   0.0000
    72 H36      8.3589   1.0850   4.0733   H         1 RES1   0.0000
    73 C29      6.5672   1.9118   4.5772   C.ar      1 RES1   0.0000
    74 H37      6.9120   2.5197   5.2206   H         1 RES1   0.0000
    75 H38      2.9725   4.5679   6.6787   H         1 RES1   0.0000
    76 B1      -4.0203   9.3775   2.4913   B         2 RES2  -1.0000
    77 C30     -4.0204  10.0690   3.9889   C.ar      2 RES2   0.0000
    78 C31     -3.0562   9.7519   4.9619   C.ar      2 RES2   0.0000
    79 H39     -2.3624   9.1460   4.7296   H         2 RES2   0.0000
    80 C32     -3.0683  10.2811   6.2468   C.ar      2 RES2   0.0000
    81 H40     -2.4255   9.9964   6.8859   H         2 RES2   0.0000
    82 C33     -4.0238  11.2277   6.5932   C.ar      2 RES2   0.0000
    83 H41     -4.0391  11.5993   7.4674   H         2 RES2   0.0000
    84 C34     -4.9484  11.6198   5.6514   C.ar      2 RES2   0.0000
    85 H42     -5.5815  12.2953   5.8642   H         2 RES2   0.0000
    86 C35     -4.9613  11.0318   4.3885   C.ar      2 RES2   0.0000
    87 H43     -5.6350  11.2932   3.7718   H         2 RES2   0.0000
    88 C36     -5.1556  10.1428   1.5864   C.ar      2 RES2   0.0000
    89 C37     -6.5196   9.8672   1.7712   C.ar      2 RES2   0.0000
    90 H44     -6.7668   9.2034   2.4042   H         2 RES2   0.0000
    91 C38     -7.5212  10.5199   1.0717   C.ar      2 RES2   0.0000
    92 H45     -8.4321  10.3023   1.2315   H         2 RES2   0.0000
    93 C39     -7.1954  11.4864   0.1425   C.ar      2 RES2   0.0000
    94 H46     -7.8755  11.9262  -0.3533   H         2 RES2   0.0000
    95 C40     -5.8718  11.8053  -0.0568   C.ar      2 RES2   0.0000
    96 H47     -5.6366  12.4776  -0.6855   H         2 RES2   0.0000
    97 C41     -4.8710  11.1452   0.6609   C.ar      2 RES2   0.0000
    98 H48     -3.9647  11.3882   0.5128   H         2 RES2   0.0000
    99 C42     -4.3799   7.7599   2.5612   C.ar      2 RES2   0.0000
   100 C43     -5.0103   7.1199   1.4789   C.ar      2 RES2   0.0000
   101 H49     -5.2841   7.6460   0.7367   H         2 RES2   0.0000
   102 C44     -5.2497   5.7517   1.4478   C.ar      2 RES2   0.0000
   103 H50     -5.6838   5.3653   0.6963   H         2 RES2   0.0000
   104 C45     -4.8612   4.9511   2.5021   C.ar      2 RES2   0.0000
   105 H51     -5.0197   4.0146   2.4838   H         2 RES2   0.0000
   106 C46     -4.2363   5.5408   3.5864   C.ar      2 RES2   0.0000
   107 H52     -3.9590   5.0058   4.3211   H         2 RES2   0.0000
   108 C47     -4.0111   6.9112   3.6058   C.ar      2 RES2   0.0000
   109 H53     -3.5858   7.2890   4.3668   H         2 RES2   0.0000
   110 C48     -2.5295   9.5367   1.7997   C.ar      2 RES2   0.0000
   111 C49     -1.6606  10.5872   2.1120   C.ar      2 RES2   0.0000
   112 H54     -1.9114  11.1976   2.7954   H         2 RES2   0.0000
   113 C50     -0.4439  10.7750   1.4632   C.ar      2 RES2   0.0000
   114 H55      0.1069  11.5119   1.7000   H         2 RES2   0.0000
   115 C51     -0.0329   9.9051   0.4841   C.ar      2 RES2   0.0000
   116 H56      0.7973  10.0330   0.0403   H         2 RES2   0.0000
   117 C52     -0.8489   8.8407   0.1565   C.ar      2 RES2   0.0000
   118 H57     -0.5777   8.2218  -0.5111   H         2 RES2   0.0000
   119 C53     -2.0675   8.6754   0.8042   C.ar      2 RES2   0.0000
   120 H58     -2.6135   7.9386   0.5564   H         2 RES2   0.0000
@<TRIPOS>BOND
     1     1     2    1
     2     2     6    1
     3     3     1    1
     4     4     1    1
     5     5     1    1
     6     6     7    1
     7     8     6    1
     8     9     3   ar
     9    10     9   ar
    10    11    10    1
    11    12    10   ar
    12    13    12    1
    13    14    12   ar
    14    15    14    1
    15    16     3   ar
    16    17     4    1
    17    18    17    1
    18    19    17    1
    19    20     4    1
    20    21    20    1
    21    22    20    1
    22    23     5   ar
    23    24    23   ar
    24    25    24    1
    25    26    24   ar
    26    27    26    1
    27    28    26   ar
    28    29    28    1
    29    30     5   ar
    30    31     2    1
    31    32    31    1
    32    33    31    1
    33    34     2    1
    34    35    34    1
    35    36    35    1
    36    37    35    1
    37    38    35    1
    38    39    34    1
    39    40    39    1
    40    41    39    1
    41    42    39    1
    42    43    34    1
    43    44    43    1
    44    45    43    1
    45    46    43    1
    46    47     4    1
    47    48    47    1
    48    49    48    1
    49    50    48    1
    50    51    48    1
    51    52    47    1
    52    53    52    1
    53    54    52    1
    54    55    52    1
    55    56    47    1
    56    57    56    1
    57    58    56    1
    58    59    56    1
    59    60     1    1
    60    61    63    2
    61    62     1    1
    62    63    62    1
    63    64    63    1
    64    65    64   ar
    65    66    65    1
    66    67    65   ar
    67    68    67    1
    68    69    67   ar
    69    70    69    1
    70    71    69   ar
    71    72    71    1
    72    73    64   ar
    73    74    73    1
    74    75    60    1
    75     6     9    1
    76    14    16   ar
    77    16    17    1
    78    20    23    1
    79    28    30   ar
    80    30    31    1
    81    71    73   ar
    82    76    77    1
    83    77    78   ar
    84    78    79    1
    85    80    78   ar
    86    81    80    1
    87    82    80   ar
    88    83    82    1
    89    84    82   ar
    90    85    84    1
    91    86    77   ar
    92    87    86    1
    93    88    76    1
    94    89    88   ar
    95    90    89    1
    96    91    89   ar
    97    92    91    1
    98    93    91   ar
    99    94    93    1
   100    95    93   ar
   101    96    95    1
   102    97    88   ar
   103    98    97    1
   104    99    76    1
   105   100    99   ar
   106   101   100    1
   107   102   100   ar
   108   103   102    1
   109   104   102   ar
   110   105   104    1
   111   106   104   ar
   112   107   106    1
   113   108    99   ar
   114   109   108    1
   115   110    76    1
   116   111   110   ar
   117   112   111    1
   118   113   111   ar
   119   114   113    1
   120   115   113   ar
   121   116   115    1
   122   117   115   ar
   123   118   117    1
   124   119   110   ar
   125   120   119    1
   126    84    86   ar
   127    95    97   ar
   128   106   108   ar
   129   117   119   ar
@<TRIPOS>SUBSTRUCTURE
     1 RES1        1 GROUP             0 ****  ****    0  
     2 RES2       76 GROUP             0 ****  ****    0  
@<TRIPOS>CRYSIN
   11.3035   13.9434   15.4818   91.7800  109.3940  102.1350     2     1
