@<TRIPOS>MOLECULE
OBAGAD
    84    89     2     0     0
SMALL
USER_CHARGES
****
Generated from the CSD

@<TRIPOS>ATOM
     1 Fe1      3.4794   1.8625  20.0564   Fe        1 RES1   1.0000
     2 O1       1.3390   3.4577  22.2379   O.co2     1 RES1   0.0000
     3 N1       2.1772   0.3709  18.7915   N.3       1 RES1   0.0000
     4 N2       4.4192  -0.0007  20.2287   N.ar      1 RES1   0.0000
     5 O2       2.5078   1.6062  21.8250   O.co2     1 RES1   0.0000
     6 N3       5.7356   2.4404  20.4680   N.3       1 RES1   0.0000
     7 N4       4.3981   1.9473  18.1787   N.ar      1 RES1   0.0000
     8 C1       2.2402  -0.8441  19.6516   C.3       1 RES1   0.0000
     9 H1       1.9464  -1.6311  19.1278   H         1 RES1   0.0000
    10 H2       1.6194  -0.7367  20.4151   H         1 RES1   0.0000
    11 C2       3.6419  -1.0869  20.1762   C.ar      1 RES1   0.0000
    12 C3       4.1264  -2.3246  20.5614   C.ar      1 RES1   0.0000
    13 H3       3.5748  -3.0973  20.5272   H         1 RES1   0.0000
    14 C4       5.4389  -2.4049  20.9990   C.ar      1 RES1   0.0000
    15 H4       5.7839  -3.2342  21.3082   H         1 RES1   0.0000
    16 C5       6.2517  -1.2807  20.9879   C.ar      1 RES1   0.0000
    17 H5       7.1594  -1.3355  21.2628   H         1 RES1   0.0000
    18 C6       5.7121  -0.0785  20.5683   C.ar      1 RES1   0.0000
    19 C7       6.5176   1.1723  20.3151   C.3       1 RES1   0.0000
    20 H6       7.2820   1.1916  20.9439   H         1 RES1   0.0000
    21 H7       6.8854   1.1337  19.3966   H         1 RES1   0.0000
    22 C8       6.0200   3.3282  19.3021   C.3       1 RES1   0.0000
    23 H8       6.9982   3.4525  19.2132   H         1 RES1   0.0000
    24 H9       5.6110   4.2164  19.4565   H         1 RES1   0.0000
    25 C9       5.4699   2.7360  18.0235   C.ar      1 RES1   0.0000
    26 C10      6.0374   2.9339  16.7726   C.ar      1 RES1   0.0000
    27 H10      6.7974   3.4931  16.6620   H         1 RES1   0.0000
    28 C11      5.4581   2.2875  15.6865   C.ar      1 RES1   0.0000
    29 H11      5.7769   2.4605  14.8086   H         1 RES1   0.0000
    30 C12      4.4192   1.3935  15.8783   C.ar      1 RES1   0.0000
    31 H12      4.0566   0.9082  15.1464   H         1 RES1   0.0000
    32 C13      3.9166   1.2194  17.1624   C.ar      1 RES1   0.0000
    33 C14      2.9499   0.1210  17.5347   C.3       1 RES1   0.0000
    34 H13      2.3100  -0.0028  16.7896   H         1 RES1   0.0000
    35 H14      3.4559  -0.7237  17.6376   H         1 RES1   0.0000
    36 C15      0.7352   0.7591  18.4662   C.3       1 RES1   0.0000
    37 C16      0.0274   1.2415  19.7312   C.3       1 RES1   0.0000
    38 H15      0.0373   0.5283  20.4032   H         1 RES1   0.0000
    39 H16     -0.8998   1.4760  19.5173   H         1 RES1   0.0000
    40 H17      0.4906   2.0296  20.0843   H         1 RES1   0.0000
    41 C17     -0.0547  -0.4002  17.8583   C.3       1 RES1   0.0000
    42 H18     -0.1640  -1.1076  18.5276   H         1 RES1   0.0000
    43 H19      0.4298  -0.7551  17.0840   H         1 RES1   0.0000
    44 H20     -0.9365  -0.0809  17.5736   H         1 RES1   0.0000
    45 C18      0.7641   1.9284  17.4795   C.3       1 RES1   0.0000
    46 H21     -0.1454   2.2700  17.3508   H         1 RES1   0.0000
    47 H22      1.1226   1.6221  16.6204   H         1 RES1   0.0000
    48 H23      1.3338   2.6422  17.8353   H         1 RES1   0.0000
    49 C19      6.0517   3.1198  21.7936   C.3       1 RES1   0.0000
    50 C20      5.8505   2.0881  22.9066   C.3       1 RES1   0.0000
    51 H24      6.5404   1.3954  22.8386   H         1 RES1   0.0000
    52 H25      4.9653   1.6776  22.8156   H         1 RES1   0.0000
    53 H26      5.9171   2.5308  23.7785   H         1 RES1   0.0000
    54 C21      5.0753   4.2671  22.0432   C.3       1 RES1   0.0000
    55 H27      5.2849   4.6940  22.8999   H         1 RES1   0.0000
    56 H28      4.1600   3.9177  22.0674   H         1 RES1   0.0000
    57 H29      5.1543   4.9259  21.3218   H         1 RES1   0.0000
    58 C22      7.4807   3.6679  21.8325   C.3       1 RES1   0.0000
    59 H30      8.1102   2.9561  21.5932   H         1 RES1   0.0000
    60 H31      7.6818   3.9921  22.7353   H         1 RES1   0.0000
    61 H32      7.5646   4.4067  21.1940   H         1 RES1   0.0000
    62 C23      1.6289   2.2662  22.4674   C.2       1 RES1   0.0000
    63 C24      0.8998   1.5208  23.5583   C.ar      1 RES1   0.0000
    64 C25     -0.0470   2.1842  24.3315   C.ar      1 RES1   0.0000
    65 H33     -0.2542   3.0933  24.1492   H         1 RES1   0.0000
    66 C26     -0.6888   1.5233  25.3679   C.ar      1 RES1   0.0000
    67 H34     -1.3357   1.9761  25.8969   H         1 RES1   0.0000
    68 C27     -0.3814   0.2015  25.6237   C.ar      1 RES1   0.0000
    69 H35     -0.8136  -0.2492  26.3402   H         1 RES1   0.0000
    70 C28      0.5408  -0.4749  24.8573   C.ar      1 RES1   0.0000
    71 H36      0.7344  -1.3878  25.0371   H         1 RES1   0.0000
    72 C29      1.1923   0.1884  23.8138   C.ar      1 RES1   0.0000
    73 H37      1.8318  -0.2704  23.2816   H         1 RES1   0.0000
    74 O3       2.5876   3.7659  19.9934   O.3       1 RES1   0.0000
    75 C30      2.6175   4.9520  19.2157   C.3       1 RES1   0.0000
    76 H38      3.0359   5.6714  19.7331   H         1 RES1   0.0000
    77 H39      1.7024   5.2100  18.9782   H         1 RES1   0.0000
    78 H40      3.1348   4.7938  18.3985   H         1 RES1   0.0000
    79 H41      2.1643   3.8329  20.7182   H         1 RES1   0.0000
    80 Cl1      9.8180   1.7813  18.4675   Cl        2 RES2   0.0000
    81 O4       8.9289   0.8005  17.9258   O.2       2 RES2   0.0000
    82 O5       9.2657   3.0802  18.2575   O.2       2 RES2   0.0000
    83 O6      11.0802   1.7268  17.8213   O.2       2 RES2   0.0000
    84 O7       9.9711   1.5556  19.8762   O.3       2 RES2  -1.0000
@<TRIPOS>BOND
     1     1     3    1
     2     2    62    2
     3     3     8    1
     4     4     1    1
     5     5     1    1
     6     6     1    1
     7     7     1    1
     8     8     9    1
     9    10     8    1
    10    11     4   ar
    11    12    11   ar
    12    13    12    1
    13    14    12   ar
    14    15    14    1
    15    16    14   ar
    16    17    16    1
    17    18     4   ar
    18    19     6    1
    19    20    19    1
    20    21    19    1
    21    22     6    1
    22    23    22    1
    23    24    22    1
    24    25     7   ar
    25    26    25   ar
    26    27    26    1
    27    28    26   ar
    28    29    28    1
    29    30    28   ar
    30    31    30    1
    31    32     7   ar
    32    33     3    1
    33    34    33    1
    34    35    33    1
    35    36     3    1
    36    37    36    1
    37    38    37    1
    38    39    37    1
    39    40    37    1
    40    41    36    1
    41    42    41    1
    42    43    41    1
    43    44    41    1
    44    45    36    1
    45    46    45    1
    46    47    45    1
    47    48    45    1
    48    49     6    1
    49    50    49    1
    50    51    50    1
    51    52    50    1
    52    53    50    1
    53    54    49    1
    54    55    54    1
    55    56    54    1
    56    57    54    1
    57    58    49    1
    58    59    58    1
    59    60    58    1
    60    61    58    1
    61    62     5    1
    62    63    62    1
    63    64    63   ar
    64    65    64    1
    65    66    64   ar
    66    67    66    1
    67    68    66   ar
    68    69    68    1
    69    70    68   ar
    70    71    70    1
    71    72    63   ar
    72    73    72    1
    73    74     1    1
    74    75    74    1
    75    76    75    1
    76    77    75    1
    77    78    75    1
    78    79    74    1
    79     8    11    1
    80    16    18   ar
    81    18    19    1
    82    22    25    1
    83    30    32   ar
    84    32    33    1
    85    70    72   ar
    86    80    81    2
    87    82    80    2
    88    83    80    2
    89    84    80    1
@<TRIPOS>SUBSTRUCTURE
     1 RES1        1 GROUP             0 ****  ****    0  
     2 RES2       80 GROUP             0 ****  ****    0  
@<TRIPOS>CRYSIN
   13.9534   14.0917   32.5921   90.0000   95.1910   90.0000    15     1
