@<TRIPOS>MOLECULE
OBAMOV
    76    78     3     0     0
SMALL
USER_CHARGES
****
Generated from the CSD

@<TRIPOS>ATOM
     1 Fe1      2.8485   1.5529   6.1668   Fe        1 RES1   2.0000
     2 N1       1.1730   0.5632   6.0723   N.2       1 RES1   0.0000
     3 C1       1.2778  -0.7221   6.0366   C.2       1 RES1   0.0000
     4 C2       2.6873  -1.1992   6.0853   C.2       1 RES1   0.0000
     5 N2       3.5600  -0.2519   6.0401   N.2       1 RES1   0.0000
     6 C3       5.0000  -0.5478   6.0267   C.3       1 RES1   0.0000
     7 H1       5.1660  -1.3318   5.4462   H         1 RES1   0.0000
     8 H2       5.2940  -0.7796   6.9430   H         1 RES1   0.0000
     9 C4       5.8141   0.6309   5.5222   C.3       1 RES1   0.0000
    10 H3       6.7470   0.3321   5.3817   H         1 RES1   0.0000
    11 H4       5.4539   0.9091   4.6429   H         1 RES1   0.0000
    12 C5       5.8273   1.8383   6.4415   C.3       1 RES1   0.0000
    13 H5       6.0634   1.5497   7.3591   H         1 RES1   0.0000
    14 H6       6.5186   2.4776   6.1342   H         1 RES1   0.0000
    15 N3       4.5190   2.5065   6.4619   N.2       1 RES1   0.0000
    16 C6       4.4067   3.7383   6.8114   C.2       1 RES1   0.0000
    17 C7       3.0072   4.2405   6.7833   C.2       1 RES1   0.0000
    18 N4       2.1343   3.3345   6.5054   N.2       1 RES1   0.0000
    19 C8       0.6963   3.6253   6.4222   C.3       1 RES1   0.0000
    20 H7       0.4532   3.8071   5.4792   H         1 RES1   0.0000
    21 H8       0.4960   4.4371   6.9513   H         1 RES1   0.0000
    22 C9      -0.1404   2.4674   6.9422   C.3       1 RES1   0.0000
    23 H9      -1.0753   2.7755   7.0433   H         1 RES1   0.0000
    24 H10      0.1900   2.2197   7.8425   H         1 RES1   0.0000
    25 C10     -0.1335   1.2247   6.0657   C.3       1 RES1   0.0000
    26 H11     -0.8216   0.5911   6.3910   H         1 RES1   0.0000
    27 H12     -0.3666   1.4779   5.1373   H         1 RES1   0.0000
    28 C11      0.1523  -1.6979   5.9135   C.3       1 RES1   0.0000
    29 H13     -0.0969  -2.0231   6.8044   H         1 RES1   0.0000
    30 H14      0.4347  -2.4529   5.3570   H         1 RES1   0.0000
    31 H15     -0.6193  -1.2565   5.4998   H         1 RES1   0.0000
    32 C12      2.9994  -2.6546   6.1702   C.3       1 RES1   0.0000
    33 H16      2.9427  -3.0534   5.2773   H         1 RES1   0.0000
    34 H17      2.3564  -3.0923   6.7659   H         1 RES1   0.0000
    35 H18      3.9051  -2.7744   6.5242   H         1 RES1   0.0000
    36 C13      5.5216   4.6340   7.2579   C.3       1 RES1   0.0000
    37 H19      5.4882   4.7350   8.2325   H         1 RES1   0.0000
    38 H20      5.4241   5.5122   6.8346   H         1 RES1   0.0000
    39 H21      6.3807   4.2404   6.9993   H         1 RES1   0.0000
    40 C14      2.7497   5.6853   7.0500   C.3       1 RES1   0.0000
    41 H22      1.7903   5.8655   6.9719   H         1 RES1   0.0000
    42 H23      3.2381   6.2305   6.3992   H         1 RES1   0.0000
    43 H24      3.0511   5.9090   7.9551   H         1 RES1   0.0000
    44 O1       3.4249   2.8629   3.8601   O.2       1 RES1   0.0000
    45 N5       2.8992   1.8642   4.3751   N.2       1 RES1   0.0000
    46 C15      2.2498   0.9883   3.3961   C.ar      1 RES1   0.0000
    47 C16      1.0696   1.4284   2.8173   C.ar      1 RES1   0.0000
    48 H25      0.7264   2.2927   3.0074   H         1 RES1   0.0000
    49 C17      0.4012   0.5676   1.9492   C.ar      1 RES1   0.0000
    50 H26     -0.4167   0.8431   1.5517   H         1 RES1   0.0000
    51 C18      0.9142  -0.6783   1.6620   C.ar      1 RES1   0.0000
    52 H27      0.4374  -1.2635   1.0862   H         1 RES1   0.0000
    53 C19      2.1201  -1.0798   2.2066   C.ar      1 RES1   0.0000
    54 H28      2.4819  -1.9289   1.9829   H         1 RES1   0.0000
    55 C20      2.8043  -0.2393   3.0840   C.ar      1 RES1   0.0000
    56 H29      3.6346  -0.5052   3.4605   H         1 RES1   0.0000
    57 N6       2.8689   1.2096   8.1383   N.1       1 RES1   0.0000
    58 C21      2.9874   0.8937   9.2247   C.1       1 RES1   0.0000
    59 C22      3.1436   0.4817  10.6116   C.3       1 RES1   0.0000
    60 H30      3.0994  -0.4958  10.6686   H         1 RES1   0.0000
    61 H31      2.4252   0.8726  11.1520   H         1 RES1   0.0000
    62 H32      4.0110   0.7901  10.9488   H         1 RES1   0.0000
    63 P1       1.2625   6.5369   3.2153   P.3       2 RES2  -1.0000
    64 F1       2.0245   5.3150   3.8777   F         2 RES2   0.0000
    65 F2      -0.0362   5.6164   3.0705   F         2 RES2   0.0000
    66 F3       0.7865   6.9441   4.6963   F         2 RES2   0.0000
    67 F4       2.5497   7.4651   3.3971   F         2 RES2   0.0000
    68 F5       1.7699   6.1033   1.8095   F         2 RES2   0.0000
    69 F6       0.4879   7.7640   2.6215   F         2 RES2   0.0000
    70 P2       7.0828   9.1859   2.9368   P.3       3 RES3  -1.0000
    71 F7       7.6483   9.7538   1.5436   F         3 RES3   0.0000
    72 F8       7.5352  10.5222   3.6815   F         3 RES3   0.0000
    73 F9       8.5247   8.5705   3.2600   F         3 RES3   0.0000
    74 F10      6.6929   7.8365   2.2035   F         3 RES3   0.0000
    75 F11      5.6754   9.8261   2.6279   F         3 RES3   0.0000
    76 F12      6.5011   8.6156   4.3194   F         3 RES3   0.0000
@<TRIPOS>BOND
     1     1     2    1
     2     2     3    2
     3     3     4    1
     4     4     5    2
     5     5     1    1
     6     6     5    1
     7     7     6    1
     8     8     6    1
     9     9     6    1
    10    10     9    1
    11    11     9    1
    12    12     9    1
    13    13    12    1
    14    14    12    1
    15    15     1    1
    16    16    15    2
    17    17    16    1
    18    18     1    1
    19    19    18    1
    20    20    19    1
    21    21    19    1
    22    22    19    1
    23    23    22    1
    24    24    22    1
    25    25     2    1
    26    26    25    1
    27    27    25    1
    28    28     3    1
    29    29    28    1
    30    30    28    1
    31    31    28    1
    32    32     4    1
    33    33    32    1
    34    34    32    1
    35    35    32    1
    36    36    16    1
    37    37    36    1
    38    38    36    1
    39    39    36    1
    40    40    17    1
    41    41    40    1
    42    42    40    1
    43    43    40    1
    44    44    45    2
    45    45     1    1
    46    46    45    1
    47    47    46   ar
    48    48    47    1
    49    49    47   ar
    50    50    49    1
    51    51    49   ar
    52    52    51    1
    53    53    51   ar
    54    54    53    1
    55    55    46   ar
    56    56    55    1
    57    57     1    1
    58    58    57    3
    59    59    58    1
    60    60    59    1
    61    61    59    1
    62    62    59    1
    63    12    15    1
    64    17    18    2
    65    22    25    1
    66    53    55   ar
    67    63    64    1
    68    65    63    1
    69    66    63    1
    70    67    63    1
    71    68    63    1
    72    69    63    1
    73    70    71    1
    74    72    70    1
    75    73    70    1
    76    74    70    1
    77    75    70    1
    78    76    70    1
@<TRIPOS>SUBSTRUCTURE
     1 RES1        1 GROUP             0 ****  ****    0  
     2 RES2       63 GROUP             0 ****  ****    0  
     3 RES3       70 GROUP             0 ****  ****    0  
@<TRIPOS>CRYSIN
   18.1920   11.7757   14.3800   90.0000  107.2620   90.0000    14     1
