@<TRIPOS>MOLECULE
OBOLEY
    91    91     4     0     0
SMALL
USER_CHARGES
****
Generated from the CSD

@<TRIPOS>ATOM
     1 C1       9.5016   6.8259  -0.7710   C.1       1 RES1  -1.0000
     2 C2       9.4902   5.2220   2.7765   C.1       1 RES1   0.0000
     3 C3       9.0663   7.6529   1.6156   C.1       1 RES1   0.0000
     4 C4      12.1189   7.3992   1.6447   C.ar      1 RES1   0.0000
     5 H1      11.5946   8.1322   1.9473   H         1 RES1   0.0000
     6 C5      13.4997   7.4713   1.6977   C.ar      1 RES1   0.0000
     7 H2      13.9214   8.2544   2.0311   H         1 RES1   0.0000
     8 C6      14.2616   6.4062   1.2686   C.ar      1 RES1   0.0000
     9 H3      15.2101   6.4438   1.3130   H         1 RES1   0.0000
    10 C7      13.6518   5.3239   0.7916   C.ar      1 RES1   0.0000
    11 H4      14.1881   4.6065   0.4736   H         1 RES1   0.0000
    12 C8      12.2764   5.1923   0.7334   C.ar      1 RES1   0.0000
    13 C9      11.5353   3.9690   0.2462   C.2       1 RES1   0.0000
    14 C10      9.1968   3.4224  -0.1641   C.2       1 RES1   0.0000
    15 C11      7.8280   3.9095   0.0821   C.ar      1 RES1   0.0000
    16 C12      6.6531   3.2579  -0.2257   C.ar      1 RES1   0.0000
    17 H5       6.6717   2.3745  -0.5727   H         1 RES1   0.0000
    18 C13      5.4423   3.9095  -0.0222   C.ar      1 RES1   0.0000
    19 H6       4.6292   3.4631  -0.2308   H         1 RES1   0.0000
    20 C14      5.4039   5.2032   0.4838   C.ar      1 RES1   0.0000
    21 H7       4.5748   5.6465   0.6172   H         1 RES1   0.0000
    22 C15      6.6025   5.8345   0.7916   C.ar      1 RES1   0.0000
    23 H8       6.5929   6.7163   1.1472   H         1 RES1   0.0000
    24 Fe1      9.5776   5.9158   0.9393   Fe        1 RES1   0.0000
    25 N1       9.4319   7.2880  -1.8721   N.1       1 RES1   0.0000
    26 N2       9.3670   4.8101   3.8399   N.1       1 RES1   0.0000
    27 N3       8.8574   8.6773   2.0704   N.1       1 RES1   0.0000
    28 N4      11.4949   6.2589   1.1489   N.ar      1 RES1   0.0000
    29 N5      10.1312   4.3950   0.3146   N.am      1 RES1   0.0000
    30 N6       7.8067   5.1907   0.5813   N.ar      1 RES1   0.0000
    31 O1      12.0222   2.9086   0.0068   O.2       1 RES1   0.0000
    32 O2       9.3350   2.3416  -0.6616   O.2       1 RES1   0.0000
    33 C16      6.8835   6.4986  12.7454   C.3       2 RES2   0.0000
    34 H9       6.1044   6.6301  13.3420   H         2 RES2   0.0000
    35 H10      7.6962   6.5330  13.3095   H         2 RES2   0.0000
    36 C17      6.7849   5.0952  12.1213   C.3       2 RES2   0.0000
    37 H11      5.9695   5.0169  11.5657   H         2 RES2   0.0000
    38 H12      7.5755   4.9088  11.5537   H         2 RES2   0.0000
    39 C18      6.7276   4.1194  13.3044   C.3       2 RES2   0.0000
    40 H13      7.4623   4.3527  13.9267   H         2 RES2   0.0000
    41 H14      5.8773   4.2760  13.7865   H         2 RES2   0.0000
    42 C19      6.8234   2.6611  13.0121   C.3       2 RES2   0.0000
    43 H15      6.3613   2.4654  12.1709   H         2 RES2   0.0000
    44 H16      6.4060   2.1537  13.7387   H         2 RES2   0.0000
    45 H17      7.7663   2.4043  12.9334   H         2 RES2   0.0000
    46 C20      5.7866   7.6764  10.7981   C.3       2 RES2   0.0000
    47 H18      5.8638   8.4752  10.2185   H         2 RES2   0.0000
    48 H19      5.8441   6.8776  10.2168   H         2 RES2   0.0000
    49 C21      4.4498   7.6921  11.4648   C.3       2 RES2   0.0000
    50 H20      4.3947   8.4659  12.0820   H         2 RES2   0.0000
    51 H21      4.3336   6.8651  11.9965   H         2 RES2   0.0000
    52 C22      3.3506   7.7892  10.4220   C.3       2 RES2   0.0000
    53 H22      3.4177   7.0343   9.7860   H         2 RES2   0.0000
    54 H23      3.4377   8.6350   9.9142   H         2 RES2   0.0000
    55 C23      2.0067   7.7485  11.1451   C.3       2 RES2   0.0000
    56 H24      2.1576   7.6890  12.1111   H         2 RES2   0.0000
    57 H25      1.4980   6.9669  10.8442   H         2 RES2   0.0000
    58 H26      1.5024   8.5645  10.9434   H         2 RES2   0.0000
    59 C24      6.9964   8.8982  12.6000   C.3       2 RES2   0.0000
    60 H27      7.7918   8.8465  13.1865   H         2 RES2   0.0000
    61 H28      6.1951   8.9295  13.1796   H         2 RES2   0.0000
    62 C25      7.0690  10.1966  11.7777   C.3       2 RES2   0.0000
    63 H29      7.7922  10.1277  11.1058   H         2 RES2   0.0000
    64 H30      6.2135  10.3376  11.2990   H         2 RES2   0.0000
    65 C26      7.3346  11.3494  12.6958   C.3       2 RES2   0.0000
    66 H31      8.2141  11.2304  13.1335   H         2 RES2   0.0000
    67 H32      6.6414  11.3807  13.4019   H         2 RES2   0.0000
    68 C27      7.3241  12.6479  11.9145   C.3       2 RES2   0.0000
    69 H33      7.8919  12.5555  11.1212   H         2 RES2   0.0000
    70 H34      7.6650  13.3715  12.4787   H         2 RES2   0.0000
    71 H35      6.4065  12.8546  11.6375   H         2 RES2   0.0000
    72 C28      8.1704   7.5339  10.8203   C.3       2 RES2   0.0000
    73 H36      8.0996   6.6756  10.3331   H         2 RES2   0.0000
    74 H37      8.1235   8.2591  10.1484   H         2 RES2   0.0000
    75 C29      9.5330   7.5903  11.4785   C.3       2 RES2   0.0000
    76 H38      9.7249   8.5113  11.7897   H         2 RES2   0.0000
    77 H39      9.5606   6.9826  12.2598   H         2 RES2   0.0000
    78 C30     10.5509   7.1643  10.4493   C.3       2 RES2   0.0000
    79 H40     10.3770   6.2245  10.1929   H         2 RES2   0.0000
    80 H41     10.4447   7.7234   9.6390   H         2 RES2   0.0000
    81 C31     11.9596   7.2817  10.9383   C.3       2 RES2   0.0000
    82 H42     11.9654   7.7234  11.8119   H         2 RES2   0.0000
    83 H43     12.4840   7.8111  10.3006   H         2 RES2   0.0000
    84 H44     12.3518   6.3874  11.0203   H         2 RES2   0.0000
    85 N7       6.9364   7.6623  11.7572   N.4       2 RES2   1.0000
    86 O3      11.3808  13.4279   0.1812   O.3       3 RES3   0.0000
    87 H45     12.1868  13.1648   0.1316   H         3 RES3   0.0000
    88 H46     10.8850  12.9627   0.6907   H         3 RES3   0.0000
    89 O4      10.3341  11.3212   2.1336   O.3       4 RES4   0.0000
    90 H47     10.3159  11.7065   2.8910   H         4 RES4   0.0000
    91 H48      9.9392  10.5725   2.0516   H         4 RES4   0.0000
@<TRIPOS>BOND
     1     1    24    1
     2     2    24    1
     3     3    24    1
     4     4     5    1
     5     6     4   ar
     6     7     6    1
     7     8     6   ar
     8     9     8    1
     9    10     8   ar
    10    11    10    1
    11    12    10   ar
    12    13    12    1
    13    14    15    1
    14    15    16   ar
    15    16    17    1
    16    18    16   ar
    17    19    18    1
    18    20    18   ar
    19    21    20    1
    20    22    20   ar
    21    23    22    1
    22    24    28    1
    23    25     1    3
    24    26     2    3
    25    27     3    3
    26    28     4   ar
    27    29    13   am
    28    30    15   ar
    29    31    13    2
    30    32    14    2
    31    12    28   ar
    32    14    29   am
    33    22    30   ar
    34    24    29    1
    35    24    30    1
    36    33    34    1
    37    35    33    1
    38    36    33    1
    39    37    36    1
    40    38    36    1
    41    39    36    1
    42    40    39    1
    43    41    39    1
    44    42    39    1
    45    43    42    1
    46    44    42    1
    47    45    42    1
    48    46    47    1
    49    48    46    1
    50    49    46    1
    51    50    49    1
    52    51    49    1
    53    52    49    1
    54    53    52    1
    55    54    52    1
    56    55    52    1
    57    56    55    1
    58    57    55    1
    59    58    55    1
    60    59    60    1
    61    61    59    1
    62    62    59    1
    63    63    62    1
    64    64    62    1
    65    65    62    1
    66    66    65    1
    67    67    65    1
    68    68    65    1
    69    69    68    1
    70    70    68    1
    71    71    68    1
    72    72    73    1
    73    74    72    1
    74    75    72    1
    75    76    75    1
    76    77    75    1
    77    78    75    1
    78    79    78    1
    79    80    78    1
    80    81    78    1
    81    82    81    1
    82    83    81    1
    83    84    81    1
    84    85    33    1
    85    46    85    1
    86    59    85    1
    87    72    85    1
    88    86    87    1
    89    88    86    1
    90    89    90    1
    91    91    89    1
@<TRIPOS>SUBSTRUCTURE
     1 RES1        1 GROUP             0 ****  ****    0  
     2 RES2       33 GROUP             0 ****  ****    0  
     3 RES3       86 GROUP             0 ****  ****    0  
     4 RES4       89 GROUP             0 ****  ****    0  
@<TRIPOS>CRYSIN
   13.1420   15.6630   17.0970   90.0000   90.4800   90.0000   231     1
