@<TRIPOS>MOLECULE
OBOTEE
   104   110     2     0     0
SMALL
USER_CHARGES
****
Generated from the CSD

@<TRIPOS>ATOM
     1 S1       3.7718   8.1398   6.2556   S.o2      1 RES1   0.0000
     2 O3       4.4607   7.1106   6.9870   O.3       1 RES1  -1.0000
     3 O4       4.6027   9.0225   5.5263   O.2       1 RES1   0.0000
     4 O5       2.6136   7.6770   5.5822   O.2       1 RES1   0.0000
     5 C37      3.1343   9.1747   7.6075   C.3       1 RES1   0.0000
     6 F1       2.1842   8.5284   8.2880   F         1 RES1   0.0000
     7 F2       2.5884  10.2968   7.1535   F         1 RES1   0.0000
     8 F3       4.0747   9.5035   8.4574   F         1 RES1   0.0000
     9 Fe1      7.9639   4.8914   8.6444   Fe        2 RES2   1.0000
    10 O1       5.8576   4.9507   7.6168   O.3       2 RES2   0.0000
    11 H1       5.3934   5.5305   7.3844   H         2 RES2   0.0000
    12 O2       7.8790   3.2644   7.5848   O.3       2 RES2   0.0000
    13 N1       8.9853   6.0853   7.0330   N.3       2 RES2   0.0000
    14 N2       7.7194   6.9746   9.4317   N.3       2 RES2   0.0000
    15 N3      10.1222   4.7164   9.2238   N.ar      2 RES2   0.0000
    16 N4       6.6180   4.6220  10.3825   N.ar      2 RES2   0.0000
    17 C1       5.7356   3.8411   6.7784   C.ar      2 RES2   0.0000
    18 C2       6.8370   2.9746   6.7964   C.ar      2 RES2   0.0000
    19 C3       6.7879   1.8477   5.9443   C.ar      2 RES2   0.0000
    20 C4       5.6389   1.6570   5.1617   C.ar      2 RES2   0.0000
    21 H2       5.6052   0.8967   4.5930   H         2 RES2   0.0000
    22 C5       4.5413   2.5208   5.1714   C.ar      2 RES2   0.0000
    23 C6       4.6153   3.6403   5.9987   C.ar      2 RES2   0.0000
    24 H3       3.8973   4.2619   6.0257   H         2 RES2   0.0000
    25 C7       7.9816   0.8777   5.8707   C.3       2 RES2   0.0000
    26 C8       8.2454   0.2558   7.2464   C.3       2 RES2   0.0000
    27 H4       7.4613  -0.2606   7.5282   H         2 RES2   0.0000
    28 H5       8.4202   0.9666   7.8982   H         2 RES2   0.0000
    29 H6       9.0238  -0.3373   7.1933   H         2 RES2   0.0000
    30 C9       9.2289   1.6486   5.4186   C.3       2 RES2   0.0000
    31 H7       9.9805   1.0268   5.3222   H         2 RES2   0.0000
    32 H8       9.4522   2.3283   6.0885   H         2 RES2   0.0000
    33 H9       9.0510   2.0830   4.5594   H         2 RES2   0.0000
    34 C10      7.7502  -0.2545   4.8754   C.3       2 RES2   0.0000
    35 H10      6.9688  -0.7776   5.1521   H         2 RES2   0.0000
    36 H11      8.5396  -0.8345   4.8505   H         2 RES2   0.0000
    37 H12      7.5929   0.1211   3.9842   H         2 RES2   0.0000
    38 C11      3.3072   2.2102   4.3056   C.3       2 RES2   0.0000
    39 C12      2.7233   0.8492   4.7202   C.3       2 RES2   0.0000
    40 H13      3.4006   0.1520   4.5962   H         2 RES2   0.0000
    41 H14      1.9409   0.6461   4.1666   H         2 RES2   0.0000
    42 H15      2.4562   0.8805   5.6624   H         2 RES2   0.0000
    43 C13      2.2075   3.2686   4.4822   C.3       2 RES2   0.0000
    44 H16      2.5402   4.1375   4.1771   H         2 RES2   0.0000
    45 H17      1.9597   3.3271   5.4274   H         2 RES2   0.0000
    46 H18      1.4220   3.0160   3.9526   H         2 RES2   0.0000
    47 C14      3.6921   2.1531   2.8277   C.3       2 RES2   0.0000
    48 H19      4.0123   3.0336   2.5392   H         2 RES2   0.0000
    49 H20      2.9090   1.8990   2.2955   H         2 RES2   0.0000
    50 H21      4.4019   1.4894   2.7005   H         2 RES2   0.0000
    51 C15      9.0714   7.5300   7.4268   C.3       2 RES2   0.0000
    52 H22      9.8669   7.6282   8.0248   H         2 RES2   0.0000
    53 C16      9.2670   8.4925   6.2428   C.3       2 RES2   0.0000
    54 H23     10.1312   8.2964   5.8016   H         2 RES2   0.0000
    55 H24      8.5469   8.3468   5.5801   H         2 RES2   0.0000
    56 C17      9.2503   9.9470   6.6919   C.3       2 RES2   0.0000
    57 H25     10.0134  10.1150   7.3006   H         2 RES2   0.0000
    58 H26      9.3497  10.5386   5.9044   H         2 RES2   0.0000
    59 C18      7.9472  10.2657   7.4086   C.3       2 RES2   0.0000
    60 H27      7.9427  11.2161   7.6855   H         2 RES2   0.0000
    61 H28      7.1847  10.1187   6.7947   H         2 RES2   0.0000
    62 C19      7.7995   9.3745   8.6323   C.3       2 RES2   0.0000
    63 H29      6.9422   9.5788   9.0845   H         2 RES2   0.0000
    64 H30      8.5333   9.5661   9.2679   H         2 RES2   0.0000
    65 C20      7.8312   7.8952   8.2540   C.3       2 RES2   0.0000
    66 H31      7.0343   7.7252   7.6746   H         2 RES2   0.0000
    67 C21      8.2391   5.8867   5.7690   C.3       2 RES2   0.0000
    68 H32      8.7523   6.2643   5.0242   H         2 RES2   0.0000
    69 H33      7.3697   6.3343   5.8290   H         2 RES2   0.0000
    70 H34      8.1026   4.9282   5.6168   H         2 RES2   0.0000
    71 C22      8.7047   7.2705  10.5030   C.3       2 RES2   0.0000
    72 H35      8.5279   8.1611  10.8723   H         2 RES2   0.0000
    73 H36      9.6101   7.2455  10.1305   H         2 RES2   0.0000
    74 H37      8.6252   6.6016  11.2143   H         2 RES2   0.0000
    75 C23     10.3208   5.4733   6.8992   C.3       2 RES2   0.0000
    76 H38     10.9170   6.1017   6.4194   H         2 RES2   0.0000
    77 H39     10.2459   4.6513   6.3526   H         2 RES2   0.0000
    78 C24      6.3624   7.0199  10.0223   C.3       2 RES2   0.0000
    79 H40      5.6946   7.1253   9.2990   H         2 RES2   0.0000
    80 H41      6.2920   7.8067  10.6191   H         2 RES2   0.0000
    81 C25     10.9443   5.1238   8.2265   C.ar      2 RES2   0.0000
    82 C26     12.3155   5.1577   8.3513   C.ar      2 RES2   0.0000
    83 H42     12.8592   5.4854   7.6446   H         2 RES2   0.0000
    84 C27     12.8824   4.7052   9.5266   C.ar      2 RES2   0.0000
    85 H43     13.8273   4.6844   9.6260   H         2 RES2   0.0000
    86 C28     12.0691   4.2864  10.5486   C.ar      2 RES2   0.0000
    87 H44     12.4462   3.9831  11.3659   H         2 RES2   0.0000
    88 C29     10.6887   4.3088  10.3808   C.ar      2 RES2   0.0000
    89 C30      9.8080   3.8635  11.5020   C.3       2 RES2   0.0000
    90 H45      8.9468   4.3280  11.4457   H         2 RES2   0.0000
    91 H46     10.2364   4.0740  12.3574   H         2 RES2   0.0000
    92 H47      9.6634   2.8956  11.4387   H         2 RES2   0.0000
    93 C31      6.0506   5.7693  10.8085   C.ar      2 RES2   0.0000
    94 C32      5.1375   5.8161  11.8487   C.ar      2 RES2   0.0000
    95 H48      4.8032   6.6469  12.1663   H         2 RES2   0.0000
    96 C33      4.7249   4.6272  12.4116   C.ar      2 RES2   0.0000
    97 H49      4.0815   4.6261  13.1110   H         2 RES2   0.0000
    98 C34      5.2521   3.4418  11.9524   C.ar      2 RES2   0.0000
    99 H50      4.9595   2.6159  12.3189   H         2 RES2   0.0000
   100 C35      6.2143   3.4587  10.9505   C.ar      2 RES2   0.0000
   101 C36      6.8208   2.1787  10.4467   C.3       2 RES2   0.0000
   102 H51      7.6608   2.3756   9.9832   H         2 RES2   0.0000
   103 H52      6.1993   1.7457   9.8254   H         2 RES2   0.0000
   104 H53      6.9969   1.5814  11.2037   H         2 RES2   0.0000
@<TRIPOS>BOND
     1     1     2    1
     2     3     1    2
     3     4     1    2
     4     5     1    1
     5     6     5    1
     6     7     5    1
     7     8     5    1
     8     9    10    1
     9    10    11    1
    10    12     9    1
    11    13     9    1
    12    14     9    1
    13    15     9    1
    14    16     9    1
    15    17    10    1
    16    18    12    1
    17    19    18   ar
    18    20    19   ar
    19    21    20    1
    20    22    20   ar
    21    23    17   ar
    22    24    23    1
    23    25    19    1
    24    26    25    1
    25    27    26    1
    26    28    26    1
    27    29    26    1
    28    30    25    1
    29    31    30    1
    30    32    30    1
    31    33    30    1
    32    34    25    1
    33    35    34    1
    34    36    34    1
    35    37    34    1
    36    38    22    1
    37    39    38    1
    38    40    39    1
    39    41    39    1
    40    42    39    1
    41    43    38    1
    42    44    43    1
    43    45    43    1
    44    46    43    1
    45    47    38    1
    46    48    47    1
    47    49    47    1
    48    50    47    1
    49    51    13    1
    50    52    51    1
    51    53    51    1
    52    54    53    1
    53    55    53    1
    54    56    53    1
    55    57    56    1
    56    58    56    1
    57    59    56    1
    58    60    59    1
    59    61    59    1
    60    62    59    1
    61    63    62    1
    62    64    62    1
    63    65    14    1
    64    66    65    1
    65    67    13    1
    66    68    67    1
    67    69    67    1
    68    70    67    1
    69    71    14    1
    70    72    71    1
    71    73    71    1
    72    74    71    1
    73    75    13    1
    74    76    75    1
    75    77    75    1
    76    78    14    1
    77    79    78    1
    78    80    78    1
    79    81    15   ar
    80    82    81   ar
    81    83    82    1
    82    84    82   ar
    83    85    84    1
    84    86    84   ar
    85    87    86    1
    86    88    15   ar
    87    89    88    1
    88    90    89    1
    89    91    89    1
    90    92    89    1
    91    93    16   ar
    92    94    93   ar
    93    95    94    1
    94    96    94   ar
    95    97    96    1
    96    98    96   ar
    97    99    98    1
    98   100    16   ar
    99   101   100    1
   100   102   101    1
   101   103   101    1
   102   104   101    1
   103    17    18   ar
   104    22    23   ar
   105    51    65    1
   106    62    65    1
   107    75    81    1
   108    78    93    1
   109    86    88   ar
   110    98   100   ar
@<TRIPOS>SUBSTRUCTURE
     1 RES1        1 GROUP             0 ****  ****    0  
     2 RES2        9 GROUP             0 ****  ****    0  
@<TRIPOS>CRYSIN
   10.3726   21.9030   17.6723   90.0000   97.1210   90.0000    14     1
