@<TRIPOS>MOLECULE
OBOTOO
   103   109     2     0     0
SMALL
USER_CHARGES
****
Generated from the CSD

@<TRIPOS>ATOM
     1 Fe1      0.8704   6.7619   0.4647   Fe        1 RES1   1.0000
     2 O1      -0.0468   5.8001   1.8581   O.3       1 RES1   0.0000
     3 O2       2.3415   5.6203   0.9656   O.3       1 RES1   0.0000
     4 N1      -0.6332   8.2576  -0.0940   N.3       1 RES1   0.0000
     5 N2       1.4273   8.4687   1.7812   N.3       1 RES1   0.0000
     6 N3      -0.2937   5.8248  -1.1726   N.ar      1 RES1   0.0000
     7 N4       2.4339   7.7896  -0.8194   N.ar      1 RES1   0.0000
     8 C1       0.7257   4.8762   2.4572   C.ar      1 RES1   0.0000
     9 C2       2.0356   4.7694   1.9653   C.ar      1 RES1   0.0000
    10 C3       2.9286   3.7996   2.4828   C.ar      1 RES1   0.0000
    11 C4       2.4168   2.9714   3.4816   C.ar      1 RES1   0.0000
    12 H1       2.9870   2.2973   3.8320   H         1 RES1   0.0000
    13 C5       1.1182   3.0651   4.0057   C.ar      1 RES1   0.0000
    14 C6       0.2736   4.0439   3.4797   C.ar      1 RES1   0.0000
    15 H2      -0.6085   4.1412   3.8187   H         1 RES1   0.0000
    16 C7       4.3793   3.7245   1.9957   C.3       1 RES1   0.0000
    17 C8       5.0780   5.0540   2.3556   C.3       1 RES1   0.0000
    18 H3       5.0936   5.1588   3.3297   H         1 RES1   0.0000
    19 H4       4.5874   5.7986   1.9530   H         1 RES1   0.0000
    20 H5       5.9961   5.0429   2.0128   H         1 RES1   0.0000
    21 C9       4.4332   3.5235   0.4709   C.3       1 RES1   0.0000
    22 H6       3.9456   2.7104   0.2307   H         1 RES1   0.0000
    23 H7       5.3673   3.4409   0.1851   H         1 RES1   0.0000
    24 H8       4.0232   4.2923   0.0247   H         1 RES1   0.0000
    25 C10      5.1431   2.5895   2.6556   C.3       1 RES1   0.0000
    26 H9       4.7243   1.7330   2.4220   H         1 RES1   0.0000
    27 H10      5.1252   2.7054   3.6278   H         1 RES1   0.0000
    28 H11      6.0715   2.5945   2.3423   H         1 RES1   0.0000
    29 C11      0.6538   2.0746   5.0862   C.3       1 RES1   0.0000
    30 C12      0.5663   0.6766   4.4529   C.3       1 RES1   0.0000
    31 H12      0.2728   0.0302   5.1289   H         1 RES1   0.0000
    32 H13      1.4472   0.4181   4.1120   H         1 RES1   0.0000
    33 H14     -0.0778   0.6902   3.7142   H         1 RES1   0.0000
    34 C13      1.6164   2.0600   6.2454   C.3       1 RES1   0.0000
    35 H15      1.6666   2.9572   6.6395   H         1 RES1   0.0000
    36 H16      2.5045   1.7935   5.9302   H         1 RES1   0.0000
    37 H17      1.3033   1.4207   6.9214   H         1 RES1   0.0000
    38 C14     -0.7329   2.4016   5.6264   C.3       1 RES1   0.0000
    39 H18     -0.7366   3.3149   5.9881   H         1 RES1   0.0000
    40 H19     -0.9655   1.7683   6.3366   H         1 RES1   0.0000
    41 H20     -1.3897   2.3376   4.9020   H         1 RES1   0.0000
    42 C15     -0.1394   9.6299   0.2345   C.3       1 RES1   0.0000
    43 H21      0.5932   9.8390  -0.4130   H         1 RES1   0.0000
    44 C16     -1.1826  10.7514   0.1120   C.3       1 RES1   0.0000
    45 H22     -1.9190  10.5897   0.7520   H         1 RES1   0.0000
    46 H23     -1.5629  10.7509  -0.8023   H         1 RES1   0.0000
    47 C17     -0.5397  12.1202   0.4016   C.3       1 RES1   0.0000
    48 H24      0.1645  12.3076  -0.2687   H         1 RES1   0.0000
    49 H25     -1.2254  12.8315   0.3333   H         1 RES1   0.0000
    50 C18      0.0638  12.1262   1.7869   C.3       1 RES1   0.0000
    51 H26     -0.6537  12.0104   2.4591   H         1 RES1   0.0000
    52 H27      0.4992  12.9978   1.9530   H         1 RES1   0.0000
    53 C19      1.0898  11.0098   1.9397   C.3       1 RES1   0.0000
    54 H28      1.4345  11.0078   2.8683   H         1 RES1   0.0000
    55 H29      1.8522  11.1791   1.3311   H         1 RES1   0.0000
    56 C20      0.4788   9.6299   1.6188   C.3       1 RES1   0.0000
    57 H30     -0.2670   9.4864   2.2682   H         1 RES1   0.0000
    58 C21     -1.8870   7.9050   0.6371   C.3       1 RES1   0.0000
    59 H31     -2.6248   8.4586   0.3067   H         1 RES1   0.0000
    60 H32     -1.7623   8.0657   1.5960   H         1 RES1   0.0000
    61 H33     -2.0977   6.9573   0.4890   H         1 RES1   0.0000
    62 C22      1.4589   8.0622   3.2091   C.3       1 RES1   0.0000
    63 H34      1.8321   8.7911   3.7484   H         1 RES1   0.0000
    64 H35      2.0182   7.2647   3.3088   H         1 RES1   0.0000
    65 H36      0.5486   7.8642   3.5129   H         1 RES1   0.0000
    66 C23     -0.8528   8.1352  -1.5409   C.3       1 RES1   0.0000
    67 H37     -0.0909   8.5342  -2.0290   H         1 RES1   0.0000
    68 H38     -1.6744   8.6249  -1.7954   H         1 RES1   0.0000
    69 C24      2.8247   8.7564   1.3672   C.3       1 RES1   0.0000
    70 H39      3.4192   8.0506   1.7223   H         1 RES1   0.0000
    71 H40      3.1086   9.6174   1.7631   H         1 RES1   0.0000
    72 C25     -0.9905   6.6873  -1.9207   C.ar      1 RES1   0.0000
    73 C26     -1.7585   6.3130  -3.0012   C.ar      1 RES1   0.0000
    74 H41     -2.2315   6.9624  -3.5101   H         1 RES1   0.0000
    75 C27     -1.8222   4.9598  -3.3269   C.ar      1 RES1   0.0000
    76 H42     -2.3347   4.6651  -4.0703   H         1 RES1   0.0000
    77 C28     -1.1276   4.0641  -2.5502   C.ar      1 RES1   0.0000
    78 H43     -1.1687   3.1386  -2.7581   H         1 RES1   0.0000
    79 C29     -0.3719   4.4792  -1.4745   C.ar      1 RES1   0.0000
    80 C30      0.3661   3.5371  -0.6048   C.3       1 RES1   0.0000
    81 H44      0.2761   2.6298  -0.9580   H         1 RES1   0.0000
    82 H45     -0.0030   3.5719   0.3029   H         1 RES1   0.0000
    83 H46      1.3134   3.7885  -0.5820   H         1 RES1   0.0000
    84 C31      2.9798   8.8269  -0.1272   C.ar      1 RES1   0.0000
    85 C32      3.7376   9.8043  -0.7320   C.ar      1 RES1   0.0000
    86 H47      4.0777  10.5342  -0.2288   H         1 RES1   0.0000
    87 C33      3.9915   9.6995  -2.0802   C.ar      1 RES1   0.0000
    88 H48      4.4819  10.3730  -2.5331   H         1 RES1   0.0000
    89 C34      3.5276   8.6088  -2.7553   C.ar      1 RES1   0.0000
    90 H49      3.7418   8.5040  -3.6753   H         1 RES1   0.0000
    91 C35      2.7517   7.6581  -2.1230   C.ar      1 RES1   0.0000
    92 C36      2.3039   6.4309  -2.8455   C.3       1 RES1   0.0000
    93 H50      2.1953   5.6979  -2.2056   H         1 RES1   0.0000
    94 H51      2.9749   6.1815  -3.5158   H         1 RES1   0.0000
    95 H52      1.4480   6.6047  -3.2898   H         1 RES1   0.0000
    96 S1      -3.1039   9.6217   4.4305   S.o2      2 RES2   0.0000
    97 O3      -4.3955   9.7514   5.0368   O.3       2 RES2  -1.0000
    98 O4      -2.3662   8.4486   4.8412   O.2       2 RES2   0.0000
    99 O5      -3.0369   9.9307   3.0382   O.2       2 RES2   0.0000
   100 F1      -0.8492  10.8854   4.8498   F         2 RES2   0.0000
   101 F2      -2.1876  10.9252   6.5151   F         2 RES2   0.0000
   102 F3      -2.5680  12.1590   4.8051   F         2 RES2   0.0000
   103 C37     -2.1356  10.9499   5.1906   C.3       2 RES2   0.0000
@<TRIPOS>BOND
     1     1     2    1
     2     2     8    1
     3     3     1    1
     4     4     1    1
     5     5     1    1
     6     6     1    1
     7     7     1    1
     8     8     9   ar
     9     9     3    1
    10    10     9   ar
    11    11    10   ar
    12    12    11    1
    13    13    11   ar
    14    14     8   ar
    15    15    14    1
    16    16    10    1
    17    17    16    1
    18    18    17    1
    19    19    17    1
    20    20    17    1
    21    21    16    1
    22    22    21    1
    23    23    21    1
    24    24    21    1
    25    25    16    1
    26    26    25    1
    27    27    25    1
    28    28    25    1
    29    29    13    1
    30    30    29    1
    31    31    30    1
    32    32    30    1
    33    33    30    1
    34    34    29    1
    35    35    34    1
    36    36    34    1
    37    37    34    1
    38    38    29    1
    39    39    38    1
    40    40    38    1
    41    41    38    1
    42    42     4    1
    43    43    42    1
    44    44    42    1
    45    45    44    1
    46    46    44    1
    47    47    44    1
    48    48    47    1
    49    49    47    1
    50    50    47    1
    51    51    50    1
    52    52    50    1
    53    53    50    1
    54    54    53    1
    55    55    53    1
    56    56     5    1
    57    57    56    1
    58    58     4    1
    59    59    58    1
    60    60    58    1
    61    61    58    1
    62    62     5    1
    63    63    62    1
    64    64    62    1
    65    65    62    1
    66    66     4    1
    67    67    66    1
    68    68    66    1
    69    69     5    1
    70    70    69    1
    71    71    69    1
    72    72     6   ar
    73    73    72   ar
    74    74    73    1
    75    75    73   ar
    76    76    75    1
    77    77    75   ar
    78    78    77    1
    79    79     6   ar
    80    80    79    1
    81    81    80    1
    82    82    80    1
    83    83    80    1
    84    84     7   ar
    85    85    84   ar
    86    86    85    1
    87    87    85   ar
    88    88    87    1
    89    89    87   ar
    90    90    89    1
    91    91     7   ar
    92    92    91    1
    93    93    92    1
    94    94    92    1
    95    95    92    1
    96    13    14   ar
    97    42    56    1
    98    53    56    1
    99    66    72    1
   100    69    84    1
   101    77    79   ar
   102    89    91   ar
   103    96    97    1
   104    98    96    2
   105    99    96    2
   106   100   103    1
   107   101   103    1
   108   102   103    1
   109   103    96    1
@<TRIPOS>SUBSTRUCTURE
     1 RES1        1 GROUP             0 ****  ****    0  
     2 RES2       96 GROUP             0 ****  ****    0  
@<TRIPOS>CRYSIN
    8.5170   50.3790    9.8740   90.0000  105.9380   90.0000   231     1
