@<TRIPOS>MOLECULE
OBOTII
   107   117     2     0     0
SMALL
USER_CHARGES
****
Generated from the CSD

@<TRIPOS>ATOM
     1 Fe1      0.5984   3.1731   2.5350   Fe        1 RES1   1.0000
     2 O1       0.8185   4.1901   0.9497   O.3       1 RES1   0.0000
     3 O2       2.3791   2.4726   2.0582   O.3       1 RES1   0.0000
     4 N1       0.6983   2.0189   4.3473   N.3       1 RES1   0.0000
     5 N2       1.5200   4.5538   4.0243   N.ar      1 RES1   0.0000
     6 N3      -0.4266   1.2609   1.9484   N.ar      1 RES1   0.0000
     7 N4      -1.4055   3.6188   3.3332   N.ar      1 RES1   0.0000
     8 C1       2.0347   4.0513   0.3969   C.ar      1 RES1   0.0000
     9 C2       2.8780   3.1185   0.9922   C.ar      1 RES1   0.0000
    10 C3       4.1449   2.8949   0.4686   C.ar      1 RES1   0.0000
    11 H1       4.7115   2.2645   0.8487   H         1 RES1   0.0000
    12 C4       4.5482   3.6359  -0.6380   C.ar      1 RES1   0.0000
    13 H2       5.3990   3.5043  -0.9906   H         1 RES1   0.0000
    14 C5       3.7258   4.5424  -1.2135   C.ar      1 RES1   0.0000
    15 H3       4.0176   5.0195  -1.9553   H         1 RES1   0.0000
    16 C6       2.4589   4.7720  -0.7128   C.ar      1 RES1   0.0000
    17 H4       1.8996   5.3982  -1.1127   H         1 RES1   0.0000
    18 C7       1.9481   2.4017   5.0340   C.3       1 RES1   0.0000
    19 H5       2.7070   2.0076   4.5761   H         1 RES1   0.0000
    20 H6       1.9373   2.0690   5.9438   H         1 RES1   0.0000
    21 C8       2.0857   3.8949   5.0432   C.ar      1 RES1   0.0000
    22 C9       2.8021   4.5300   6.0430   C.ar      1 RES1   0.0000
    23 H7       3.1481   4.0516   6.7619   H         1 RES1   0.0000
    24 C10      2.9873   5.8901   5.9453   C.ar      1 RES1   0.0000
    25 H8       3.4966   6.3428   6.5772   H         1 RES1   0.0000
    26 C11      2.4186   6.5609   4.9150   C.ar      1 RES1   0.0000
    27 H9       2.5396   7.4802   4.8432   H         1 RES1   0.0000
    28 C12      1.6597   5.8963   3.9701   C.ar      1 RES1   0.0000
    29 C13      0.9346   6.6458   2.9108   C.3       1 RES1   0.0000
    30 H10      1.1361   7.5817   2.9856   H         1 RES1   0.0000
    31 H11     -0.0106   6.5129   3.0146   H         1 RES1   0.0000
    32 H12      1.2102   6.3283   2.0484   H         1 RES1   0.0000
    33 C14      0.7295   0.5982   3.9488   C.3       1 RES1   0.0000
    34 H13      0.5643   0.0409   4.7257   H         1 RES1   0.0000
    35 H14      1.6071   0.3778   3.6007   H         1 RES1   0.0000
    36 C15     -0.3081   0.3210   2.9032   C.ar      1 RES1   0.0000
    37 C16     -1.0428  -0.8436   2.9062   C.ar      1 RES1   0.0000
    38 H15     -0.9548  -1.4614   3.5962   H         1 RES1   0.0000
    39 C17     -1.9161  -1.0698   1.8561   C.ar      1 RES1   0.0000
    40 H16     -2.4398  -1.8374   1.8347   H         1 RES1   0.0000
    41 C18     -1.9973  -0.1521   0.8533   C.ar      1 RES1   0.0000
    42 H17     -2.5540  -0.3134   0.1252   H         1 RES1   0.0000
    43 C19     -1.2595   1.0152   0.9067   C.ar      1 RES1   0.0000
    44 C20     -1.3504   2.0279  -0.1755   C.3       1 RES1   0.0000
    45 H18     -0.5000   2.4604  -0.2824   H         1 RES1   0.0000
    46 H19     -2.0144   2.6823   0.0534   H         1 RES1   0.0000
    47 H20     -1.5958   1.5968  -0.9983   H         1 RES1   0.0000
    48 C21     -0.4712   2.3397   5.1928   C.3       1 RES1   0.0000
    49 H21     -0.2051   2.9958   5.8552   H         1 RES1   0.0000
    50 H22     -0.7432   1.5371   5.6644   H         1 RES1   0.0000
    51 C22     -1.6460   2.8736   4.4342   C.ar      1 RES1   0.0000
    52 C23     -2.9070   2.6772   4.9272   C.ar      1 RES1   0.0000
    53 H23     -3.0447   2.1390   5.6736   H         1 RES1   0.0000
    54 C24     -3.9617   3.2844   4.3029   C.ar      1 RES1   0.0000
    55 H24     -4.8277   3.1560   4.6173   H         1 RES1   0.0000
    56 C25     -3.7368   4.0821   3.2115   C.ar      1 RES1   0.0000
    57 H25     -4.4476   4.5150   2.7963   H         1 RES1   0.0000
    58 C26     -2.4453   4.2435   2.7292   C.ar      1 RES1   0.0000
    59 C27     -2.1799   5.1244   1.5645   C.3       1 RES1   0.0000
    60 H26     -2.1421   6.0387   1.8561   H         1 RES1   0.0000
    61 H27     -2.8846   5.0222   0.9204   H         1 RES1   0.0000
    62 H28     -1.3422   4.8812   1.1631   H         1 RES1   0.0000
    63 C28      8.4892   4.3856   8.5066   C.ar      2 RES2   0.0000
    64 C29      7.1352   4.4487   8.1631   C.ar      2 RES2   0.0000
    65 H29      6.5276   3.9354   8.6455   H         2 RES2   0.0000
    66 C30      6.6662   5.2372   7.1389   C.ar      2 RES2   0.0000
    67 H30      5.7554   5.2486   6.9496   H         2 RES2   0.0000
    68 C31      7.5185   6.0051   6.3956   C.ar      2 RES2   0.0000
    69 H31      7.1960   6.5400   5.7056   H         2 RES2   0.0000
    70 C32      8.8456   5.9670   6.6840   C.ar      2 RES2   0.0000
    71 H32      9.4416   6.4775   6.1834   H         2 RES2   0.0000
    72 C33      9.3168   5.1755   7.7174   C.ar      2 RES2   0.0000
    73 H33     10.2306   5.1730   7.8914   H         2 RES2   0.0000
    74 C34      8.9594   4.6794  11.1029   C.ar      2 RES2   0.0000
    75 C35      8.0544   5.7335  11.1121   C.ar      2 RES2   0.0000
    76 H34      7.5202   5.8674  10.3642   H         2 RES2   0.0000
    77 C36      7.9160   6.5877  12.1867   C.ar      2 RES2   0.0000
    78 H35      7.2926   7.2771  12.1500   H         2 RES2   0.0000
    79 C37      8.6915   6.4296  13.3055   C.ar      2 RES2   0.0000
    80 H36      8.6058   7.0112  14.0244   H         2 RES2   0.0000
    81 C38      9.5892   5.4028  13.3467   C.ar      2 RES2   0.0000
    82 H37     10.1186   5.2790  14.1008   H         2 RES2   0.0000
    83 C39      9.7131   4.5458  12.2660   C.ar      2 RES2   0.0000
    84 H38     10.3262   3.8490  12.3210   H         2 RES2   0.0000
    85 C40     10.5868   3.1156   9.5598   C.ar      2 RES2   0.0000
    86 C41     10.8820   1.9318   8.8836   C.ar      2 RES2   0.0000
    87 H39     10.1750   1.4044   8.5890   H         2 RES2   0.0000
    88 C42     12.1689   1.5016   8.6271   C.ar      2 RES2   0.0000
    89 H40     12.3087   0.7032   8.1723   H         2 RES2   0.0000
    90 C43     13.2451   2.2522   9.0408   C.ar      2 RES2   0.0000
    91 H41     14.1152   1.9580   8.8897   H         2 RES2   0.0000
    92 C44     13.0126   3.4362   9.6773   C.ar      2 RES2   0.0000
    93 H42     13.7291   3.9653   9.9444   H         2 RES2   0.0000
    94 C45     11.7181   3.8563   9.9307   C.ar      2 RES2   0.0000
    95 H43     11.5933   4.6679  10.3672   H         2 RES2   0.0000
    96 C46      8.0732   2.3279  10.2176   C.ar      2 RES2   0.0000
    97 C47      7.5787   1.4396   9.2560   C.ar      2 RES2   0.0000
    98 H44      7.8127   1.5701   8.3646   H         2 RES2   0.0000
    99 C48      6.7484   0.3645   9.5811   C.ar      2 RES2   0.0000
   100 H45      6.4506  -0.2101   8.9141   H         2 RES2   0.0000
   101 C49      6.3770   0.1589  10.8709   C.ar      2 RES2   0.0000
   102 H46      5.8131  -0.5490  11.0877   H         2 RES2   0.0000
   103 C50      6.8350   0.9963  11.8478   C.ar      2 RES2   0.0000
   104 H47      6.5879   0.8585  12.7346   H         2 RES2   0.0000
   105 C51      7.6686   2.0510  11.5166   C.ar      2 RES2   0.0000
   106 H48      7.9739   2.6022  12.2004   H         2 RES2   0.0000
   107 B1       9.0386   3.6184   9.8421   B         2 RES2  -1.0000
@<TRIPOS>BOND
     1     1     2    1
     2     2     8    1
     3     3     1    1
     4     4     1    1
     5     5     1    1
     6     6     1    1
     7     7     1    1
     8     8     9   ar
     9     9     3    1
    10    10     9   ar
    11    11    10    1
    12    12    10   ar
    13    13    12    1
    14    14    12   ar
    15    15    14    1
    16    16     8   ar
    17    17    16    1
    18    18     4    1
    19    19    18    1
    20    20    18    1
    21    21     5   ar
    22    22    21   ar
    23    23    22    1
    24    24    22   ar
    25    25    24    1
    26    26    24   ar
    27    27    26    1
    28    28     5   ar
    29    29    28    1
    30    30    29    1
    31    31    29    1
    32    32    29    1
    33    33     4    1
    34    34    33    1
    35    35    33    1
    36    36     6   ar
    37    37    36   ar
    38    38    37    1
    39    39    37   ar
    40    40    39    1
    41    41    39   ar
    42    42    41    1
    43    43     6   ar
    44    44    43    1
    45    45    44    1
    46    46    44    1
    47    47    44    1
    48    48     4    1
    49    49    48    1
    50    50    48    1
    51    51     7   ar
    52    52    51   ar
    53    53    52    1
    54    54    52   ar
    55    55    54    1
    56    56    54   ar
    57    57    56    1
    58    58     7   ar
    59    59    58    1
    60    60    59    1
    61    61    59    1
    62    62    59    1
    63    14    16   ar
    64    18    21    1
    65    26    28   ar
    66    33    36    1
    67    41    43   ar
    68    48    51    1
    69    56    58   ar
    70    63    64   ar
    71    64    65    1
    72    66    64   ar
    73    67    66    1
    74    68    66   ar
    75    69    68    1
    76    70    68   ar
    77    71    70    1
    78    72    63   ar
    79    73    72    1
    80    74    75   ar
    81    75    76    1
    82    77    75   ar
    83    78    77    1
    84    79    77   ar
    85    80    79    1
    86    81    79   ar
    87    82    81    1
    88    83    74   ar
    89    84    83    1
    90    85    86   ar
    91    86    87    1
    92    88    86   ar
    93    89    88    1
    94    90    88   ar
    95    91    90    1
    96    92    90   ar
    97    93    92    1
    98    94    85   ar
    99    95    94    1
   100    96    97   ar
   101    97    98    1
   102    99    97   ar
   103   100    99    1
   104   101    99   ar
   105   102   101    1
   106   103   101   ar
   107   104   103    1
   108   105    96   ar
   109   106   105    1
   110   107    63    1
   111    70    72   ar
   112    74   107    1
   113    81    83   ar
   114    85   107    1
   115    92    94   ar
   116    96   107    1
   117   103   105   ar
@<TRIPOS>SUBSTRUCTURE
     1 RES1        1 GROUP             0 ****  ****    0  
     2 RES2       63 GROUP             0 ****  ****    0  
@<TRIPOS>CRYSIN
    9.6960   14.7040   15.3150   89.6500   85.3300   81.4300     2     1
