@<TRIPOS>MOLECULE
OCEVUQ
    80    87     2     0     0
SMALL
USER_CHARGES
****
Generated from the CSD

@<TRIPOS>ATOM
     1 C1       2.0187  14.0954   7.4792   C.1       1 RES1  -1.0000
     2 C2       1.9441  12.5908   5.2147   C.1       1 RES1   0.0000
     3 C3      -0.2590  12.8751   6.6494   C.1       1 RES1   0.0000
     4 C4       0.9675  10.4284   6.5352   C.1       1 RES1   0.0000
     5 C5       4.3803  11.3829   6.7412   C.ar      1 RES1   0.0000
     6 H1       4.3269  11.6697   5.8384   H         1 RES1   0.0000
     7 C6       5.5641  10.7932   7.1814   C.ar      1 RES1   0.0000
     8 H2       6.2847  10.6497   6.5801   H         1 RES1   0.0000
     9 C7       5.6723  10.4173   8.5150   C.ar      1 RES1   0.0000
    10 H3       6.4676  10.0143   8.8428   H         1 RES1   0.0000
    11 C8       4.5875  10.6473   9.3598   C.ar      1 RES1   0.0000
    12 C9       4.6164  10.3196  10.7946   C.ar      1 RES1   0.0000
    13 C10      5.7286   9.6125  12.6302   C.ar      1 RES1   0.0000
    14 H4       6.5102   9.2749  13.0497   H         1 RES1   0.0000
    15 C11      4.5814   9.8338  13.4131   C.ar      1 RES1   0.0000
    16 H5       4.6210   9.6520  14.3459   H         1 RES1   0.0000
    17 C12      3.4555  10.5298  11.5756   C.ar      1 RES1   0.0000
    18 C13      2.2351  11.0330  10.9781   C.ar      1 RES1   0.0000
    19 C14      1.0284  11.2123  11.6787   C.ar      1 RES1   0.0000
    20 H6       0.9751  11.0046  12.6040   H         1 RES1   0.0000
    21 C15     -0.0731  11.6895  11.0062   C.ar      1 RES1   0.0000
    22 H7      -0.8943  11.8168  11.4670   H         1 RES1   0.0000
    23 C16      0.0213  11.9850   9.6464   C.ar      1 RES1   0.0000
    24 H8      -0.7542  12.2990   9.1949   H         1 RES1   0.0000
    25 C17      2.2336  11.3668   9.6183   C.ar      1 RES1   0.0000
    26 C18      3.4235  11.1962   8.8316   C.ar      1 RES1   0.0000
    27 Fe1      1.5071  12.2525   7.0274   Fe        1 RES1   0.0000
    28 N1       2.3128  15.1673   7.7452   N.1       1 RES1   0.0000
    29 N2       2.2534  12.7713   4.1095   N.1       1 RES1   0.0000
    30 N3      -1.3423  13.2609   6.4827   N.1       1 RES1   0.0000
    31 N4       0.7039   9.3504   6.2542   N.1       1 RES1   0.0000
    32 N5       3.3214  11.5622   7.5260   N.ar      1 RES1   0.0000
    33 N6       5.7606   9.8585  11.3303   N.ar      1 RES1   0.0000
    34 N7       3.4494  10.2850  12.8999   N.ar      1 RES1   0.0000
    35 N8       1.1549  11.8465   8.9496   N.ar      1 RES1   0.0000
    36 C19      9.6731   2.3812  12.5140   C.ar      2 RES2   0.0000
    37 C20     11.0230   2.2056  12.8587   C.ar      2 RES2   0.0000
    38 H9      11.4710   1.3971  12.6395   H         2 RES2   0.0000
    39 C21     11.7025   3.2256  13.5274   C.ar      2 RES2   0.0000
    40 H10     12.6213   3.1143  13.7409   H         2 RES2   0.0000
    41 C22     11.0672   4.3754  13.8776   C.ar      2 RES2   0.0000
    42 H11     11.5441   5.0566  14.3366   H         2 RES2   0.0000
    43 C23      9.7249   4.5583  13.5667   C.ar      2 RES2   0.0000
    44 H12      9.2831   5.3595  13.8233   H         2 RES2   0.0000
    45 C24      9.0211   3.5656  12.8737   C.ar      2 RES2   0.0000
    46 H13      8.1069   3.6954  12.6508   H         2 RES2   0.0000
    47 C25      9.6823   0.1286  10.5848   C.ar      2 RES2   0.0000
    48 C26     10.7473   0.7022   9.9161   C.ar      2 RES2   0.0000
    49 H14     11.0946   1.5355  10.2083   H         2 RES2   0.0000
    50 C27     11.3110   0.0643   8.8147   C.ar      2 RES2   0.0000
    51 H15     12.0453   0.4612   8.3596   H         2 RES2   0.0000
    52 C28     10.8052  -1.1399   8.3877   C.ar      2 RES2   0.0000
    53 H16     11.2013  -1.5912   7.6515   H         2 RES2   0.0000
    54 C29      9.7021  -1.6925   9.0414   C.ar      2 RES2   0.0000
    55 H17      9.3303  -2.5097   8.7304   H         2 RES2   0.0000
    56 C30      9.1551  -1.0645  10.1277   C.ar      2 RES2   0.0000
    57 H18      8.4101  -1.4515  10.5717   H         2 RES2   0.0000
    58 C31      7.2903   1.6270  11.0362   C.ar      2 RES2   0.0000
    59 C32      7.4838   2.5617  10.0303   C.ar      2 RES2   0.0000
    60 H19      8.3537   2.9054   9.8636   H         2 RES2   0.0000
    61 C33      6.4097   2.9981   9.2661   C.ar      2 RES2   0.0000
    62 H20      6.5361   3.6632   8.6012   H         2 RES2   0.0000
    63 C34      5.1634   2.4603   9.4797   C.ar      2 RES2   0.0000
    64 H21      4.4366   2.7311   8.9327   H         2 RES2   0.0000
    65 C35      4.9577   1.5429  10.4705   C.ar      2 RES2   0.0000
    66 H22      4.0847   1.2042  10.6279   H         2 RES2   0.0000
    67 C36      6.0211   1.1040  11.2478   C.ar      2 RES2   0.0000
    68 H23      5.8810   0.4476  11.9203   H         2 RES2   0.0000
    69 C37      8.3812  -0.0940  13.2015   C.ar      2 RES2   0.0000
    70 C38      9.1201  -1.2524  13.4225   C.ar      2 RES2   0.0000
    71 H24      9.8148  -1.4910  12.8194   H         2 RES2   0.0000
    72 C39      8.8519  -2.0610  14.5164   C.ar      2 RES2   0.0000
    73 H25      9.3700  -2.8411  14.6737   H         2 RES2   0.0000
    74 C40      7.8220  -1.7210  15.3817   C.ar      2 RES2   0.0000
    75 H26      7.6102  -2.2946  16.1085   H         2 RES2   0.0000
    76 C41      7.1044  -0.5638  15.2000   C.ar      2 RES2   0.0000
    77 H27      6.4203  -0.3289  15.8163   H         2 RES2   0.0000
    78 C42      7.3771   0.2683  14.1137   C.ar      2 RES2   0.0000
    79 H28      6.8881   1.0719  13.9919   H         2 RES2   0.0000
    80 P1       8.7659   1.0076  11.8489   P.3       2 RES2   1.0000
@<TRIPOS>BOND
     1     1    27    1
     2     2    27    1
     3     3    27    1
     4     4    27    1
     5     5     6    1
     6     7     5   ar
     7     8     7    1
     8     9     7   ar
     9    10     9    1
    10    11     9   ar
    11    12    11   ar
    12    13    14    1
    13    15    13   ar
    14    16    15    1
    15    17    12   ar
    16    18    17   ar
    17    19    18   ar
    18    20    19    1
    19    21    19   ar
    20    22    21    1
    21    23    21   ar
    22    24    23    1
    23    25    18   ar
    24    26    11   ar
    25    27    32    1
    26    28     1    3
    27    29     2    3
    28    30     3    3
    29    31     4    3
    30    32     5   ar
    31    33    12   ar
    32    34    15   ar
    33    35    23   ar
    34    13    33   ar
    35    17    34   ar
    36    25    26   ar
    37    25    35   ar
    38    26    32   ar
    39    27    35    1
    40    36    37   ar
    41    37    38    1
    42    39    37   ar
    43    40    39    1
    44    41    39   ar
    45    42    41    1
    46    43    41   ar
    47    44    43    1
    48    45    36   ar
    49    46    45    1
    50    47    48   ar
    51    48    49    1
    52    50    48   ar
    53    51    50    1
    54    52    50   ar
    55    53    52    1
    56    54    52   ar
    57    55    54    1
    58    56    47   ar
    59    57    56    1
    60    58    59   ar
    61    59    60    1
    62    61    59   ar
    63    62    61    1
    64    63    61   ar
    65    64    63    1
    66    65    63   ar
    67    66    65    1
    68    67    58   ar
    69    68    67    1
    70    69    70   ar
    71    70    71    1
    72    72    70   ar
    73    73    72    1
    74    74    72   ar
    75    75    74    1
    76    76    74   ar
    77    77    76    1
    78    78    69   ar
    79    79    78    1
    80    80    36    1
    81    43    45   ar
    82    47    80    1
    83    54    56   ar
    84    58    80    1
    85    65    67   ar
    86    69    80    1
    87    76    78   ar
@<TRIPOS>SUBSTRUCTURE
     1 RES1        1 GROUP             0 ****  ****    0  
     2 RES2       36 GROUP             0 ****  ****    0  
@<TRIPOS>CRYSIN
   15.2357   12.3633   18.7308   90.0000   90.0000   90.0000    33     1
