@<TRIPOS>MOLECULE
OCMPFE03
    75    76     2     0     0
SMALL
USER_CHARGES
****
Generated from the CSD

@<TRIPOS>ATOM
     1 Fe1      2.1960   0.1766   3.4262   Fe        1 RES1   1.0000
     2 C1       1.9078  -0.9881   1.3921   C.3       1 RES1   0.0000
     3 C2       0.9608   0.0920   1.8077   C.3       1 RES1   0.0000
     4 C3       0.2078  -0.0883   2.9880   C.3       1 RES1   0.0000
     5 C4       0.5299  -1.0857   3.9565   C.3       1 RES1   0.0000
     6 C5       0.7326  -2.5835   3.7124   C.3       1 RES1   0.0000
     7 C6      -0.2526  -3.1963   2.7051   C.3       1 RES1   0.0000
     8 C7      -0.1518  -2.6295   1.2838   C.3       1 RES1   0.0000
     9 C8       1.2749  -2.3001   0.8262   C.3       1 RES1   0.0000
    10 H1       2.5443  -1.2936   2.3186   H         1 RES1   0.0000
    11 H2       2.6343  -0.6183   0.6662   H         1 RES1   0.0000
    12 H3       0.7523   0.9182   1.1302   H         1 RES1   0.0000
    13 H4      -0.4906   0.6956   3.2694   H         1 RES1   0.0000
    14 H5       0.0496  -0.8924   4.9170   H         1 RES1   0.0000
    15 H6       1.7502  -2.8319   3.3955   H         1 RES1   0.0000
    16 H7       0.5980  -3.0858   4.6777   H         1 RES1   0.0000
    17 H8      -0.0570  -4.2782   2.6582   H         1 RES1   0.0000
    18 H9      -1.2832  -3.0858   3.0672   H         1 RES1   0.0000
    19 H10     -0.7657  -1.7279   1.1852   H         1 RES1   0.0000
    20 H11     -0.5628  -3.3692   0.5837   H         1 RES1   0.0000
    21 H12      1.9325  -3.1539   1.0154   H         1 RES1   0.0000
    22 H13      1.2662  -2.1768  -0.2619   H         1 RES1   0.0000
    23 P1       3.6105   1.4592   2.3914   P.3       1 RES1   0.0000
    24 O1       4.7920   0.8060   1.5053   O.3       1 RES1   0.0000
    25 O2       2.9021   2.3406   1.2515   O.3       1 RES1   0.0000
    26 O3       4.3472   2.5872   3.2403   O.3       1 RES1   0.0000
    27 C9       5.4671  -0.4251   1.8125   C.3       1 RES1   0.0000
    28 C10      3.6065   3.3711   0.5417   C.3       1 RES1   0.0000
    29 C11      5.7573   2.7675   3.3906   C.3       1 RES1   0.0000
    30 H14      4.7994  -1.1409   2.2734   H         1 RES1   0.0000
    31 H15      6.2821  -0.2484   2.4997   H         1 RES1   0.0000
    32 H16      5.8397  -0.8188   0.8764   H         1 RES1   0.0000
    33 H17      4.3497   2.9552  -0.1099   H         1 RES1   0.0000
    34 H18      2.8744   3.9231  -0.0243   H         1 RES1   0.0000
    35 H19      4.0862   4.0574   1.2256   H         1 RES1   0.0000
    36 H20      6.1393   3.3821   2.6582   H         1 RES1   0.0000
    37 H21      5.9144   3.2349   4.3106   H         1 RES1   0.0000
    38 H22      6.2650   1.8567   3.4068   H         1 RES1   0.0000
    39 P2       1.7556   1.7831   4.7488   P.3       1 RES1   0.0000
    40 O4       2.9012   2.2449   5.7497   O.3       1 RES1   0.0000
    41 O5       0.5284   1.3966   5.6866   O.3       1 RES1   0.0000
    42 O6       1.3644   3.2183   4.1506   O.3       1 RES1   0.0000
    43 C12      3.2497   3.6176   6.0375   C.3       1 RES1   0.0000
    44 C13      0.1477   2.2284   6.8039   C.3       1 RES1   0.0000
    45 C14      0.2400   3.3674   3.2710   C.3       1 RES1   0.0000
    46 H23      2.3738   4.1733   6.3221   H         1 RES1   0.0000
    47 H24      3.7077   4.0721   5.1676   H         1 RES1   0.0000
    48 H25      3.9675   3.5864   6.8572   H         1 RES1   0.0000
    49 H26     -0.7242   1.7886   7.2453   H         1 RES1   0.0000
    50 H27     -0.0905   3.2294   6.4757   H         1 RES1   0.0000
    51 H28      0.9551   2.2688   7.5363   H         1 RES1   0.0000
    52 H29      0.0925   4.4273   3.1125   H         1 RES1   0.0000
    53 H30      0.4432   2.9018   2.3073   H         1 RES1   0.0000
    54 H31     -0.6471   2.9589   3.7253   H         1 RES1   0.0000
    55 P3       3.5733  -0.6624   4.8685   P.3       1 RES1   0.0000
    56 O7       5.0017   0.0405   4.9008   O.3       1 RES1   0.0000
    57 O8       3.3042  -0.7360   6.4417   O.3       1 RES1   0.0000
    58 O9       3.8672  -2.1897   4.4481   O.3       1 RES1   0.0000
    59 C15      5.8525   0.2171   6.0601   C.3       1 RES1   0.0000
    60 C16      2.1375  -1.3948   6.9769   C.3       1 RES1   0.0000
    61 C17      4.8602  -2.9681   5.1514   C.3       1 RES1   0.0000
    62 H32      5.9513  -0.6919   6.6163   H         1 RES1   0.0000
    63 H33      6.8199   0.4876   5.6882   H         1 RES1   0.0000
    64 H34      5.4673   1.0084   6.6794   H         1 RES1   0.0000
    65 H35      2.2787  -1.4261   8.0554   H         1 RES1   0.0000
    66 H36      2.0416  -2.3977   6.5872   H         1 RES1   0.0000
    67 H37      1.2432  -0.8225   6.7441   H         1 RES1   0.0000
    68 H38      5.8547  -2.6037   4.9283   H         1 RES1   0.0000
    69 H39      4.7564  -3.9912   4.8086   H         1 RES1   0.0000
    70 H40      4.6982  -2.9276   6.2267   H         1 RES1   0.0000
    71 B1      -0.7754   5.7632   0.5788   B         2 RES2  -1.0000
    72 F1       0.5139   5.2461   0.7599   F         2 RES2   0.0000
    73 F2      -1.7093   4.9720   1.2579   F         2 RES2   0.0000
    74 F3      -1.0791   5.7632  -0.7923   F         2 RES2   0.0000
    75 F4      -0.8096   7.0733   1.0655   F         2 RES2   0.0000
@<TRIPOS>BOND
     1     1     3   un
     2     2     3    1
     3     3     4   un
     4     4     1   un
     5     5     1   un
     6     6     5    1
     7     7     6    1
     8     8     7    1
     9     9     2    1
    10    10     2    1
    11    11     2    1
    12    12     3    1
    13    13     4    1
    14    14     5    1
    15    15     6    1
    16    16     6    1
    17    17     7    1
    18    18     7    1
    19    19     8    1
    20    20     8    1
    21    21     9    1
    22    22     9    1
    23    23     1    1
    24    24    23    1
    25    25    23    1
    26    26    23    1
    27    27    24    1
    28    28    25    1
    29    29    26    1
    30    30    27    1
    31    31    27    1
    32    32    27    1
    33    33    28    1
    34    34    28    1
    35    35    28    1
    36    36    29    1
    37    37    29    1
    38    38    29    1
    39    39     1    1
    40    40    39    1
    41    41    39    1
    42    42    39    1
    43    43    40    1
    44    44    41    1
    45    45    42    1
    46    46    43    1
    47    47    43    1
    48    48    43    1
    49    49    44    1
    50    50    44    1
    51    51    44    1
    52    52    45    1
    53    53    45    1
    54    54    45    1
    55    55     1    1
    56    56    55    1
    57    57    55    1
    58    58    55    1
    59    59    56    1
    60    60    57    1
    61    61    58    1
    62    62    59    1
    63    63    59    1
    64    64    59    1
    65    65    60    1
    66    66    60    1
    67    67    60    1
    68    68    61    1
    69    69    61    1
    70    70    61    1
    71     4     5   un
    72     8     9    1
    73    71    72    1
    74    73    71    1
    75    74    71    1
    76    75    71    1
@<TRIPOS>SUBSTRUCTURE
     1 RES1        1 GROUP             0 ****  ****    0  
     2 RES2       71 GROUP             0 ****  ****    0  
@<TRIPOS>CRYSIN
    8.9360   18.4010   16.5150   90.0000  101.7500   90.0000    14     1
