@<TRIPOS>MOLECULE
OCOVOR
   121   129     2     0     0
SMALL
USER_CHARGES
****
Generated from the CSD

@<TRIPOS>ATOM
     1 Fe1     10.7153   5.0842   3.9503   Fe        1 RES1   1.0000
     2 S1      12.5341   3.4809  -0.0955   S.2       1 RES1   0.0000
     3 P1      12.0084   3.5840   5.0470   P.3       1 RES1   0.0000
     4 P2       9.1158   3.4982   4.2168   P.3       1 RES1   0.0000
     5 P3      12.2687   6.7169   3.8524   P.3       1 RES1   0.0000
     6 P4       9.3675   6.6412   3.0948   P.3       1 RES1   0.0000
     7 N1      11.3048   4.3346   2.2887   N.2       1 RES1   0.0000
     8 C1      11.7243   3.9434   1.2884   C.1       1 RES1   0.0000
     9 C2      11.3460   2.4525  -0.9285   C.3       1 RES1   0.0000
    10 H1      11.7226   2.1324  -1.7507   H         1 RES1   0.0000
    11 H2      10.5556   2.9635  -1.1153   H         1 RES1   0.0000
    12 H3      11.1210   1.7063  -0.3674   H         1 RES1   0.0000
    13 C3      11.4341   1.9547   4.4191   C.3       1 RES1   0.0000
    14 H4      11.6352   1.8690   3.4733   H         1 RES1   0.0000
    15 H5      11.8789   1.2360   4.8955   H         1 RES1   0.0000
    16 C4       9.9452   1.8844   4.6439   C.3       1 RES1   0.0000
    17 H6       9.7696   1.6692   5.5741   H         1 RES1   0.0000
    18 H7       9.5707   1.1759   4.0979   H         1 RES1   0.0000
    19 C5       9.9827   8.2610   3.6985   C.3       1 RES1   0.0000
    20 H8       9.5388   8.9772   3.2161   H         1 RES1   0.0000
    21 H9       9.7730   8.3565   4.6404   H         1 RES1   0.0000
    22 C6      11.4714   8.3684   3.5010   C.3       1 RES1   0.0000
    23 H10     11.8334   9.0408   4.0979   H         1 RES1   0.0000
    24 H11     11.6626   8.6377   2.5893   H         1 RES1   0.0000
    25 C7      11.8719   3.3285   6.8722   C.ar      1 RES1   0.0000
    26 C8      12.4652   2.2014   7.4463   C.ar      1 RES1   0.0000
    27 H12     12.9396   1.6038   6.9142   H         1 RES1   0.0000
    28 C9      12.3477   1.9740   8.8053   C.ar      1 RES1   0.0000
    29 H13     12.7292   1.2148   9.1836   H         1 RES1   0.0000
    30 C10     11.6694   2.8663   9.5942   C.ar      1 RES1   0.0000
    31 H14     11.5979   2.7124  10.5085   H         1 RES1   0.0000
    32 C11     11.0958   3.9767   9.0461   C.ar      1 RES1   0.0000
    33 H15     10.6372   4.5761   9.5878   H         1 RES1   0.0000
    34 C12     11.1976   4.2156   7.6747   C.ar      1 RES1   0.0000
    35 H16     10.8090   4.9757   7.3054   H         1 RES1   0.0000
    36 C13     13.8293   3.4556   4.8555   C.ar      1 RES1   0.0000
    37 C14     14.3977   2.7425   3.8144   C.ar      1 RES1   0.0000
    38 H17     13.8534   2.3110   3.1966   H         1 RES1   0.0000
    39 C15     15.7789   2.6718   3.6894   C.ar      1 RES1   0.0000
    40 H18     16.1538   2.1784   2.9956   H         1 RES1   0.0000
    41 C16     16.5916   3.3171   4.5691   C.ar      1 RES1   0.0000
    42 H19     17.5145   3.2800   4.4632   H         1 RES1   0.0000
    43 C17     16.0469   4.0280   5.6260   C.ar      1 RES1   0.0000
    44 H20     16.6035   4.4541   6.2377   H         1 RES1   0.0000
    45 C18     14.6677   4.1022   5.7704   C.ar      1 RES1   0.0000
    46 H21     14.2991   4.5832   6.4776   H         1 RES1   0.0000
    47 C19      7.8436   3.4871   5.5333   C.ar      1 RES1   0.0000
    48 C20      7.9060   4.3353   6.6230   C.ar      1 RES1   0.0000
    49 H22      8.5632   4.9934   6.6548   H         1 RES1   0.0000
    50 C21      7.0023   4.2207   7.6706   C.ar      1 RES1   0.0000
    51 H23      7.0583   4.7989   8.3969   H         1 RES1   0.0000
    52 C22      6.0288   3.2588   7.6395   C.ar      1 RES1   0.0000
    53 H24      5.4195   3.1916   8.3385   H         1 RES1   0.0000
    54 C23      5.9519   2.3954   6.5761   C.ar      1 RES1   0.0000
    55 H25      5.2957   1.7381   6.5575   H         1 RES1   0.0000
    56 C24      6.8502   2.5020   5.5326   C.ar      1 RES1   0.0000
    57 H26      6.7924   1.9097   4.8177   H         1 RES1   0.0000
    58 C25      8.1031   3.0678   2.7497   C.ar      1 RES1   0.0000
    59 C26      6.8320   3.6008   2.5811   C.ar      1 RES1   0.0000
    60 H27      6.4801   4.1623   3.2334   H         1 RES1   0.0000
    61 C27      6.0830   3.3083   1.4537   C.ar      1 RES1   0.0000
    62 H28      5.2317   3.6708   1.3530   H         1 RES1   0.0000
    63 C28      6.5950   2.4861   0.4882   C.ar      1 RES1   0.0000
    64 H29      6.0945   2.2951  -0.2723   H         1 RES1   0.0000
    65 C29      7.8536   1.9397   0.6415   C.ar      1 RES1   0.0000
    66 H30      8.1975   1.3721  -0.0108   H         1 RES1   0.0000
    67 C30      8.6030   2.2322   1.7619   C.ar      1 RES1   0.0000
    68 H31      9.4518   1.8655   1.8566   H         1 RES1   0.0000
    69 C31     13.2177   7.2288   5.3470   C.ar      1 RES1   0.0000
    70 C32     12.4870   7.3520   6.5299   C.ar      1 RES1   0.0000
    71 H32     11.6057   7.0551   6.5597   H         1 RES1   0.0000
    72 C33     13.0611   7.9109   7.6562   C.ar      1 RES1   0.0000
    73 H33     12.5634   7.9958   8.4379   H         1 RES1   0.0000
    74 C34     14.3691   8.3441   7.6242   C.ar      1 RES1   0.0000
    75 H34     14.7592   8.7066   8.3860   H         1 RES1   0.0000
    76 C35     15.0907   8.2363   6.4720   C.ar      1 RES1   0.0000
    77 H35     15.9743   8.5245   6.4560   H         1 RES1   0.0000
    78 C36     14.5175   7.7000   5.3184   C.ar      1 RES1   0.0000
    79 H36     15.0100   7.6598   4.5302   H         1 RES1   0.0000
    80 C37     13.5064   6.5908   2.4959   C.ar      1 RES1   0.0000
    81 C38     14.6949   5.8929   2.6347   C.ar      1 RES1   0.0000
    82 H37     14.9291   5.5486   3.4668   H         1 RES1   0.0000
    83 C39     15.5393   5.6989   1.5514   C.ar      1 RES1   0.0000
    84 H38     16.3297   5.2233   1.6621   H         1 RES1   0.0000
    85 C40     15.2165   6.2082   0.3164   C.ar      1 RES1   0.0000
    86 H39     15.7942   6.0914  -0.4020   H         1 RES1   0.0000
    87 C41     14.0565   6.8801   0.1519   C.ar      1 RES1   0.0000
    88 H40     13.8345   7.2266  -0.6808   H         1 RES1   0.0000
    89 C42     13.1963   7.0516   1.2235   C.ar      1 RES1   0.0000
    90 H41     12.3853   7.4866   1.0872   H         1 RES1   0.0000
    91 C43      7.6032   6.8546   3.5468   C.ar      1 RES1   0.0000
    92 C44      6.5833   6.9147   2.6126   C.ar      1 RES1   0.0000
    93 H42      6.7756   6.8323   1.7075   H         1 RES1   0.0000
    94 C45      5.2825   7.0976   3.0259   C.ar      1 RES1   0.0000
    95 H43      4.6027   7.1223   2.3926   H         1 RES1   0.0000
    96 C46      4.9741   7.2408   4.3357   C.ar      1 RES1   0.0000
    97 H44      4.0878   7.3522   4.5929   H         1 RES1   0.0000
    98 C47      5.9767   7.2249   5.2931   C.ar      1 RES1   0.0000
    99 H45      5.7711   7.3504   6.1923   H         1 RES1   0.0000
   100 C48      7.2810   7.0198   4.8946   C.ar      1 RES1   0.0000
   101 H46      7.9566   6.9932   5.5331   H         1 RES1   0.0000
   102 C49      9.3640   6.8161   1.2709   C.ar      1 RES1   0.0000
   103 C50      9.7134   7.9999   0.6125   C.ar      1 RES1   0.0000
   104 H47      9.8770   8.7703   1.1066   H         1 RES1   0.0000
   105 C51      9.8168   8.0365  -0.7640   C.ar      1 RES1   0.0000
   106 H48     10.0826   8.8233  -1.1801   H         1 RES1   0.0000
   107 C52      9.5356   6.9420  -1.5218   C.ar      1 RES1   0.0000
   108 H49      9.6022   6.9826  -2.4488   H         1 RES1   0.0000
   109 C53      9.1499   5.7732  -0.9039   C.ar      1 RES1   0.0000
   110 H50      8.9357   5.0252  -1.4135   H         1 RES1   0.0000
   111 C54      9.0839   5.7134   0.4826   C.ar      1 RES1   0.0000
   112 H51      8.8439   4.9138   0.8905   H         1 RES1   0.0000
   113 H52     10.3362   5.7590   5.1786   H         1 RES1   0.0000
   114 S2      11.3974  16.7300   1.8371   S.o2      2 RES2   0.0000
   115 F1      10.9748  14.8803   0.0540   F         2 RES2   0.0000
   116 F2       9.8994  16.7077  -0.2650   F         2 RES2   0.0000
   117 F3      11.9770  16.6119  -0.6823   F         2 RES2   0.0000
   118 O1      10.3201  16.2391   2.6029   O.3       2 RES2  -1.0000
   119 O2      11.4565  18.1594   1.6813   O.2       2 RES2   0.0000
   120 O3      12.6915  16.1576   2.0972   O.2       2 RES2   0.0000
   121 C55     11.0315  16.2038   0.1686   C.3       2 RES2   0.0000
@<TRIPOS>BOND
     1     1     3    1
     2     2     8    2
     3     3    13    1
     4     4     1    1
     5     5     1    1
     6     6     1    1
     7     7     1    1
     8     8     7    2
     9     9     2    1
    10    10     9    1
    11    11     9    1
    12    12     9    1
    13    13    14    1
    14    15    13    1
    15    16     4    1
    16    17    16    1
    17    18    16    1
    18    19     6    1
    19    20    19    1
    20    21    19    1
    21    22     5    1
    22    23    22    1
    23    24    22    1
    24    25     3    1
    25    26    25   ar
    26    27    26    1
    27    28    26   ar
    28    29    28    1
    29    30    28   ar
    30    31    30    1
    31    32    30   ar
    32    33    32    1
    33    34    25   ar
    34    35    34    1
    35    36     3    1
    36    37    36   ar
    37    38    37    1
    38    39    37   ar
    39    40    39    1
    40    41    39   ar
    41    42    41    1
    42    43    41   ar
    43    44    43    1
    44    45    36   ar
    45    46    45    1
    46    47     4    1
    47    48    47   ar
    48    49    48    1
    49    50    48   ar
    50    51    50    1
    51    52    50   ar
    52    53    52    1
    53    54    52   ar
    54    55    54    1
    55    56    47   ar
    56    57    56    1
    57    58     4    1
    58    59    58   ar
    59    60    59    1
    60    61    59   ar
    61    62    61    1
    62    63    61   ar
    63    64    63    1
    64    65    63   ar
    65    66    65    1
    66    67    58   ar
    67    68    67    1
    68    69     5    1
    69    70    69   ar
    70    71    70    1
    71    72    70   ar
    72    73    72    1
    73    74    72   ar
    74    75    74    1
    75    76    74   ar
    76    77    76    1
    77    78    69   ar
    78    79    78    1
    79    80     5    1
    80    81    80   ar
    81    82    81    1
    82    83    81   ar
    83    84    83    1
    84    85    83   ar
    85    86    85    1
    86    87    85   ar
    87    88    87    1
    88    89    80   ar
    89    90    89    1
    90    91     6    1
    91    92    91   ar
    92    93    92    1
    93    94    92   ar
    94    95    94    1
    95    96    94   ar
    96    97    96    1
    97    98    96   ar
    98    99    98    1
    99   100    91   ar
   100   101   100    1
   101   102     6    1
   102   103   102   ar
   103   104   103    1
   104   105   103   ar
   105   106   105    1
   106   107   105   ar
   107   108   107    1
   108   109   107   ar
   109   110   109    1
   110   111   102   ar
   111   112   111    1
   112   113     1    1
   113    13    16    1
   114    19    22    1
   115    32    34   ar
   116    43    45   ar
   117    54    56   ar
   118    65    67   ar
   119    76    78   ar
   120    87    89   ar
   121    98   100   ar
   122   109   111   ar
   123   114   118    1
   124   115   121    1
   125   116   121    1
   126   117   121    1
   127   119   114    2
   128   120   114    2
   129   121   114    1
@<TRIPOS>SUBSTRUCTURE
     1 RES1        1 GROUP             0 ****  ****    0  
     2 RES2      114 GROUP             0 ****  ****    0  
@<TRIPOS>CRYSIN
   13.4600   17.6820   21.6260   90.0000   91.9470   90.0000   231     1
