@<TRIPOS>MOLECULE
ODAJUB
    95   102     2     0     0
SMALL
USER_CHARGES
****
Generated from the CSD

@<TRIPOS>ATOM
     1 Fe1      6.0765  -0.0067   4.6129   Fe        1 RES1   1.0000
     2 Cl1      7.0024  -1.8310   5.6777   Cl        1 RES1   0.0000
     3 N1       5.2313   1.6156   3.2994   N.3       1 RES1   0.0000
     4 N2       7.4121   1.6331   4.9688   N.ar      1 RES1   0.0000
     5 N3       4.1964  -0.7968   3.9018   N.ar      1 RES1   0.0000
     6 N4       7.2257  -0.4297   2.6524   N.3       1 RES1   0.0000
     7 N5       4.8554   0.7468   6.3172   N.1       1 RES1   0.0000
     8 C1       5.7599   2.9219   3.7594   C.3       1 RES1   0.0000
     9 H1       5.1433   3.3049   4.4039   H         1 RES1   0.0000
    10 H2       5.8126   3.5277   3.0022   H         1 RES1   0.0000
    11 C2       7.1200   2.8025   4.3903   C.ar      1 RES1   0.0000
    12 C3       8.0035   3.8712   4.4303   C.ar      1 RES1   0.0000
    13 H3       7.7976   4.6691   3.9987   H         1 RES1   0.0000
    14 C4       9.1924   3.7353   5.1208   C.ar      1 RES1   0.0000
    15 H4       9.7958   4.4414   5.1613   H         1 RES1   0.0000
    16 C5       9.4726   2.5435   5.7467   C.ar      1 RES1   0.0000
    17 H5      10.2603   2.4378   6.2309   H         1 RES1   0.0000
    18 C6       8.5710   1.5140   5.6473   C.ar      1 RES1   0.0000
    19 H6       8.7674   0.7060   6.0622   H         1 RES1   0.0000
    20 C7       3.7689   1.5291   3.4089   C.3       1 RES1   0.0000
    21 H7       3.3547   2.0237   2.6851   H         1 RES1   0.0000
    22 H8       3.4780   1.9193   4.2479   H         1 RES1   0.0000
    23 C8       3.3489   0.0730   3.3449   C.ar      1 RES1   0.0000
    24 C9       2.1706  -0.3486   2.7309   C.ar      1 RES1   0.0000
    25 H9       1.5839   0.2618   2.3454   H         1 RES1   0.0000
    26 C10      1.9024  -1.7129   2.7130   C.ar      1 RES1   0.0000
    27 H10      1.1410  -2.0275   2.2825   H         1 RES1   0.0000
    28 C11      2.7525  -2.6014   3.3281   C.ar      1 RES1   0.0000
    29 H11      2.5645  -3.5126   3.3469   H         1 RES1   0.0000
    30 C12      3.8838  -2.1043   3.9114   C.ar      1 RES1   0.0000
    31 H12      4.4633  -2.6958   4.3334   H         1 RES1   0.0000
    32 C13      5.6486   1.3203   1.9017   C.3       1 RES1   0.0000
    33 H13      5.5839   2.1307   1.3715   H         1 RES1   0.0000
    34 H14      5.0428   0.6658   1.5200   H         1 RES1   0.0000
    35 C14      7.0482   0.7956   1.8305   C.3       1 RES1   0.0000
    36 H15      7.2672   0.5953   0.9059   H         1 RES1   0.0000
    37 H16      7.6623   1.4800   2.1415   H         1 RES1   0.0000
    38 C15      8.6740  -0.6658   2.8580   C.3       1 RES1   0.0000
    39 H17      8.7961  -1.4549   3.3897   H         1 RES1   0.0000
    40 H18      9.0595   0.0881   3.3092   H         1 RES1   0.0000
    41 H19      9.1026  -0.7841   2.0082   H         1 RES1   0.0000
    42 C16      6.6626  -1.6032   1.9573   C.3       1 RES1   0.0000
    43 H20      7.1547  -1.7619   1.1475   H         1 RES1   0.0000
    44 H21      5.7420  -1.4372   1.7439   H         1 RES1   0.0000
    45 H22      6.7261  -2.3736   2.5266   H         1 RES1   0.0000
    46 C17      4.2192   1.0779   7.1922   C.1       1 RES1   0.0000
    47 C18      3.4133   1.5090   8.3284   C.3       1 RES1   0.0000
    48 H23      3.9365   1.4549   9.1324   H         1 RES1   0.0000
    49 H24      2.6435   0.9401   8.4101   H         1 RES1   0.0000
    50 H25      3.1272   2.4151   8.1937   H         1 RES1   0.0000
    51 B1       0.8752   5.4029   2.6911   B         2 RES2  -1.0000
    52 C19      2.3707   6.0938   2.5824   C.ar      2 RES2   0.0000
    53 C20      2.7674   6.8467   1.4709   C.ar      2 RES2   0.0000
    54 H26      2.1455   7.0037   0.7977   H         2 RES2   0.0000
    55 C21      4.0479   7.3703   1.3267   C.ar      2 RES2   0.0000
    56 H27      4.2682   7.8532   0.5637   H         2 RES2   0.0000
    57 C22      4.9877   7.1771   2.3084   C.ar      2 RES2   0.0000
    58 H28      5.8473   7.5197   2.2120   H         2 RES2   0.0000
    59 C23      4.6392   6.4663   3.4401   C.ar      2 RES2   0.0000
    60 H29      5.2583   6.3505   4.1245   H         2 RES2   0.0000
    61 C24      3.3658   5.9238   3.5596   C.ar      2 RES2   0.0000
    62 H30      3.1631   5.4268   4.3183   H         2 RES2   0.0000
    63 C25      0.8344   4.0017   1.8202   C.ar      2 RES2   0.0000
    64 C26      1.8138   3.6419   0.8873   C.ar      2 RES2   0.0000
    65 H31      2.5789   4.1657   0.8204   H         2 RES2   0.0000
    66 C27      1.6917   2.5314   0.0546   C.ar      2 RES2   0.0000
    67 H32      2.3645   2.3321  -0.5561   H         2 RES2   0.0000
    68 C28      0.5711   1.7242   0.1321   C.ar      2 RES2   0.0000
    69 H33      0.4669   0.9993  -0.4429   H         2 RES2   0.0000
    70 C29     -0.3831   2.0136   1.0735   C.ar      2 RES2   0.0000
    71 H34     -1.1302   1.4662   1.1576   H         2 RES2   0.0000
    72 C30     -0.2454   3.1154   1.9015   C.ar      2 RES2   0.0000
    73 H35     -0.9015   3.2734   2.5417   H         2 RES2   0.0000
    74 C31     -0.2632   6.4457   2.0902   C.ar      2 RES2   0.0000
    75 C32     -0.2070   7.8312   2.3164   C.ar      2 RES2   0.0000
    76 H36      0.4933   8.1641   2.8311   H         2 RES2   0.0000
    77 C33     -1.1302   8.7217   1.8199   C.ar      2 RES2   0.0000
    78 H37     -1.0404   9.6290   2.0057   H         2 RES2   0.0000
    79 C34     -2.1909   8.2849   1.0501   C.ar      2 RES2   0.0000
    80 H38     -2.8087   8.8877   0.7021   H         2 RES2   0.0000
    81 C35     -2.3090   6.9395   0.8116   C.ar      2 RES2   0.0000
    82 H39     -3.0218   6.6199   0.3070   H         2 RES2   0.0000
    83 C36     -1.3676   6.0537   1.3194   C.ar      2 RES2   0.0000
    84 H40     -1.4762   5.1474   1.1375   H         2 RES2   0.0000
    85 C37      0.6028   5.1023   4.2889   C.ar      2 RES2   0.0000
    86 C38      0.9243   3.8763   4.8682   C.ar      2 RES2   0.0000
    87 H41      1.1913   3.1765   4.3158   H         2 RES2   0.0000
    88 C39      0.8620   3.6573   6.2414   C.ar      2 RES2   0.0000
    89 H42      1.1015   2.8292   6.5907   H         2 RES2   0.0000
    90 C40      0.4502   4.6578   7.0824   C.ar      2 RES2   0.0000
    91 H43      0.4166   4.5169   8.0000   H         2 RES2   0.0000
    92 C41      0.0898   5.8610   6.5555   C.ar      2 RES2   0.0000
    93 H44     -0.2119   6.5393   7.1141   H         2 RES2   0.0000
    94 C42      0.1716   6.0800   5.1873   C.ar      2 RES2   0.0000
    95 H45     -0.0706   6.9144   4.8543   H         2 RES2   0.0000
@<TRIPOS>BOND
     1     1     2    1
     2     3     1    1
     3     4     1    1
     4     5     1    1
     5     6     1    1
     6     7     1    1
     7     8     3    1
     8     9     8    1
     9    10     8    1
    10    11     4   ar
    11    12    11   ar
    12    13    12    1
    13    14    12   ar
    14    15    14    1
    15    16    14   ar
    16    17    16    1
    17    18     4   ar
    18    19    18    1
    19    20     3    1
    20    21    20    1
    21    22    20    1
    22    23     5   ar
    23    24    23   ar
    24    25    24    1
    25    26    24   ar
    26    27    26    1
    27    28    26   ar
    28    29    28    1
    29    30     5   ar
    30    31    30    1
    31    32     3    1
    32    33    32    1
    33    34    32    1
    34    35     6    1
    35    36    35    1
    36    37    35    1
    37    38     6    1
    38    39    38    1
    39    40    38    1
    40    41    38    1
    41    42     6    1
    42    43    42    1
    43    44    42    1
    44    45    42    1
    45    46     7    3
    46    47    46    1
    47    48    47    1
    48    49    47    1
    49    50    47    1
    50     8    11    1
    51    16    18   ar
    52    20    23    1
    53    28    30   ar
    54    32    35    1
    55    51    52    1
    56    52    53   ar
    57    53    54    1
    58    55    53   ar
    59    56    55    1
    60    57    55   ar
    61    58    57    1
    62    59    57   ar
    63    60    59    1
    64    61    52   ar
    65    62    61    1
    66    63    51    1
    67    64    63   ar
    68    65    64    1
    69    66    64   ar
    70    67    66    1
    71    68    66   ar
    72    69    68    1
    73    70    68   ar
    74    71    70    1
    75    72    63   ar
    76    73    72    1
    77    74    51    1
    78    75    74   ar
    79    76    75    1
    80    77    75   ar
    81    78    77    1
    82    79    77   ar
    83    80    79    1
    84    81    79   ar
    85    82    81    1
    86    83    74   ar
    87    84    83    1
    88    85    51    1
    89    86    85   ar
    90    87    86    1
    91    88    86   ar
    92    89    88    1
    93    90    88   ar
    94    91    90    1
    95    92    90   ar
    96    93    92    1
    97    94    85   ar
    98    95    94    1
    99    59    61   ar
   100    70    72   ar
   101    81    83   ar
   102    92    94   ar
@<TRIPOS>SUBSTRUCTURE
     1 RES1        1 GROUP             0 ****  ****    0  
     2 RES2       51 GROUP             0 ****  ****    0  
@<TRIPOS>CRYSIN
   11.9724   12.5853   25.1650   90.0000   90.0000   90.0000    19     1
