@<TRIPOS>MOLECULE
ODAXUO
    79    87     2     0     0
SMALL
NO_CHARGES
****
Generated from the CSD

@<TRIPOS>ATOM
     1 Fe1      3.6381   6.3014   0.0000   Fe        1 RES1   0.0000
     2 N1       4.2572   7.6619   1.2815   N.ar      1 RES1   0.0000
     3 C1       4.1192   7.6425   2.6267   C.ar      1 RES1   0.0000
     4 H1       3.5809   6.9676   3.0224   H         1 RES1   0.0000
     5 C2       4.7338   8.5697   3.4458   C.ar      1 RES1   0.0000
     6 H2       4.5893   8.5509   4.3843   H         1 RES1   0.0000
     7 C3       5.5600   9.5249   2.8871   C.ar      1 RES1   0.0000
     8 H3       6.0422  10.1275   3.4420   H         1 RES1   0.0000
     9 C4       5.6764   9.5928   1.5084   C.ar      1 RES1   0.0000
    10 H4       6.2173  10.2584   1.0987   H         1 RES1   0.0000
    11 C5       4.9870   8.6698   0.7385   C.ar      1 RES1   0.0000
    12 N2       5.2802   5.2777   0.3687   N.ar      1 RES1   0.0000
    13 C6       6.4746   5.4111  -0.2429   C.ar      1 RES1   0.0000
    14 H5       6.5565   6.0456  -0.9458   H         1 RES1   0.0000
    15 C7       7.5849   4.6664   0.1056   C.ar      1 RES1   0.0000
    16 H6       8.4060   4.7801  -0.3574   H         1 RES1   0.0000
    17 C8       7.4839   3.7507   1.1412   C.ar      1 RES1   0.0000
    18 H7       8.2303   3.2181   1.3903   H         1 RES1   0.0000
    19 C9       6.2809   3.6261   1.8023   C.ar      1 RES1   0.0000
    20 H8       6.1986   3.0245   2.5317   H         1 RES1   0.0000
    21 C10      5.1873   4.3860   1.3960   C.ar      1 RES1   0.0000
    22 C11      3.8430   4.2933   1.9792   C.ar      1 RES1   0.0000
    23 C12      3.5061   3.4505   3.0328   C.ar      1 RES1   0.0000
    24 H9       4.1597   2.8790   3.4171   H         1 RES1   0.0000
    25 C13      2.2129   3.4530   3.5139   C.ar      1 RES1   0.0000
    26 H10      1.9626   2.8824   4.2314   H         1 RES1   0.0000
    27 C14      1.2877   4.3022   2.9318   C.ar      1 RES1   0.0000
    28 H11      0.3934   4.3292   3.2518   H         1 RES1   0.0000
    29 C15      1.6778   5.1110   1.8803   C.ar      1 RES1   0.0000
    30 H12      1.0323   5.6797   1.4774   H         1 RES1   0.0000
    31 N3       2.9328   5.1236   1.4063   N.ar      1 RES1   0.0000
    32 N1E      4.5068   7.5178  -1.2815   N.ar      1 RES1   0.0000
    33 C1E      4.5590   7.3886  -2.6267   C.ar      1 RES1   0.0000
    34 H1E      4.2437   6.5850  -3.0224   H         1 RES1   0.0000
    35 C2E      5.0547   8.3844  -3.4458   C.ar      1 RES1   0.0000
    36 H2E      5.1107   8.2499  -4.3843   H         1 RES1   0.0000
    37 C3E      5.4688   9.5776  -2.8871   C.ar      1 RES1   0.0000
    38 H3E      5.7496  10.2965  -3.4420   H         1 RES1   0.0000
    39 C4E      5.4694   9.7123  -1.5084   C.ar      1 RES1   0.0000
    40 H4E      5.7754  10.5136  -1.0987   H         1 RES1   0.0000
    41 C5E      5.0147   8.6538  -0.7385   C.ar      1 RES1   0.0000
    42 N2E      1.9305   7.2117  -0.3687   N.ar      1 RES1   0.0000
    43 C6E      1.4488   8.3127   0.2429   C.ar      1 RES1   0.0000
    44 H5E      1.9574   8.7009   0.9458   H         1 RES1   0.0000
    45 C7E      0.2488   8.9019  -0.1056   C.ar      1 RES1   0.0000
    46 H6E     -0.0633   9.6699   0.3574   H         1 RES1   0.0000
    47 C8E     -0.4938   8.3566  -1.1412   C.ar      1 RES1   0.0000
    48 H7E     -1.3282   8.7367  -1.3903   H         1 RES1   0.0000
    49 C9E     -0.0001   7.2525  -1.8023   C.ar      1 RES1   0.0000
    50 H8E     -0.4800   6.8804  -2.5317   H         1 RES1   0.0000
    51 C10E     1.2048   6.6853  -1.3960   C.ar      1 RES1   0.0000
    52 C11E     1.7966   5.4747  -1.9792   C.ar      1 RES1   0.0000
    53 C12E     1.2351   4.7616  -3.0328   C.ar      1 RES1   0.0000
    54 H9E      0.4135   5.0419  -3.4171   H         1 RES1   0.0000
    55 C13E     1.8840   3.6429  -3.5139   C.ar      1 RES1   0.0000
    56 H10E     1.5149   3.1409  -4.2314   H         1 RES1   0.0000
    57 C14E     3.0820   3.2663  -2.9318   C.ar      1 RES1   0.0000
    58 H11E     3.5525   2.5053  -3.2518   H         1 RES1   0.0000
    59 C15E     3.5873   4.0085  -1.8803   C.ar      1 RES1   0.0000
    60 H12E     4.4026   3.7339  -1.4774   H         1 RES1   0.0000
    61 N3E      2.9708   5.1017  -1.4063   N.ar      1 RES1   0.0000
    62 C16      4.0584   6.5882   8.2319   C.2       2 RES2   0.0000
    63 C17      4.7536   7.0246   7.1001   C.2       2 RES2   0.0000
    64 C18      4.8665   6.2014   5.9485   C.1       2 RES2   0.0000
    65 N4       4.9758   5.5421   5.0050   N.1       2 RES2   0.0000
    66 C19      5.3961   8.2964   7.1081   C.1       2 RES2   0.0000
    67 N5       5.8920   9.3314   7.1248   N.1       2 RES2   0.0000
    68 C20      3.2658   5.6565   8.8895   C.2       2 RES2   0.0000
    69 C21      2.5625   4.4384   8.8895   C.2       2 RES2   0.0000
    70 C22      2.4515   3.6524   7.7115   C.1       2 RES2   0.0000
    71 N6       2.3426   3.0115   6.7664   N.1       2 RES2   0.0000
    72 C16E     3.6764   6.8087   9.5472   C.2       2 RES2   0.0000
    73 C17E     3.7067   7.6290  10.6790   C.2       2 RES2   0.0000
    74 C18E     2.9373   7.3152  11.8306   C.1       2 RES2   0.0000
    75 N4E      2.3117   7.0802  12.7741   N.1       2 RES2   0.0000
    76 C19E     4.4868   8.8214  10.6710   C.1       2 RES2   0.0000
    77 N5E      5.1352   9.7683  10.6543   N.1       2 RES2   0.0000
    78 C22E     1.9373   3.9493  10.0676   C.1       2 RES2   0.0000
    79 N6E      1.4367   3.5345  11.0127   N.1       2 RES2   0.0000
@<TRIPOS>BOND
     1     1     2    1
     2     2     3   ar
     3     3     4    1
     4     5     3   ar
     5     6     5    1
     6     7     5   ar
     7     8     7    1
     8     9     7   ar
     9    10     9    1
    10    11     2   ar
    11    12     1    1
    12    13    12   ar
    13    14    13    1
    14    15    13   ar
    15    16    15    1
    16    17    15   ar
    17    18    17    1
    18    19    17   ar
    19    20    19    1
    20    21    12   ar
    21    22    21    1
    22    23    22   ar
    23    24    23    1
    24    25    23   ar
    25    26    25    1
    26    27    25   ar
    27    28    27    1
    28    29    27   ar
    29    30    29    1
    30    31     1    1
    31    32     1    1
    32    33    32   ar
    33    34    33    1
    34    35    33   ar
    35    36    35    1
    36    37    35   ar
    37    38    37    1
    38    39    37   ar
    39    40    39    1
    40    41    11    1
    41    42     1    1
    42    43    42   ar
    43    44    43    1
    44    45    43   ar
    45    46    45    1
    46    47    45   ar
    47    48    47    1
    48    49    47   ar
    49    50    49    1
    50    51    42   ar
    51    52    51    1
    52    53    52   ar
    53    54    53    1
    54    55    53   ar
    55    56    55    1
    56    57    55   ar
    57    58    57    1
    58    59    57   ar
    59    60    59    1
    60    61     1    1
    61     9    11   ar
    62    19    21   ar
    63    22    31   ar
    64    29    31   ar
    65    32    41   ar
    66    39    41   ar
    67    49    51   ar
    68    52    61   ar
    69    59    61   ar
    70    62    63    2
    71    63    64    1
    72    64    65    3
    73    66    63    1
    74    67    66    3
    75    68    62    1
    76    69    68    2
    77    70    69    1
    78    71    70    3
    79    72    62    1
    80    73    72    2
    81    74    73    1
    82    75    74    3
    83    76    73    1
    84    77    76    3
    85    78    69    1
    86    79    78    3
    87    68    72    1
@<TRIPOS>SUBSTRUCTURE
     1 RES1        1 GROUP             0 ****  ****    0  
     2 RES2       62 GROUP             0 ****  ****    0  
@<TRIPOS>CRYSIN
   12.9204   12.9204   17.7791   90.0000   90.0000  120.0000   154     1
