@<TRIPOS>MOLECULE
ODECIJ
    75    80     1     0     0
SMALL
NO_CHARGES
****
Generated from the CSD

@<TRIPOS>ATOM
     1 Fe1      3.0187   7.4078   8.1800   Fe        1 RES1   0.0000
     2 S1       5.7562   5.3695   8.3687   S.o2      1 RES1   0.0000
     3 S2       4.8788   9.1293  10.5021   S.o2      1 RES1   0.0000
     4 F1       3.9151   3.4994   8.5104   F         1 RES1   0.0000
     5 F2       4.9210   3.6003   6.6523   F         1 RES1   0.0000
     6 F3       5.9235   2.7755   8.3415   F         1 RES1   0.0000
     7 F4       6.0427  11.1130   9.2672   F         1 RES1   0.0000
     8 F5       4.0638  11.5641   9.9480   F         1 RES1   0.0000
     9 F6       5.6541  11.4775  11.3535   F         1 RES1   0.0000
    10 O1       4.7705   6.2627   7.7959   O.3       1 RES1   0.0000
    11 O2       5.7581   5.3801   9.8027   O.2       1 RES1   0.0000
    12 O3       7.0236   5.4121   7.7131   O.2       1 RES1   0.0000
    13 O4       4.3091   8.7497   9.2193   O.3       1 RES1   0.0000
    14 O5       6.1843   8.6111  10.7538   O.2       1 RES1   0.0000
    15 O6       3.9566   9.0763  11.5781   O.2       1 RES1   0.0000
    16 N1       1.1710   8.6104   8.3145   N.3       1 RES1   0.0000
    17 N2       3.1719   8.5161   6.2617   N.3       1 RES1   0.0000
    18 N3       2.0259   6.5047   9.8548   N.ar      1 RES1   0.0000
    19 N4       2.1064   6.0091   6.7367   N.ar      1 RES1   0.0000
    20 C1       0.7972   8.9519   6.9057   C.3       1 RES1   0.0000
    21 H1       0.4883   8.0936   6.4952   H         1 RES1   0.0000
    22 C2       1.9646   9.3882   6.0897   C.3       1 RES1   0.0000
    23 H2       2.2320  10.2669   6.4833   H         1 RES1   0.0000
    24 C3       1.5743   9.7124   4.6421   C.3       1 RES1   0.0000
    25 H3       2.3526  10.1140   4.1809   H         1 RES1   0.0000
    26 H4       1.3445   8.8724   4.1724   H         1 RES1   0.0000
    27 C4       0.4147  10.6542   4.5542   C.3       1 RES1   0.0000
    28 H5       0.7142  11.5533   4.8431   H         1 RES1   0.0000
    29 H6       0.1332  10.7236   3.6082   H         1 RES1   0.0000
    30 C5      -0.7389  10.2649   5.3600   C.3       1 RES1   0.0000
    31 H7      -1.1735   9.4840   4.9360   H         1 RES1   0.0000
    32 H8      -1.3930  11.0090   5.3600   H         1 RES1   0.0000
    33 C6      -0.3992   9.9162   6.7959   C.3       1 RES1   0.0000
    34 H9      -1.1899   9.5003   7.2232   H         1 RES1   0.0000
    35 H10     -0.1893  10.7480   7.2908   H         1 RES1   0.0000
    36 C7       0.1549   7.7185   8.8922   C.3       1 RES1   0.0000
    37 H11     -0.2073   7.1293   8.1844   H         1 RES1   0.0000
    38 H12     -0.5923   8.2608   9.2503   H         1 RES1   0.0000
    39 C8       0.7308   6.8786   9.9902   C.ar      1 RES1   0.0000
    40 C9       2.5430   5.6533  10.7605   C.ar      1 RES1   0.0000
    41 H13      3.4509   5.3924  10.6575   H         1 RES1   0.0000
    42 C10      1.8443   5.1375  11.8214   C.ar      1 RES1   0.0000
    43 C11      0.5360   5.5860  11.9734   C.ar      1 RES1   0.0000
    44 H14      0.0247   5.2945  12.7184   H         1 RES1   0.0000
    45 C12     -0.0200   6.4362  11.0697   C.ar      1 RES1   0.0000
    46 H15     -0.9185   6.7257  11.1778   H         1 RES1   0.0000
    47 C13      2.4534   4.1263  12.7589   C.3       1 RES1   0.0000
    48 H16      1.8464   3.3639  12.8552   H         1 RES1   0.0000
    49 H17      2.6017   4.5402  13.6339   H         1 RES1   0.0000
    50 H18      3.3098   3.8185  12.3940   H         1 RES1   0.0000
    51 C14      1.3689   9.7633   9.2216   C.3       1 RES1   0.0000
    52 H19      0.5241  10.2506   9.3179   H         1 RES1   0.0000
    53 H20      2.0490  10.3607   8.8466   H         1 RES1   0.0000
    54 H21      1.6639   9.4412  10.0983   H         1 RES1   0.0000
    55 C15      3.3659   7.4620   5.2485   C.3       1 RES1   0.0000
    56 H22      4.3108   7.1668   5.2654   H         1 RES1   0.0000
    57 H23      3.1843   7.8402   4.3515   H         1 RES1   0.0000
    58 C16      2.4749   6.2690   5.4664   C.ar      1 RES1   0.0000
    59 C17      1.3803   4.9112   6.9783   C.ar      1 RES1   0.0000
    60 H24      1.0903   4.7502   7.8685   H         1 RES1   0.0000
    61 C18      1.0280   3.9999   5.9985   C.ar      1 RES1   0.0000
    62 C19      1.4236   4.2568   4.6995   C.ar      1 RES1   0.0000
    63 H25      1.2139   3.6472   4.0001   H         1 RES1   0.0000
    64 C20      2.1343   5.4229   4.4326   C.ar      1 RES1   0.0000
    65 H26      2.3838   5.6350   3.5407   H         1 RES1   0.0000
    66 C21      0.2108   2.7747   6.3431   C.3       1 RES1   0.0000
    67 H27     -0.2552   2.4566   5.5407   H         1 RES1   0.0000
    68 H28     -0.4461   3.0030   7.0324   H         1 RES1   0.0000
    69 H29      0.8040   2.0693   6.6759   H         1 RES1   0.0000
    70 C22      4.3887   9.3739   6.2367   C.3       1 RES1   0.0000
    71 H30      4.4796   9.7837   5.3515   H         1 RES1   0.0000
    72 H31      5.1787   8.8255   6.4259   H         1 RES1   0.0000
    73 H32      4.3078  10.0753   6.9158   H         1 RES1   0.0000
    74 C23      5.0943   3.7267   7.9412   C.3       1 RES1   0.0000
    75 C24      5.1755  10.9132  10.2385   C.3       1 RES1   0.0000
@<TRIPOS>BOND
     1     1    10    1
     2     2    10    1
     3     3    13    1
     4     4    74    1
     5     5    74    1
     6     6    74    1
     7     7    75    1
     8     8    75    1
     9     9    75    1
    10    11     2    2
    11    12     2    2
    12    13     1    1
    13    14     3    2
    14    15     3    2
    15    16     1    1
    16    17     1    1
    17    18     1    1
    18    19     1    1
    19    20    16    1
    20    21    20    1
    21    22    17    1
    22    23    22    1
    23    24    22    1
    24    25    24    1
    25    26    24    1
    26    27    24    1
    27    28    27    1
    28    29    27    1
    29    30    27    1
    30    31    30    1
    31    32    30    1
    32    33    20    1
    33    34    33    1
    34    35    33    1
    35    36    16    1
    36    37    36    1
    37    38    36    1
    38    39    18   ar
    39    40    18   ar
    40    41    40    1
    41    42    40   ar
    42    43    42   ar
    43    44    43    1
    44    45    39   ar
    45    46    45    1
    46    47    42    1
    47    48    47    1
    48    49    47    1
    49    50    47    1
    50    51    16    1
    51    52    51    1
    52    53    51    1
    53    54    51    1
    54    55    17    1
    55    56    55    1
    56    57    55    1
    57    58    19   ar
    58    59    19   ar
    59    60    59    1
    60    61    59   ar
    61    62    61   ar
    62    63    62    1
    63    64    58   ar
    64    65    64    1
    65    66    61    1
    66    67    66    1
    67    68    66    1
    68    69    66    1
    69    70    17    1
    70    71    70    1
    71    72    70    1
    72    73    70    1
    73    74     2    1
    74    75     3    1
    75    20    22    1
    76    30    33    1
    77    36    39    1
    78    43    45   ar
    79    55    58    1
    80    62    64   ar
@<TRIPOS>SUBSTRUCTURE
     1 RES1        1 GROUP             0 ****  ****    0  
@<TRIPOS>CRYSIN
    8.8396   20.3870   16.9160   90.0000   93.0200   90.0000     9     1
