@<TRIPOS>MOLECULE
ODICAG
   105   111     3     0     0
SMALL
USER_CHARGES
****
Generated from the CSD

@<TRIPOS>ATOM
     1 Fe1     21.7659   0.3799   4.4836   Fe        1 RES1   2.0000
     2 N1      20.0172   2.1720   8.0724   N.pl3     1 RES1   0.0000
     3 N2      20.9040   1.3929   6.2147   N.2       1 RES1   0.0000
     4 N3      23.5158   1.2392   5.4522   N.2       1 RES1   0.0000
     5 N4      26.4848   0.5817   7.3846   N.ar      1 RES1   0.0000
     6 N5      22.3438  -3.4606   6.4567   N.pl3     1 RES1   0.0000
     7 N6      22.0754  -1.5295   5.4421   N.2       1 RES1   0.0000
     8 N7      22.8149  -0.8078   2.8925   N.2       1 RES1   0.0000
     9 N8      22.3222  -2.7595  -0.3490   N.ar      1 RES1   0.0000
    10 N9      17.7973  -0.6288   3.0075   N.pl3     1 RES1   0.0000
    11 N10     19.8188  -0.1297   3.6772   N.2       1 RES1   0.0000
    12 N11     21.3580   2.0504   3.1063   N.2       1 RES1   0.0000
    13 N12     19.9201   5.0658   3.2334   N.ar      1 RES1   0.0000
    14 C1      18.3976   1.3413   6.3760   C.3       1 RES1   0.0000
    15 C2      19.7672   1.6167   6.8621   C.2       1 RES1   0.0000
    16 C3      21.3597   2.3315   8.2096   C.2       1 RES1   0.0000
    17 C4      21.9127   1.8496   7.0558   C.2       1 RES1   0.0000
    18 C5      23.2639   1.7831   6.6060   C.2       1 RES1   0.0000
    19 C6      24.8951   1.2013   4.9903   C.3       1 RES1   0.0000
    20 C7      25.5396  -0.1503   5.2828   C.3       1 RES1   0.0000
    21 C8      25.8106  -0.3901   6.7512   C.ar      1 RES1   0.0000
    22 C9      25.4080  -1.5410   7.3705   C.ar      1 RES1   0.0000
    23 C10     25.7127  -1.7234   8.7199   C.ar      1 RES1   0.0000
    24 C11     26.3917  -0.7458   9.3754   C.ar      1 RES1   0.0000
    25 C12     26.7534   0.3798   8.6775   C.ar      1 RES1   0.0000
    26 C13     21.3976  -1.6362   7.8525   C.3       1 RES1   0.0000
    27 C14     21.9185  -2.1892   6.5838   C.2       1 RES1   0.0000
    28 C15     22.8202  -3.6407   5.1960   C.2       1 RES1   0.0000
    29 C16     22.6642  -2.4440   4.5647   C.2       1 RES1   0.0000
    30 C17     23.0474  -2.0160   3.2455   C.2       1 RES1   0.0000
    31 C18     23.2536  -0.4211   1.5370   C.3       1 RES1   0.0000
    32 C19     22.1217  -0.4911   0.5244   C.3       1 RES1   0.0000
    33 C20     21.5641  -1.8657   0.3227   C.ar      1 RES1   0.0000
    34 C21     20.3141  -2.1881   0.7786   C.ar      1 RES1   0.0000
    35 C22     19.8223  -3.4445   0.5950   C.ar      1 RES1   0.0000
    36 C23     20.5639  -4.3624  -0.0585   C.ar      1 RES1   0.0000
    37 C24     21.8205  -3.9723  -0.5305   C.ar      1 RES1   0.0000
    38 C25     18.8839  -2.3051   4.5042   C.3       1 RES1   0.0000
    39 C26     18.8585  -1.0304   3.7498   C.2       1 RES1   0.0000
    40 C27     18.0952   0.5496   2.4084   C.2       1 RES1   0.0000
    41 C28     19.3550   0.8697   2.8421   C.2       1 RES1   0.0000
    42 C29     20.2062   1.9919   2.5516   C.2       1 RES1   0.0000
    43 C30     22.1926   3.2230   2.8138   C.3       1 RES1   0.0000
    44 C31     22.1561   4.2282   3.8547   C.3       1 RES1   0.0000
    45 C32     20.7342   4.7629   4.1895   C.ar      1 RES1   0.0000
    46 C33     20.4434   4.8856   5.4825   C.ar      1 RES1   0.0000
    47 C34     19.1788   5.3343   5.8496   C.ar      1 RES1   0.0000
    48 C35     18.3261   5.6590   4.8471   C.ar      1 RES1   0.0000
    49 C36     18.7740   5.4880   3.5541   C.ar      1 RES1   0.0000
    50 H1      18.1340   0.4681   6.6423   H         1 RES1   0.0000
    51 H2      18.3811   1.4010   5.4280   H         1 RES1   0.0000
    52 H3      17.7996   1.9793   6.7431   H         1 RES1   0.0000
    53 H4      19.3617   2.4095   8.7179   H         1 RES1   0.0000
    54 H5      21.8195   2.7033   8.9539   H         1 RES1   0.0000
    55 H6      23.9690   2.1307   7.1405   H         1 RES1   0.0000
    56 H7      24.9120   1.3574   4.0523   H         1 RES1   0.0000
    57 H8      25.3886   1.8806   5.4340   H         1 RES1   0.0000
    58 H9      24.9591  -0.8342   4.9681   H         1 RES1   0.0000
    59 H10     26.3650  -0.1962   4.8148   H         1 RES1   0.0000
    60 H11     24.9293  -2.2053   6.8904   H         1 RES1   0.0000
    61 H12     25.4491  -2.5162   9.1717   H         1 RES1   0.0000
    62 H13     26.6128  -0.8387  10.2952   H         1 RES1   0.0000
    63 H14     27.2240   1.0613   9.1435   H         1 RES1   0.0000
    64 H15     20.4569  -1.7739   7.8969   H         1 RES1   0.0000
    65 H16     21.5810  -0.7057   7.8929   H         1 RES1   0.0000
    66 H17     21.8123  -2.0734   8.5868   H         1 RES1   0.0000
    67 H18     22.3174  -4.1238   7.1365   H         1 RES1   0.0000
    68 H19     23.1882  -4.4370   4.8329   H         1 RES1   0.0000
    69 H20     23.4703  -2.6207   2.6464   H         1 RES1   0.0000
    70 H21     23.5852   0.4681   1.5653   H         1 RES1   0.0000
    71 H22     23.9458  -1.0097   1.2607   H         1 RES1   0.0000
    72 H23     21.4197   0.0746   0.8230   H         1 RES1   0.0000
    73 H24     22.4453  -0.1767  -0.3106   H         1 RES1   0.0000
    74 H25     19.7877  -1.5352   1.2244   H         1 RES1   0.0000
    75 H26     18.9606  -3.6740   0.9238   H         1 RES1   0.0000
    76 H27     20.2415  -5.2459  -0.1957   H         1 RES1   0.0000
    77 H28     22.3403  -4.6091  -1.0025   H         1 RES1   0.0000
    78 H29     18.5455  -2.1606   5.3796   H         1 RES1   0.0000
    79 H30     19.7754  -2.6241   4.5586   H         1 RES1   0.0000
    80 H31     18.3460  -2.9534   4.0624   H         1 RES1   0.0000
    81 H32     16.9737  -1.0969   2.9207   H         1 RES1   0.0000
    82 H33     17.5458   1.0476   1.8134   H         1 RES1   0.0000
    83 H34     19.9172   2.6769   1.9606   H         1 RES1   0.0000
    84 H35     23.0909   2.9350   2.7069   H         1 RES1   0.0000
    85 H36     21.8916   3.6166   2.0030   H         1 RES1   0.0000
    86 H37     22.5280   3.8495   4.6413   H         1 RES1   0.0000
    87 H38     22.6851   4.9637   3.5743   H         1 RES1   0.0000
    88 H39     18.1826   5.7118   2.8461   H         1 RES1   0.0000
    89 H40     17.4544   5.9894   5.0266   H         1 RES1   0.0000
    90 H41     18.9182   5.4111   6.7593   H         1 RES1   0.0000
    91 H42     21.0898   4.6711   6.1441   H         1 RES1   0.0000
    92 P1      22.0864   3.0688  -1.5429   P.3       2 RES2  -1.0000
    93 F1      21.1177   3.5719  -2.6827   F         2 RES2   0.0000
    94 F2      23.0384   2.5048  -0.4185   F         2 RES2   0.0000
    95 F3      21.9382   4.4037  -0.7403   F         2 RES2   0.0000
    96 F4      20.8290   2.4325  -0.7907   F         2 RES2   0.0000
    97 F5      22.2390   1.6821  -2.3459   F         2 RES2   0.0000
    98 F6      23.3482   3.6453  -2.3136   F         2 RES2   0.0000
    99 P2      27.3735  -0.2334   1.4235   P.3       3 RES3  -1.0000
   100 F7      26.2763  -0.0218   0.3248   F         3 RES3   0.0000
   101 F8      28.4074  -0.4613   2.6041   F         3 RES3   0.0000
   102 F9      26.5763   0.7309   2.4003   F         3 RES3   0.0000
   103 F10     26.5382  -1.4721   1.9546   F         3 RES3   0.0000
   104 F11     28.1718  -1.1761   0.4639   F         3 RES3   0.0000
   105 F12     28.1670   1.0476   0.9500   F         3 RES3   0.0000
@<TRIPOS>BOND
     1     1     3    1
     2     2    15    1
     3     3    15    2
     4     4     1    1
     5     5    21   ar
     6     6    27    1
     7     7     1    1
     8     8     1    1
     9     9    33   ar
    10    10    39    1
    11    11     1    1
    12    12     1    1
    13    13    45   ar
    14    14    15    1
    15    16     2    1
    16    17     3    1
    17    18     4    2
    18    19     4    1
    19    20    19    1
    20    21    20    1
    21    22    21   ar
    22    23    22   ar
    23    24    23   ar
    24    25     5   ar
    25    26    27    1
    26    27     7    2
    27    28     6    1
    28    29     7    1
    29    30     8    2
    30    31     8    1
    31    32    31    1
    32    33    32    1
    33    34    33   ar
    34    35    34   ar
    35    36    35   ar
    36    37     9   ar
    37    38    39    1
    38    39    11    2
    39    40    10    1
    40    41    11    1
    41    42    12    2
    42    43    12    1
    43    44    43    1
    44    45    44    1
    45    46    45   ar
    46    47    46   ar
    47    48    47   ar
    48    49    13   ar
    49    50    14    1
    50    51    14    1
    51    52    14    1
    52    53     2    1
    53    54    16    1
    54    55    18    1
    55    56    19    1
    56    57    19    1
    57    58    20    1
    58    59    20    1
    59    60    22    1
    60    61    23    1
    61    62    24    1
    62    63    25    1
    63    64    26    1
    64    65    26    1
    65    66    26    1
    66    67     6    1
    67    68    28    1
    68    69    30    1
    69    70    31    1
    70    71    31    1
    71    72    32    1
    72    73    32    1
    73    74    34    1
    74    75    35    1
    75    76    36    1
    76    77    37    1
    77    78    38    1
    78    79    38    1
    79    80    38    1
    80    81    10    1
    81    82    40    1
    82    83    42    1
    83    84    43    1
    84    85    43    1
    85    86    44    1
    86    87    44    1
    87    88    49    1
    88    89    48    1
    89    90    47    1
    90    91    46    1
    91    16    17    2
    92    17    18    1
    93    24    25   ar
    94    28    29    2
    95    29    30    1
    96    36    37   ar
    97    40    41    2
    98    41    42    1
    99    48    49   ar
   100    92    93    1
   101    94    92    1
   102    95    92    1
   103    96    92    1
   104    97    92    1
   105    98    92    1
   106    99   100    1
   107   101    99    1
   108   102    99    1
   109   103    99    1
   110   104    99    1
   111   105    99    1
@<TRIPOS>SUBSTRUCTURE
     1 RES1        1 GROUP             0 ****  ****    0  
     2 RES2       92 GROUP             0 ****  ****    0  
     3 RES3       99 GROUP             0 ****  ****    0  
@<TRIPOS>CRYSIN
   37.4080   11.4740   22.1960   90.0000  114.6650   90.0000    15     1
