@<TRIPOS>MOLECULE
ODIDOX
    77    84     3     0     0
SMALL
USER_CHARGES
****
Generated from the CSD

@<TRIPOS>ATOM
     1 Fe1      2.7048  10.1807  11.4862   Fe        1 RES1   2.0000
     2 N1       2.4568  11.0744   9.5290   N.ar      1 RES1   0.0000
     3 N2       4.0944   9.0922  10.2166   N.ar      1 RES1   0.0000
     4 O1       1.0277  11.9891  11.5092   O.2       1 RES1   0.0000
     5 O2       0.1857  13.6309  10.2212   O.3       1 RES1   0.0000
     6 O3       5.5723   6.8592  12.4649   O.3       1 RES1   0.0000
     7 O4       4.1214   8.5389  12.7742   O.2       1 RES1   0.0000
     8 C1       0.9344  12.5687  10.4617   C.2       1 RES1   0.0000
     9 C2       1.6983  12.1250   9.2533   C.ar      1 RES1   0.0000
    10 C3       1.6549  12.7173   7.9868   C.ar      1 RES1   0.0000
    11 H1       1.1454  13.4813   7.8321   H         1 RES1   0.0000
    12 C4       2.3805  12.1408   6.9852   C.ar      1 RES1   0.0000
    13 H2       2.3612  12.5118   6.1321   H         1 RES1   0.0000
    14 C5       3.1453  11.0154   7.2195   C.ar      1 RES1   0.0000
    15 C6       3.1915  10.5211   8.5305   C.ar      1 RES1   0.0000
    16 C7       4.0390   9.4336   8.9087   C.ar      1 RES1   0.0000
    17 C8       4.8217   8.7244   7.9163   C.ar      1 RES1   0.0000
    18 C9       4.7037   9.2587   6.5793   C.ar      1 RES1   0.0000
    19 H3       5.1844   8.8330   5.9055   H         1 RES1   0.0000
    20 C10      3.9599  10.3167   6.2301   C.ar      1 RES1   0.0000
    21 H4       3.9617  10.6086   5.3465   H         1 RES1   0.0000
    22 C11      5.5731   7.7012   8.3788   C.ar      1 RES1   0.0000
    23 H5       6.0576   7.1985   7.7662   H         1 RES1   0.0000
    24 C12      5.6534   7.3640   9.7051   C.ar      1 RES1   0.0000
    25 H6       6.1976   6.6716  10.0038   H         1 RES1   0.0000
    26 C13      4.8828   8.1090  10.5735   C.ar      1 RES1   0.0000
    27 C14      4.8282   7.8761  12.0590   C.2       1 RES1   0.0000
    28 C15     -0.6382  14.1093  11.3852   C.3       1 RES1   0.0000
    29 H7      -1.3139  13.4581  11.5873   H         1 RES1   0.0000
    30 H8      -1.0552  14.9439  11.1600   H         1 RES1   0.0000
    31 H9      -0.0706  14.2305  12.1494   H         1 RES1   0.0000
    32 C16      5.6089   6.6189  13.8968   C.3       1 RES1   0.0000
    33 H10      6.2064   7.2449  14.3119   H         1 RES1   0.0000
    34 H11      5.9145   5.7242  14.0638   H         1 RES1   0.0000
    35 H12      4.7283   6.7285  14.2629   H         1 RES1   0.0000
    36 N1A      2.9528  11.0744  13.4435   N.ar      1 RES1   0.0000
    37 N2A      1.3152   9.0922  12.7559   N.ar      1 RES1   0.0000
    38 O1A      4.3819  11.9891  11.4633   O.2       1 RES1   0.0000
    39 O2A      5.2239  13.6309  12.7513   O.3       1 RES1   0.0000
    40 O3A     -0.1627   6.8592  10.5076   O.3       1 RES1   0.0000
    41 O4A      1.2883   8.5389  10.1983   O.2       1 RES1   0.0000
    42 C1A      4.4752  12.5687  12.5108   C.2       1 RES1   0.0000
    43 C2A      3.7114  12.1250  13.7192   C.ar      1 RES1   0.0000
    44 C3A      3.7548  12.7173  14.9857   C.ar      1 RES1   0.0000
    45 H1A      4.2643  13.4813  15.1404   H         1 RES1   0.0000
    46 C4A      3.0292  12.1408  15.9873   C.ar      1 RES1   0.0000
    47 H2A      3.0485  12.5118  16.8404   H         1 RES1   0.0000
    48 C5A      2.2644  11.0154  15.7530   C.ar      1 RES1   0.0000
    49 C6A      2.2182  10.5211  14.4420   C.ar      1 RES1   0.0000
    50 C7A      1.3706   9.4336  14.0638   C.ar      1 RES1   0.0000
    51 C8A      0.5880   8.7244  15.0562   C.ar      1 RES1   0.0000
    52 C9A      0.7060   9.2587  16.3932   C.ar      1 RES1   0.0000
    53 H3A      0.2252   8.8330  17.0670   H         1 RES1   0.0000
    54 C10A     1.4497  10.3167  16.7423   C.ar      1 RES1   0.0000
    55 H4A      1.4480  10.6086  17.6260   H         1 RES1   0.0000
    56 C11A    -0.1634   7.7012  14.5937   C.ar      1 RES1   0.0000
    57 H5A     -0.6479   7.1985  15.2063   H         1 RES1   0.0000
    58 C12A    -0.2438   7.3640  13.2674   C.ar      1 RES1   0.0000
    59 H6A     -0.7879   6.6716  12.9687   H         1 RES1   0.0000
    60 C13A     0.5269   8.1090  12.3990   C.ar      1 RES1   0.0000
    61 C14A     0.5815   7.8761  10.9135   C.2       1 RES1   0.0000
    62 C15A     6.0478  14.1093  11.5873   C.3       1 RES1   0.0000
    63 H7A      6.7236  13.4581  11.3852   H         1 RES1   0.0000
    64 H8A      6.4648  14.9439  11.8125   H         1 RES1   0.0000
    65 H9A      5.4802  14.2305  10.8231   H         1 RES1   0.0000
    66 C16A    -0.1992   6.6189   9.0757   C.3       1 RES1   0.0000
    67 H10A    -0.7968   7.2449   8.6606   H         1 RES1   0.0000
    68 H11A    -0.5048   5.7242   8.9087   H         1 RES1   0.0000
    69 H12A     0.6813   6.7285   8.7096   H         1 RES1   0.0000
    70 Cl1      2.1116   5.4861   5.6482   Cl        2 RES2   0.0000
    71 O5       0.9858   5.1088   6.3542   O.2       2 RES2   0.0000
    72 O6       1.8087   6.4935   4.7645   O.2       2 RES2   0.0000
    73 O7       3.1872   5.6990   6.4093   O.2       2 RES2   0.0000
    74 O8       2.4679   4.3722   4.8549   O.3       2 RES2  -1.0000
    75 O9       3.2689   4.9065   9.4815   O.3       3 RES3   0.0000
    76 H13      3.1212   5.0013   8.6499   H         3 RES3   0.0000
    77 H14      3.8576   5.4745   9.7097   H         3 RES3   0.0000
@<TRIPOS>BOND
     1     1     2    1
     2     2     9   ar
     3     3     1    1
     4     4     1    1
     5     5     8    1
     6     6    27    1
     7     7    27    2
     8     8     4    2
     9     9     8    1
    10    10     9   ar
    11    11    10    1
    12    12    10   ar
    13    13    12    1
    14    14    12   ar
    15    15     2   ar
    16    16     3   ar
    17    17    16   ar
    18    18    17   ar
    19    19    18    1
    20    20    14   ar
    21    21    20    1
    22    22    17   ar
    23    23    22    1
    24    24    22   ar
    25    25    24    1
    26    26     3   ar
    27    27    26    1
    28    28     5    1
    29    29    28    1
    30    30    28    1
    31    31    28    1
    32    32     6    1
    33    33    32    1
    34    34    32    1
    35    35    32    1
    36    36     1    1
    37    37     1    1
    38    38     1    1
    39    39    42    1
    40    40    61    1
    41    41    61    2
    42    42    38    2
    43    43    36   ar
    44    44    43   ar
    45    45    44    1
    46    46    44   ar
    47    47    46    1
    48    48    46   ar
    49    49    36   ar
    50    50    37   ar
    51    51    50   ar
    52    52    51   ar
    53    53    52    1
    54    54    48   ar
    55    55    54    1
    56    56    51   ar
    57    57    56    1
    58    58    56   ar
    59    59    58    1
    60    60    37   ar
    61    61    60    1
    62    62    39    1
    63    63    62    1
    64    64    62    1
    65    65    62    1
    66    66    40    1
    67    67    66    1
    68    68    66    1
    69    69    66    1
    70    14    15   ar
    71    15    16   ar
    72    18    20   ar
    73    24    26   ar
    74    42    43    1
    75    48    49   ar
    76    49    50   ar
    77    52    54   ar
    78    58    60   ar
    79    70    71    2
    80    72    70    2
    81    73    70    2
    82    74    70    1
    83    75    76    1
    84    77    75    1
@<TRIPOS>SUBSTRUCTURE
     1 RES1        1 GROUP             0 ****  ****    0  
     2 RES2       70 GROUP             0 ****  ****    0  
     3 RES3       75 GROUP             0 ****  ****    0  
@<TRIPOS>CRYSIN
   22.8910   10.5380   19.2450   90.0000  127.2700   90.0000    15     1
