@<TRIPOS>MOLECULE
ODOWEL
    97   101     2     0     0
SMALL
USER_CHARGES
****
Generated from the CSD

@<TRIPOS>ATOM
     1 Fe1      0.1655   1.7778   7.9023   Fe        1 RES1   1.0000
     2 N1      -1.6931   2.1096   7.2062   N.3       1 RES1   0.0000
     3 N2      -0.3111  -0.1609   7.7537   N.3       1 RES1   0.0000
     4 N3       2.0128   1.4774   8.6508   N.3       1 RES1   0.0000
     5 N4       0.5992   3.7328   8.0800   N.3       1 RES1   0.0000
     6 C1       0.9196   1.6974   6.0756   C.1       1 RES1   0.0000
     7 C2       1.4039   1.4971   4.9938   C.1       1 RES1   0.0000
     8 C3       1.9280   1.1706   3.6852   C.2       1 RES1   0.0000
     9 C4       1.1353   0.8070   2.6552   C.2       1 RES1   0.0000
    10 C5       3.3718   1.1428   3.5200   C.1       1 RES1   0.0000
    11 C6       4.5366   0.9992   3.3216   C.1       1 RES1   0.0000
    12 C7      -0.3474   0.7387   2.7813   C.3       1 RES1   0.0000
    13 H1      -0.6166   1.0791   3.6597   H         1 RES1   0.0000
    14 H2      -0.6405  -0.1922   2.6879   H         1 RES1   0.0000
    15 H3      -0.7609   1.2829   2.0802   H         1 RES1   0.0000
    16 C8       1.7015   0.4168   1.3086   C.3       1 RES1   0.0000
    17 H4       2.6763   0.5176   1.3225   H         1 RES1   0.0000
    18 H5       1.3230   0.9957   0.6158   H         1 RES1   0.0000
    19 H6       1.4722  -0.5164   1.1164   H         1 RES1   0.0000
    20 C9       5.8966   0.7260   2.9390   C.ar      1 RES1   0.0000
    21 C10      6.1191  -0.1899   1.9088   C.ar      1 RES1   0.0000
    22 H7       5.3871  -0.6333   1.4965   H         1 RES1   0.0000
    23 C11      7.4104  -0.4446   1.4912   C.ar      1 RES1   0.0000
    24 H8       7.5592  -1.0768   0.7978   H         1 RES1   0.0000
    25 C12      8.4696   0.1876   2.0507   C.ar      1 RES1   0.0000
    26 H9       9.3521   0.0104   1.7455   H         1 RES1   0.0000
    27 C13      8.2489   1.0976   3.0737   C.ar      1 RES1   0.0000
    28 H10      8.9886   1.5492   3.4643   H         1 RES1   0.0000
    29 C14      6.9816   1.3581   3.5328   C.ar      1 RES1   0.0000
    30 H11      6.8470   1.9660   4.2514   H         1 RES1   0.0000
    31 C15     -0.5127   1.8132   9.7474   C.1       1 RES1   0.0000
    32 C16     -0.7491   1.8606  10.9197   C.1       1 RES1   0.0000
    33 C17     -0.7530   1.8803  12.3914   C.2       1 RES1   0.0000
    34 C18     -1.8250   1.8537  13.1049   C.2       1 RES1   0.0000
    35 C19      0.5580   1.9278  13.0208   C.1       1 RES1   0.0000
    36 C20      1.6670   1.8826  13.4529   C.1       1 RES1   0.0000
    37 C21     -3.2042   1.7715  12.4168   C.3       1 RES1   0.0000
    38 H12     -3.2037   2.3365  11.6163   H         1 RES1   0.0000
    39 H13     -3.8969   2.0841  13.0352   H         1 RES1   0.0000
    40 H14     -3.3873   0.8429  12.1625   H         1 RES1   0.0000
    41 C22     -1.8906   1.7784  14.5813   C.3       1 RES1   0.0000
    42 H15     -2.2971   0.9263  14.8477   H         1 RES1   0.0000
    43 H16     -2.4329   2.5194  14.9227   H         1 RES1   0.0000
    44 H17     -0.9848   1.8375  14.9521   H         1 RES1   0.0000
    45 C23      3.0237   1.7970  13.9616   C.ar      1 RES1   0.0000
    46 C24      3.2641   1.3975  15.2680   C.ar      1 RES1   0.0000
    47 H18      2.5278   1.1775  15.8276   H         1 RES1   0.0000
    48 C25      4.5563   1.3095  15.7847   C.ar      1 RES1   0.0000
    49 H19      4.7121   1.0467  16.6843   H         1 RES1   0.0000
    50 C26      5.6339   1.6291  14.9093   C.ar      1 RES1   0.0000
    51 H20      6.5288   1.6499  15.2279   H         1 RES1   0.0000
    52 C27      5.3478   1.9046  13.6055   C.ar      1 RES1   0.0000
    53 H21      6.0702   2.0320  13.0004   H         1 RES1   0.0000
    54 C28      4.1107   2.0030  13.1423   C.ar      1 RES1   0.0000
    55 H22      3.9709   2.2207  12.2267   H         1 RES1   0.0000
    56 C29     -2.2283   0.8197   6.7072   C.3       1 RES1   0.0000
    57 H23     -1.8914   0.6391   5.7934   H         1 RES1   0.0000
    58 H24     -3.2179   0.8498   6.6769   H         1 RES1   0.0000
    59 C30     -1.7711  -0.2547   7.6522   C.3       1 RES1   0.0000
    60 H25     -2.1849  -0.1262   8.5429   H         1 RES1   0.0000
    61 H26     -2.0337  -1.1463   7.3087   H         1 RES1   0.0000
    62 C31      0.2449  -1.0941   8.7606   C.3       1 RES1   0.0000
    63 H27      0.0232  -2.0227   8.4974   H         1 RES1   0.0000
    64 H28     -0.1813  -0.9158   9.6352   H         1 RES1   0.0000
    65 C32      1.7472  -0.9656   8.9062   C.3       1 RES1   0.0000
    66 H29      2.0763  -1.7240   9.4505   H         1 RES1   0.0000
    67 H30      2.1579  -1.0444   8.0075   H         1 RES1   0.0000
    68 C33      2.2246   0.3230   9.5396   C.3       1 RES1   0.0000
    69 H31      1.7353   0.4712  10.3875   H         1 RES1   0.0000
    70 H32      3.1874   0.2466   9.7530   H         1 RES1   0.0000
    71 C34      2.4446   2.7498   9.2524   C.3       1 RES1   0.0000
    72 H33      3.4236   2.7510   9.3943   H         1 RES1   0.0000
    73 H34      1.9989   2.8876  10.1251   H         1 RES1   0.0000
    74 C35      2.0538   3.8347   8.2897   C.3       1 RES1   0.0000
    75 H35      2.2849   4.7228   8.6607   H         1 RES1   0.0000
    76 H36      2.5329   3.7189   7.4319   H         1 RES1   0.0000
    77 C36      0.0952   4.6417   7.0343   C.3       1 RES1   0.0000
    78 H37      0.5352   4.4241   6.1736   H         1 RES1   0.0000
    79 H38      0.3349   5.5726   7.2713   H         1 RES1   0.0000
    80 C37     -1.4137   4.5445   6.8614   C.3       1 RES1   0.0000
    81 H39     -1.7135   5.2809   6.2700   H         1 RES1   0.0000
    82 H40     -1.8428   4.6742   7.7424   H         1 RES1   0.0000
    83 C38     -1.8908   3.2234   6.2748   C.3       1 RES1   0.0000
    84 H41     -2.8528   3.2940   6.0505   H         1 RES1   0.0000
    85 H42     -1.3961   3.0405   5.4374   H         1 RES1   0.0000
    86 H43     -0.0894  -0.3937   7.1401   H         1 RES1   0.0000
    87 H44      2.5155   1.2620   7.9914   H         1 RES1   0.0000
    88 H45      0.1961   4.0177   8.7892   H         1 RES1   0.0000
    89 H46     -2.1517   2.2462   7.7826   H         1 RES1   0.0000
    90 S1      -6.3368   2.4722   7.8554   S.o2      2 RES2   0.0000
    91 F1      -4.4838   1.4068   9.3118   F         2 RES2   0.0000
    92 F2      -5.8110   2.7255  10.3923   F         2 RES2   0.0000
    93 F3      -4.3149   3.5291   9.0856   F         2 RES2   0.0000
    94 O1      -7.1724   1.3570   8.1927   O.2       2 RES2   0.0000
    95 O2      -6.9827   3.7525   7.8991   O.2       2 RES2   0.0000
    96 O3      -5.4530   2.2659   6.7396   O.3       2 RES2  -1.0000
    97 C39     -5.1772   2.5333   9.2310   C.3       2 RES2   0.0000
@<TRIPOS>BOND
     1     1     2    1
     2     2    56    1
     3     3     1    1
     4     4     1    1
     5     5     1    1
     6     6     1    1
     7     7     6    3
     8     8     7    1
     9     9     8    2
    10    10     8    1
    11    11    10    3
    12    12     9    1
    13    13    12    1
    14    14    12    1
    15    15    12    1
    16    16     9    1
    17    17    16    1
    18    18    16    1
    19    19    16    1
    20    20    11    1
    21    21    20   ar
    22    22    21    1
    23    23    21   ar
    24    24    23    1
    25    25    23   ar
    26    26    25    1
    27    27    25   ar
    28    28    27    1
    29    29    20   ar
    30    30    29    1
    31    31     1    1
    32    32    31    3
    33    33    32    1
    34    34    33    2
    35    35    33    1
    36    36    35    3
    37    37    34    1
    38    38    37    1
    39    39    37    1
    40    40    37    1
    41    41    34    1
    42    42    41    1
    43    43    41    1
    44    44    41    1
    45    45    36    1
    46    46    45   ar
    47    47    46    1
    48    48    46   ar
    49    49    48    1
    50    50    48   ar
    51    51    50    1
    52    52    50   ar
    53    53    52    1
    54    54    45   ar
    55    55    54    1
    56    56    57    1
    57    58    56    1
    58    59     3    1
    59    60    59    1
    60    61    59    1
    61    62     3    1
    62    63    62    1
    63    64    62    1
    64    65    62    1
    65    66    65    1
    66    67    65    1
    67    68     4    1
    68    69    68    1
    69    70    68    1
    70    71     4    1
    71    72    71    1
    72    73    71    1
    73    74     5    1
    74    75    74    1
    75    76    74    1
    76    77     5    1
    77    78    77    1
    78    79    77    1
    79    80    77    1
    80    81    80    1
    81    82    80    1
    82    83     2    1
    83    84    83    1
    84    85    83    1
    85    86     3    1
    86    87     4    1
    87    88     5    1
    88    89     2    1
    89    27    29   ar
    90    52    54   ar
    91    56    59    1
    92    65    68    1
    93    71    74    1
    94    80    83    1
    95    90    94    2
    96    91    97    1
    97    92    97    1
    98    93    97    1
    99    95    90    2
   100    96    90    1
   101    97    90    1
@<TRIPOS>SUBSTRUCTURE
     1 RES1        1 GROUP             0 ****  ****    0  
     2 RES2       90 GROUP             0 ****  ****    0  
@<TRIPOS>CRYSIN
   12.2898   11.5783   26.8427   90.0000   94.1620   90.0000   231     1
