@<TRIPOS>MOLECULE
OFATIZ02
    95    98     5     0     0
SMALL
USER_CHARGES
****
Generated from the CSD

@<TRIPOS>ATOM
     1 C1       5.2205   4.1155  44.0091   C.3       1 RES1   0.0000
     2 H1       5.2823   4.9962  44.4102   H         1 RES1   0.0000
     3 H2       4.5753   3.6175  44.5332   H         1 RES1   0.0000
     4 C2       6.4204   3.5165  44.2028   C.3       1 RES1   0.0000
     5 H3       6.4918   3.3547  45.1556   H         1 RES1   0.0000
     6 H4       7.0915   4.1835  43.9876   H         1 RES1   0.0000
     7 C3       5.2853   3.1097  41.4273   C.2       1 RES1   0.0000
     8 C4       6.2134   2.2245  41.8153   C.2       1 RES1   0.0000
     9 C5       5.7914   1.7229  39.2895   C.2       1 RES1   0.0000
    10 C6       5.8048   1.2124  38.0155   C.2       1 RES1   0.0000
    11 C7       5.4172   0.8288  35.4686   C.2       1 RES1   0.0000
    12 C8       6.3682  -0.0536  35.8421   C.2       1 RES1   0.0000
    13 C9       5.8291   0.1538  32.8341   C.3       1 RES1   0.0000
    14 H5       5.2763  -0.2807  32.1656   H         1 RES1   0.0000
    15 H6       6.3615   0.8136  32.3577   H         1 RES1   0.0000
    16 C10      6.6741  -0.7582  33.2568   C.3       1 RES1   0.0000
    17 H7       7.4948  -0.5597  32.7803   H         1 RES1   0.0000
    18 H8       6.3428  -1.5835  32.8687   H         1 RES1   0.0000
    19 S1       4.4944   4.3402  42.3832   S.3       1 RES1   0.0000
    20 S2       6.9425   2.0225  43.4090   S.3       1 RES1   0.0000
    21 S3       4.7468   3.0508  39.7514   S.3       1 RES1   0.0000
    22 S4       6.8145   1.1259  40.5785   S.3       1 RES1   0.0000
    23 S5       4.7791   1.8477  36.7450   S.3       1 RES1   1.0000
    24 S6       6.8737  -0.0631  37.5380   S.3       1 RES1   0.0000
    25 S7       4.7227   1.0684  33.8692   S.3       1 RES1   0.0000
    26 S8       7.2013  -1.2160  34.8297   S.3       1 RES1   0.0000
    27 C11      8.9019   7.1734  42.8542   C.3       2 RES2   0.0000
    28 H9       8.3673   7.5015  43.5919   H         2 RES2   0.0000
    29 H10      9.4738   6.4760  43.2115   H         2 RES2   0.0000
    30 C12      9.7330   8.2195  42.4546   C.3       2 RES2   0.0000
    31 H11     10.3391   8.3858  43.1961   H         2 RES2   0.0000
    32 H12      9.1697   9.0054  42.3778   H         2 RES2   0.0000
    33 C13      8.6979   6.3839  40.2166   C.2       2 RES2   0.0000
    34 C14      9.8145   7.0848  39.9688   C.2       2 RES2   0.0000
    35 C15      9.3333   5.7589  37.7781   C.2       2 RES2   0.0000
    36 C16      9.3283   5.3253  36.4779   C.2       2 RES2   0.0000
    37 C17      8.6226   4.4669  34.1247   C.2       2 RES2   0.0000
    38 C18      9.7451   5.1831  33.9138   C.2       2 RES2   0.0000
    39 C19      8.5823   3.8768  31.4253   C.3       2 RES2   0.0000
    40 H13      9.2586   3.1821  31.4011   H         2 RES2   0.0000
    41 H14      7.9889   3.7221  30.6749   H         2 RES2   0.0000
    42 C20      9.2413   5.1223  31.1986   C.3       2 RES2   0.0000
    43 H15      8.5747   5.8260  31.1936   H         2 RES2   0.0000
    44 H16      9.6489   5.0982  30.3176   H         2 RES2   0.0000
    45 S9       7.7671   6.3821  41.6912   S.3       2 RES2   0.0000
    46 S10     10.6949   8.1649  41.0361   S.3       2 RES2   0.0000
    47 S11      8.1300   5.2996  38.9514   S.3       2 RES2   0.0000
    48 S12     10.5655   6.8349  38.4059   S.3       2 RES2   0.0000
    49 S13      8.1137   4.2668  35.8033   S.3       2 RES2   0.0000
    50 S14     10.5435   5.8321  35.3388   S.3       2 RES2   0.0000
    51 S15      7.6313   3.6426  32.9133   S.3       2 RES2   0.0000
    52 S16     10.4964   5.5443  32.3892   S.3       2 RES2   0.0000
    53 C21      0.8888  -1.2455  30.0602   C.3       3 RES3   0.0000
    54 H17      0.0689  -1.7453  30.0640   H         3 RES3   0.0000
    55 H18      0.9978  -0.8002  30.9054   H         3 RES3   0.0000
    56 H19      1.6267  -1.8418  29.9142   H         3 RES3   0.0000
    57 C22      0.8461  -0.2217  28.9533   C.3       3 RES3   0.0000
    58 H20      0.0811   0.3567  29.0997   H         3 RES3   0.0000
    59 H21      0.7020  -0.6849  28.1123   H         3 RES3   0.0000
    60 C23      1.8631   1.5003  27.5798   C.3       3 RES3   0.0000
    61 H22      1.0173   1.9643  27.6743   H         3 RES3   0.0000
    62 H23      1.7882   0.9138  26.8098   H         3 RES3   0.0000
    63 C24      2.9358   2.5258  27.2901   C.3       3 RES3   0.0000
    64 H24      2.7073   3.0113  26.4948   H         3 RES3   0.0000
    65 H25      3.7780   2.0815  27.1633   H         3 RES3   0.0000
    66 H26      3.0048   3.1347  28.0277   H         3 RES3   0.0000
    67 N1       2.0793   0.6438  28.8154   N.4       3 RES3   1.0000
    68 C21A     3.2699  -1.2455  27.5705   C.3       3 RES3   0.0000
    69 H17A     4.0898  -1.7453  27.5667   H         3 RES3   0.0000
    70 H18A     3.1608  -0.8002  26.7253   H         3 RES3   0.0000
    71 H19A     2.5319  -1.8418  27.7165   H         3 RES3   0.0000
    72 C22A     3.3125  -0.2217  28.6774   C.3       3 RES3   0.0000
    73 H20A     4.0775   0.3567  28.5310   H         3 RES3   0.0000
    74 H21A     3.4566  -0.6849  29.5184   H         3 RES3   0.0000
    75 C23A     2.2955   1.5003  30.0510   C.3       3 RES3   0.0000
    76 H22A     3.1414   1.9643  29.9564   H         3 RES3   0.0000
    77 H23A     2.3704   0.9138  30.8209   H         3 RES3   0.0000
    78 C24A     1.2228   2.5258  30.3406   C.3       3 RES3   0.0000
    79 H24A     1.4514   3.0113  31.1360   H         3 RES3   0.0000
    80 H25A     0.3806   2.0815  30.4674   H         3 RES3   0.0000
    81 H26A     1.1538   3.1347  29.6030   H         3 RES3   0.0000
    82 C25      6.5659  -1.1498  29.6026   C.1       4 RES4   0.0000
    83 C26      8.8124   0.2781  30.4432   C.1       4 RES4   0.0000
    84 C27      8.9156   1.5960  28.0758   C.1       4 RES4   0.0000
    85 N2       5.9097  -1.9536  30.0755   N.1       4 RES4   0.0000
    86 N3       9.4729   0.3371  31.3880   N.1       4 RES4   0.0000
    87 N4       9.6395   2.3747  27.6424   N.1       4 RES4   0.0000
    88 Fe1      7.7098   0.2360  28.8154   Fe        4 RES4  -3.0000
    89 C25A     8.8538  -1.1498  28.0281   C.1       4 RES4   0.0000
    90 C26A     6.6073   0.2781  27.1875   C.1       4 RES4   0.0000
    91 C27A     6.5040   1.5960  29.5549   C.1       4 RES4   0.0000
    92 N2A      9.5100  -1.9536  27.5552   N.1       4 RES4   0.0000
    93 N3A      5.9467   0.3371  26.2427   N.1       4 RES4   0.0000
    94 N4A      5.7801   2.3747  29.9883   N.1       4 RES4   0.0000
    95 O1      -0.0394   4.7638  28.0435   O.3       5 RES5   0.0000
@<TRIPOS>BOND
     1     1     2    1
     2     3     1    1
     3     4     1    1
     4     5     4    1
     5     6     4    1
     6     7     8    2
     7     8    20    1
     8     9    10    2
     9    10    23    1
    10    11    12    2
    11    12    24    1
    12    13    14    1
    13    15    13    1
    14    16    13    1
    15    17    16    1
    16    18    16    1
    17    19     1    1
    18    20     4    1
    19    21     7    1
    20    22     8    1
    21    23    11    1
    22    24    10    1
    23    25    11    1
    24    26    12    1
    25     7    19    1
    26     9    21    1
    27     9    22    1
    28    13    25    1
    29    16    26    1
    30    27    28    1
    31    29    27    1
    32    30    27    1
    33    31    30    1
    34    32    30    1
    35    33    34    2
    36    34    46    1
    37    35    36    2
    38    36    49    1
    39    37    38    2
    40    38    50    1
    41    39    40    1
    42    41    39    1
    43    42    39    1
    44    43    42    1
    45    44    42    1
    46    45    27    1
    47    46    30    1
    48    47    33    1
    49    48    34    1
    50    49    37    1
    51    50    36    1
    52    51    37    1
    53    52    38    1
    54    33    45    1
    55    35    47    1
    56    35    48    1
    57    39    51    1
    58    42    52    1
    59    53    54    1
    60    55    53    1
    61    56    53    1
    62    57    53    1
    63    58    57    1
    64    59    57    1
    65    60    61    1
    66    62    60    1
    67    63    60    1
    68    64    63    1
    69    65    63    1
    70    66    63    1
    71    67    57    1
    72    68    69    1
    73    70    68    1
    74    71    68    1
    75    72    67    1
    76    73    72    1
    77    74    72    1
    78    75    67    1
    79    76    75    1
    80    77    75    1
    81    78    75    1
    82    79    78    1
    83    80    78    1
    84    81    78    1
    85    60    67    1
    86    68    72    1
    87    82    85    3
    88    83    86    3
    89    84    87    3
    90    88    82    1
    91    89    88    1
    92    90    88    1
    93    91    88    1
    94    92    89    3
    95    93    90    3
    96    94    91    3
    97    83    88    1
    98    84    88    1
@<TRIPOS>SUBSTRUCTURE
     1 RES1        1 GROUP             0 ****  ****    0  
     2 RES2       27 GROUP             0 ****  ****    0  
     3 RES3       53 GROUP             0 ****  ****    0  
     4 RES4       82 GROUP             0 ****  ****    0  
     5 RES5       95 GROUP             0 ****  ****    0  
