@<TRIPOS>MOLECULE
OFATIZ01
    95    98     5     0     0
SMALL
USER_CHARGES
****
Generated from the CSD

@<TRIPOS>ATOM
     1 C1       4.8086   4.0688  43.6155   C.3       1 RES1   0.0000
     2 H1       4.7196   4.8962  44.1119   H         1 RES1   0.0000
     3 H2       4.2337   3.4133  44.0434   H         1 RES1   0.0000
     4 C2       6.1700   3.6170  43.7426   C.3       1 RES1   0.0000
     5 H3       6.3873   3.5869  44.6862   H         1 RES1   0.0000
     6 H4       6.7454   4.2850  43.3360   H         1 RES1   0.0000
     7 C3       4.9711   3.0979  41.0296   C.2       1 RES1   0.0000
     8 C4       5.8932   2.2023  41.4191   C.2       1 RES1   0.0000
     9 C5       5.4942   1.7044  38.9164   C.2       1 RES1   0.0000
    10 C6       5.5198   1.1871  37.6457   C.2       1 RES1   0.0000
    11 C7       5.1580   0.7991  35.1020   C.2       1 RES1   0.0000
    12 C8       6.0951  -0.0930  35.4759   C.2       1 RES1   0.0000
    13 C9       5.5136   0.0788  32.4784   C.3       1 RES1   0.0000
    14 H5       4.9242  -0.4695  31.9372   H         1 RES1   0.0000
    15 H6       5.9396   0.7034  31.8687   H         1 RES1   0.0000
    16 C10      6.4692  -0.7238  32.9052   C.3       1 RES1   0.0000
    17 H7       7.2820  -0.3366  32.5457   H         1 RES1   0.0000
    18 H8       6.3284  -1.5432  32.4050   H         1 RES1   0.0000
    19 S1       4.1883   4.3514  41.9561   S.3       1 RES1   0.0000
    20 S2       6.5906   2.0008  43.0184   S.3       1 RES1   0.0000
    21 S3       4.4561   3.0375  39.3508   S.3       1 RES1   0.0000
    22 S4       6.5015   1.0950  40.1970   S.3       1 RES1   0.0000
    23 S5       4.5090   1.8285  36.3746   S.3       1 RES1   1.0000
    24 S6       6.5924  -0.0986  37.1669   S.3       1 RES1   0.0000
    25 S7       4.4616   1.0499  33.5171   S.3       1 RES1   0.0000
    26 S8       6.9224  -1.2601  34.4710   S.3       1 RES1   0.0000
    27 C11      8.6448   7.1056  42.4772   C.3       2 RES2   0.0000
    28 H9       8.1575   7.3341  43.2827   H         2 RES2   0.0000
    29 H10      9.3068   6.4394  42.7198   H         2 RES2   0.0000
    30 C12      9.3677   8.3236  42.0174   C.3       2 RES2   0.0000
    31 H11      9.8855   8.6691  42.7617   H         2 RES2   0.0000
    32 H12      8.7099   8.9969  41.7842   H         2 RES2   0.0000
    33 C13      8.4239   6.3331  39.8464   C.2       2 RES2   0.0000
    34 C14      9.5462   7.0285  39.5980   C.2       2 RES2   0.0000
    35 C15      9.0602   5.6979  37.4236   C.2       2 RES2   0.0000
    36 C16      9.0632   5.2647  36.1236   C.2       2 RES2   0.0000
    37 C17      8.3680   4.3859  33.7929   C.2       2 RES2   0.0000
    38 C18      9.4880   5.1106  33.5795   C.2       2 RES2   0.0000
    39 C19      8.3824   3.7375  31.1054   C.3       2 RES2   0.0000
    40 H13      9.0992   3.0846  31.1461   H         2 RES2   0.0000
    41 H14      7.8316   3.5134  30.3398   H         2 RES2   0.0000
    42 C20      8.9825   5.0636  30.8684   C.3       2 RES2   0.0000
    43 H15      8.2836   5.7351  30.8989   H         2 RES2   0.0000
    44 H16      9.3671   5.0796  29.9784   H         2 RES2   0.0000
    45 S9       7.4792   6.3389  41.3156   S.3       2 RES2   0.0000
    46 S10     10.4474   8.1049  40.6447   S.3       2 RES2   0.0000
    47 S11      7.8422   5.2529  38.5882   S.3       2 RES2   0.0000
    48 S12     10.2958   6.7785  38.0299   S.3       2 RES2   0.0000
    49 S13      7.8490   4.1978  35.4603   S.3       2 RES2   0.0000
    50 S14     10.2887   5.7634  34.9928   S.3       2 RES2   0.0000
    51 S15      7.3786   3.5645  32.5876   S.3       2 RES2   0.0000
    52 S16     10.2543   5.4924  32.0581   S.3       2 RES2   0.0000
    53 C21      0.6493  -1.2969  29.7240   C.3       3 RES3   0.0000
    54 H17     -0.1726  -1.7921  29.7084   H         3 RES3   0.0000
    55 H18      0.7441  -0.8593  30.5718   H         3 RES3   0.0000
    56 H19      1.3875  -1.8966  29.5905   H         3 RES3   0.0000
    57 C22      0.6345  -0.2640  28.6256   C.3       3 RES3   0.0000
    58 H20     -0.1318   0.3145  28.7613   H         3 RES3   0.0000
    59 H21      0.5105  -0.7202  27.7801   H         3 RES3   0.0000
    60 C23      1.7060   1.4661  27.2799   C.3       3 RES3   0.0000
    61 H22      0.8546   1.9259  27.3427   H         3 RES3   0.0000
    62 H23      1.6660   0.8823  26.5059   H         3 RES3   0.0000
    63 C24      2.7864   2.4982  27.0403   C.3       3 RES3   0.0000
    64 H24      2.5904   2.9854  26.2359   H         3 RES3   0.0000
    65 H25      3.6342   2.0579  26.9509   H         3 RES3   0.0000
    66 H26      2.8195   3.1050  27.7839   H         3 RES3   0.0000
    67 N1       1.8787   0.6033  28.5255   N.4       3 RES3   1.0000
    68 C21A     3.1081  -1.2969  27.3271   C.3       3 RES3   0.0000
    69 H17A     3.9301  -1.7921  27.3427   H         3 RES3   0.0000
    70 H18A     3.0133  -0.8593  26.4793   H         3 RES3   0.0000
    71 H19A     2.3700  -1.8966  27.4606   H         3 RES3   0.0000
    72 C22A     3.1229  -0.2640  28.4255   C.3       3 RES3   0.0000
    73 H20A     3.8892   0.3145  28.2897   H         3 RES3   0.0000
    74 H21A     3.2470  -0.7202  29.2710   H         3 RES3   0.0000
    75 C23A     2.0515   1.4661  29.7712   C.3       3 RES3   0.0000
    76 H22A     2.9029   1.9259  29.7084   H         3 RES3   0.0000
    77 H23A     2.0914   0.8823  30.5451   H         3 RES3   0.0000
    78 C24A     0.9710   2.4982  30.0108   C.3       3 RES3   0.0000
    79 H24A     1.1671   2.9854  30.8152   H         3 RES3   0.0000
    80 H25A     0.1232   2.0579  30.1001   H         3 RES3   0.0000
    81 H26A     0.9379   3.1050  29.2672   H         3 RES3   0.0000
    82 C25      6.3582  -1.1764  29.3098   C.1       4 RES4   0.0000
    83 C26      8.5899   0.2436  30.1408   C.1       4 RES4   0.0000
    84 C27      8.6933   1.5565  27.7835   C.1       4 RES4   0.0000
    85 N2       5.6941  -1.9976  29.7902   N.1       4 RES4   0.0000
    86 N3       9.2630   0.3092  31.0750   N.1       4 RES4   0.0000
    87 N4       9.4356   2.3201  27.3495   N.1       4 RES4   0.0000
    88 Fe1      7.4889   0.2012  28.5255   Fe        4 RES4  -3.0000
    89 C25A     8.6195  -1.1764  27.7413   C.1       4 RES4   0.0000
    90 C26A     6.3879   0.2436  26.9102   C.1       4 RES4   0.0000
    91 C27A     6.2844   1.5565  29.2676   C.1       4 RES4   0.0000
    92 N2A      9.2837  -1.9976  27.2609   N.1       4 RES4   0.0000
    93 N3A      5.7147   0.3092  25.9761   N.1       4 RES4   0.0000
    94 N4A      5.5421   2.3201  29.7016   N.1       4 RES4   0.0000
    95 O1      -0.1825   4.7119  27.7656   O.3       5 RES5   0.0000
@<TRIPOS>BOND
     1     1     2    1
     2     3     1    1
     3     4     1    1
     4     5     4    1
     5     6     4    1
     6     7     8    2
     7     8    20    1
     8     9    10    2
     9    10    23    1
    10    11    12    2
    11    12    24    1
    12    13    14    1
    13    15    13    1
    14    16    13    1
    15    17    16    1
    16    18    16    1
    17    19     1    1
    18    20     4    1
    19    21     7    1
    20    22     8    1
    21    23    11    1
    22    24    10    1
    23    25    11    1
    24    26    12    1
    25     7    19    1
    26     9    21    1
    27     9    22    1
    28    13    25    1
    29    16    26    1
    30    27    28    1
    31    29    27    1
    32    30    27    1
    33    31    30    1
    34    32    30    1
    35    33    34    2
    36    34    46    1
    37    35    36    2
    38    36    49    1
    39    37    38    2
    40    38    50    1
    41    39    40    1
    42    41    39    1
    43    42    39    1
    44    43    42    1
    45    44    42    1
    46    45    27    1
    47    46    30    1
    48    47    33    1
    49    48    34    1
    50    49    37    1
    51    50    36    1
    52    51    37    1
    53    52    38    1
    54    33    45    1
    55    35    47    1
    56    35    48    1
    57    39    51    1
    58    42    52    1
    59    53    54    1
    60    55    53    1
    61    56    53    1
    62    57    53    1
    63    58    57    1
    64    59    57    1
    65    60    61    1
    66    62    60    1
    67    63    60    1
    68    64    63    1
    69    65    63    1
    70    66    63    1
    71    67    57    1
    72    68    69    1
    73    70    68    1
    74    71    68    1
    75    72    67    1
    76    73    72    1
    77    74    72    1
    78    75    67    1
    79    76    75    1
    80    77    75    1
    81    78    75    1
    82    79    78    1
    83    80    78    1
    84    81    78    1
    85    60    67    1
    86    68    72    1
    87    82    85    3
    88    83    86    3
    89    84    87    3
    90    88    82    1
    91    89    88    1
    92    90    88    1
    93    91    88    1
    94    92    89    3
    95    93    90    3
    96    94    91    3
    97    83    88    1
    98    84    88    1
@<TRIPOS>SUBSTRUCTURE
     1 RES1        1 GROUP             0 ****  ****    0  
     2 RES2       27 GROUP             0 ****  ****    0  
     3 RES3       53 GROUP             0 ****  ****    0  
     4 RES4       82 GROUP             0 ****  ****    0  
     5 RES5       95 GROUP             0 ****  ****    0  
