@<TRIPOS>MOLECULE
OFATIZ
    95    98     5     0     0
SMALL
USER_CHARGES
****
Generated from the CSD

@<TRIPOS>ATOM
     1 C1       6.1804   3.9670  44.0541   C.3       1 RES1   0.0000
     2 H1       6.2092   4.8463  44.4630   H         1 RES1   0.0000
     3 H2       5.6640   3.3943  44.6443   H         1 RES1   0.0000
     4 C2       7.4921   3.4686  44.0078   C.3       1 RES1   0.0000
     5 H3       7.8545   3.5127  44.9065   H         1 RES1   0.0000
     6 H4       8.0139   4.0757  43.4601   H         1 RES1   0.0000
     7 C3       6.0496   2.8862  41.5237   C.2       1 RES1   0.0000
     8 C4       7.0234   1.9892  41.8670   C.2       1 RES1   0.0000
     9 C5       6.5323   1.5871  39.3713   C.2       1 RES1   0.0000
    10 C6       6.5720   1.1170  38.0521   C.2       1 RES1   0.0000
    11 C7       6.2445   0.8501  35.5642   C.2       1 RES1   0.0000
    12 C8       7.2348  -0.0159  35.8959   C.2       1 RES1   0.0000
    13 C9       6.9360   0.4366  32.9875   C.3       1 RES1   0.0000
    14 H5       6.6886   0.4613  32.0502   H         1 RES1   0.0000
    15 H6       7.7081   1.0127  33.1032   H         1 RES1   0.0000
    16 C10      7.3240  -0.9624  33.3463   C.3       1 RES1   0.0000
    17 H7       7.9059  -1.3088  32.6519   H         1 RES1   0.0000
    18 H8       6.5240  -1.5111  33.3578   H         1 RES1   0.0000
    19 S1       5.3046   4.1066  42.5089   S.3       1 RES1   0.0000
    20 S2       7.7842   1.7939  43.3868   S.3       1 RES1   0.0000
    21 S3       5.4813   2.8588  39.8844   S.3       1 RES1   0.0000
    22 S4       7.5923   0.9535  40.5787   S.3       1 RES1   0.0000
    23 S5       5.5562   1.7771  36.8456   S.3       1 RES1   1.0000
    24 S6       7.6992  -0.0751  37.5569   S.3       1 RES1   0.0000
    25 S7       5.5678   1.0993  33.9650   S.3       1 RES1   0.0000
    26 S8       8.1423  -1.1276  34.8938   S.3       1 RES1   0.0000
    27 C11      9.5610   6.7701  42.9702   C.3       2 RES2   0.0000
    28 H9       9.1338   7.2800  43.6799   H         2 RES2   0.0000
    29 H10      9.8329   5.9270  43.3675   H         2 RES2   0.0000
    30 C12     10.7154   7.4408  42.6500   C.3       2 RES2   0.0000
    31 H11     11.4401   6.7984  42.7040   H         2 RES2   0.0000
    32 H12     10.8694   8.0921  43.3521   H         2 RES2   0.0000
    33 C13      9.1721   6.3327  40.2817   C.2       2 RES2   0.0000
    34 C14     10.2501   7.1068  40.0155   C.2       2 RES2   0.0000
    35 C15      9.9182   5.6390  37.9403   C.2       2 RES2   0.0000
    36 C16      9.9601   5.2236  36.6558   C.2       2 RES2   0.0000
    37 C17      9.1693   4.6112  34.2681   C.2       2 RES2   0.0000
    38 C18     10.2692   5.3367  34.0830   C.2       2 RES2   0.0000
    39 C19      9.3835   3.9148  31.6568   C.3       2 RES2   0.0000
    40 H13     10.1265   3.3431  31.9036   H         2 RES2   0.0000
    41 H14      8.9711   3.5348  30.8622   H         2 RES2   0.0000
    42 C20      9.9225   5.3076  31.3135   C.3       2 RES2   0.0000
    43 H15      9.1737   5.8979  31.1360   H         2 RES2   0.0000
    44 H16     10.4537   5.2501  30.5073   H         2 RES2   0.0000
    45 S9       8.2877   6.3857  41.7837   S.3       2 RES2   0.0000
    46 S10     10.8927   8.3060  41.0894   S.3       2 RES2   0.0000
    47 S11      8.7793   5.0716  39.1318   S.3       2 RES2   0.0000
    48 S12     11.1465   6.7392  38.5528   S.3       2 RES2   0.0000
    49 S13      8.8028   4.0995  35.9171   S.3       2 RES2   0.0000
    50 S14     11.2160   5.7203  35.5279   S.3       2 RES2   0.0000
    51 S15      8.1824   3.9228  32.9891   S.3       2 RES2   0.0000
    52 S16     10.9303   6.0287  32.6261   S.3       2 RES2   0.0000
    53 C21      1.7495  -1.1488  30.2064   C.3       3 RES3   0.0000
    54 H17      0.9636  -1.6967  30.2951   H         3 RES3   0.0000
    55 H18      1.8856  -0.6531  31.0165   H         3 RES3   0.0000
    56 H19      2.5112  -1.7153  30.0444   H         3 RES3   0.0000
    57 C22      1.5091   0.1326  28.6481   C.3       3 RES3   0.0000
    58 H20      1.5234  -0.3102  27.7840   H         3 RES3   0.0000
    59 H21      0.7266   0.6937  28.7329   H         3 RES3   0.0000
    60 C23      2.4184   1.7056  27.3559   C.3       3 RES3   0.0000
    61 H22      2.5308   1.1418  26.5767   H         3 RES3   0.0000
    62 H23      1.5577   2.1518  27.3250   H         3 RES3   0.0000
    63 C24      3.5339   2.6335  27.5565   C.3       3 RES3   0.0000
    64 H24      3.5368   3.2839  26.8506   H         3 RES3   0.0000
    65 H25      4.3605   2.1456  27.5449   H         3 RES3   0.0000
    66 H26      3.4346   3.0771  28.4012   H         3 RES3   0.0000
    67 N1       2.6908   0.7998  28.9297   N.4       3 RES3   1.0000
    68 C21A     3.6320  -1.1488  27.6529   C.3       3 RES3   0.0000
    69 H17A     4.4179  -1.6967  27.5642   H         3 RES3   0.0000
    70 H18A     3.4959  -0.6531  26.8429   H         3 RES3   0.0000
    71 H19A     2.8703  -1.7153  27.8149   H         3 RES3   0.0000
    72 C22A     3.8724   0.1326  29.2112   C.3       3 RES3   0.0000
    73 H20A     3.8581  -0.3102  30.0753   H         3 RES3   0.0000
    74 H21A     4.6549   0.6937  29.1264   H         3 RES3   0.0000
    75 C23A     2.9631   1.7056  30.5034   C.3       3 RES3   0.0000
    76 H22A     2.8507   1.1418  31.2826   H         3 RES3   0.0000
    77 H23A     3.8238   2.1518  30.5343   H         3 RES3   0.0000
    78 C24A     1.8476   2.6335  30.3029   C.3       3 RES3   0.0000
    79 H24A     1.8447   3.2839  31.0087   H         3 RES3   0.0000
    80 H25A     1.0210   2.1456  30.3144   H         3 RES3   0.0000
    81 H26A     1.9469   3.0771  29.4581   H         3 RES3   0.0000
    82 C25      7.1009  -0.8793  29.7551   C.1       4 RES4   0.0000
    83 C26      9.3421   0.4984  30.5150   C.1       4 RES4   0.0000
    84 C27      9.3392   1.8637  28.1235   C.1       4 RES4   0.0000
    85 N2       6.4268  -1.6684  30.2257   N.1       4 RES4   0.0000
    86 N3      10.0117   0.5417  31.4408   N.1       4 RES4   0.0000
    87 N4      10.0155   2.6379  27.6722   N.1       4 RES4   0.0000
    88 Fe1      8.2157   0.4843  28.9297   Fe        4 RES4  -3.0000
    89 C25A     9.3304  -0.8793  28.1042   C.1       4 RES4   0.0000
    90 C26A     7.0892   0.4984  27.3443   C.1       4 RES4   0.0000
    91 C27A     7.0921   1.8637  29.7358   C.1       4 RES4   0.0000
    92 N2A     10.0045  -1.6684  27.6336   N.1       4 RES4   0.0000
    93 N3A      6.4197   0.5417  26.4186   N.1       4 RES4   0.0000
    94 N4A      6.4158   2.6379  30.1871   N.1       4 RES4   0.0000
    95 O1       0.6035   4.9444  28.0001   O.3       5 RES5   0.0000
@<TRIPOS>BOND
     1     1     2    1
     2     3     1    1
     3     4     1    1
     4     5     4    1
     5     6     4    1
     6     7     8    2
     7     8    20    1
     8     9    10    2
     9    10    23    1
    10    11    12    2
    11    12    24    1
    12    13    14    1
    13    15    13    1
    14    16    13    1
    15    17    16    1
    16    18    16    1
    17    19     1    1
    18    20     4    1
    19    21     7    1
    20    22     8    1
    21    23    11    1
    22    24    10    1
    23    25    11    1
    24    26    12    1
    25     7    19    1
    26     9    21    1
    27     9    22    1
    28    13    25    1
    29    16    26    1
    30    27    28    1
    31    29    27    1
    32    30    27    1
    33    31    30    1
    34    32    30    1
    35    33    34    2
    36    34    46    1
    37    35    36    2
    38    36    49    1
    39    37    38    2
    40    38    50    1
    41    39    40    1
    42    41    39    1
    43    42    39    1
    44    43    42    1
    45    44    42    1
    46    45    27    1
    47    46    30    1
    48    47    33    1
    49    48    34    1
    50    49    37    1
    51    50    36    1
    52    51    37    1
    53    52    38    1
    54    33    45    1
    55    35    47    1
    56    35    48    1
    57    39    51    1
    58    42    52    1
    59    53    54    1
    60    55    53    1
    61    56    53    1
    62    57    53    1
    63    58    57    1
    64    59    57    1
    65    60    61    1
    66    62    60    1
    67    63    60    1
    68    64    63    1
    69    65    63    1
    70    66    63    1
    71    67    57    1
    72    68    69    1
    73    70    68    1
    74    71    68    1
    75    72    67    1
    76    73    72    1
    77    74    72    1
    78    75    67    1
    79    76    75    1
    80    77    75    1
    81    78    75    1
    82    79    78    1
    83    80    78    1
    84    81    78    1
    85    60    67    1
    86    68    72    1
    87    82    85    3
    88    83    86    3
    89    84    87    3
    90    88    82    1
    91    89    88    1
    92    90    88    1
    93    91    88    1
    94    92    89    3
    95    93    90    3
    96    94    91    3
    97    83    88    1
    98    84    88    1
@<TRIPOS>SUBSTRUCTURE
     1 RES1        1 GROUP             0 ****  ****    0  
     2 RES2       27 GROUP             0 ****  ****    0  
     3 RES3       53 GROUP             0 ****  ****    0  
     4 RES4       82 GROUP             0 ****  ****    0  
     5 RES5       95 GROUP             0 ****  ****    0  
