@<TRIPOS>MOLECULE
OFUYET
   126   126     5     0     0
SMALL
USER_CHARGES
****
Generated from the CSD

@<TRIPOS>ATOM
     1 Fe1     18.7900   3.3080   3.4000   Fe        1 RES1   0.0000
     2 O1      20.3990   4.3955   3.0117   O.3       1 RES1   0.0000
     3 N1      21.5002   3.9513   3.7175   N.am      1 RES1   0.0000
     4 C1      21.3968   2.7799   4.2877   C.2       1 RES1   0.0000
     5 O2      20.2828   2.1377   4.1588   O.2       1 RES1   0.0000
     6 O3      18.4192   4.3265   5.0467   O.3       1 RES1   0.0000
     7 N2      17.4111   3.7763   5.8032   N.am      1 RES1   0.0000
     8 C2      16.9284   2.6329   5.3845   C.2       1 RES1   0.0000
     9 O4      17.3722   2.1447   4.2825   O.2       1 RES1   0.0000
    10 O5      17.6497   4.4875   2.2847   O.3       1 RES1   0.0000
    11 N3      17.2831   3.8933   1.1026   N.am      1 RES1   0.0000
    12 C3      17.7667   2.6739   0.8859   C.2       1 RES1   0.0000
    13 O6      18.5468   2.1527   1.7502   O.2       1 RES1   0.0000
    14 C4      22.6557   4.8567   3.6329   C.3       1 RES1   0.0000
    15 C5      23.3799   4.7106   2.3086   C.3       1 RES1   0.0000
    16 C6      24.1082   3.3731   2.1117   C.3       1 RES1   0.0000
    17 C7      25.3719   3.2201   2.9439   C.3       1 RES1   0.0000
    18 C8      25.9497   1.8256   2.8253   C.3       1 RES1   0.0000
    19 N4      27.0752   1.6075   3.7631   N.4       1 RES1   1.0000
    20 C9      22.5007   2.1527   5.0758   C.3       1 RES1   0.0000
    21 C10     22.0441   1.6906   6.4515   C.3       1 RES1   0.0000
    22 C11     21.6593   2.8480   7.3642   C.2       1 RES1   0.0000
    23 N5      21.2377   2.5019   8.5534   N.am      1 RES1   0.0000
    24 C12     20.6862   3.4572   9.5073   C.3       1 RES1   0.0000
    25 C13     19.2488   3.1051   9.8719   C.3       1 RES1   0.0000
    26 C14     18.2821   3.1251   8.7109   C.3       1 RES1   0.0000
    27 C15     18.1529   4.4865   8.0622   C.3       1 RES1   0.0000
    28 C16     17.0717   4.5595   6.9795   C.3       1 RES1   0.0000
    29 O7      21.7527   4.0224   6.9533   O.2       1 RES1   0.0000
    30 C17     15.9328   1.8456   6.1697   C.3       1 RES1   0.0000
    31 C18     15.0017   1.0073   5.2894   C.3       1 RES1   0.0000
    32 C19     13.9124   1.8656   4.6776   C.2       1 RES1   0.0000
    33 N6      13.8197   1.8446   3.3441   N.am      1 RES1   0.0000
    34 C20     12.8126   2.5879   2.5927   C.3       1 RES1   0.0000
    35 C21     13.0804   4.0664   2.5189   C.3       1 RES1   0.0000
    36 C22     14.4739   4.5375   2.1520   C.3       1 RES1   0.0000
    37 C23     14.8341   4.1844   0.7695   C.3       1 RES1   0.0000
    38 C24     16.2673   4.6196   0.3333   C.3       1 RES1   0.0000
    39 O8      13.1530   2.5209   5.3867   O.2       1 RES1   0.0000
    40 C25     17.3867   1.8986  -0.3378   C.3       1 RES1   0.0000
    41 H1      23.1626   4.7016   4.4293   H         1 RES1   0.0000
    42 H2      22.2945   5.7420   3.7134   H         1 RES1   0.0000
    43 H3      24.0173   5.4018   2.1252   H         1 RES1   0.0000
    44 H4      22.8059   4.9217   1.5659   H         1 RES1   0.0000
    45 H5      24.3602   3.3011   1.1856   H         1 RES1   0.0000
    46 H6      23.5323   2.6109   2.2594   H         1 RES1   0.0000
    47 H7      26.0116   3.8413   2.6173   H         1 RES1   0.0000
    48 H8      25.1795   3.4512   3.8477   H         1 RES1   0.0000
    49 H9      26.2178   1.6406   1.9238   H         1 RES1   0.0000
    50 H10     25.2057   1.2304   2.9752   H         1 RES1   0.0000
    51 H11     27.4157   0.7102   3.6687   H         1 RES1   0.0000
    52 H12     27.7814   2.2408   3.5792   H         1 RES1   0.0000
    53 H13     26.7561   1.7306   4.6753   H         1 RES1   0.0000
    54 H14     22.7688   1.1704   6.8229   H         1 RES1   0.0000
    55 H15     21.2698   1.1404   6.3755   H         1 RES1   0.0000
    56 H16     21.2866   1.5705   8.8138   H         1 RES1   0.0000
    57 H17     21.0210   4.3515   9.3507   H         1 RES1   0.0000
    58 H18     21.1522   3.4412  10.3350   H         1 RES1   0.0000
    59 H19     19.1956   2.2808  10.3573   H         1 RES1   0.0000
    60 H20     18.8178   3.6212  10.5587   H         1 RES1   0.0000
    61 H21     18.4317   2.4908   8.0085   H         1 RES1   0.0000
    62 H22     17.3972   2.9110   8.9928   H         1 RES1   0.0000
    63 H23     18.9262   4.8416   7.6282   H         1 RES1   0.0000
    64 H24     17.8228   5.1317   8.7020   H         1 RES1   0.0000
    65 H25     16.9723   5.4519   6.6439   H         1 RES1   0.0000
    66 H26     16.2362   4.2815   7.3374   H         1 RES1   0.0000
    67 H27     16.4516   1.2804   6.7558   H         1 RES1   0.0000
    68 H28     15.4276   2.3908   6.7781   H         1 RES1   0.0000
    69 H29     14.4910   0.3701   5.7939   H         1 RES1   0.0000
    70 H30     15.5350   0.6802   4.5635   H         1 RES1   0.0000
    71 H31     14.4510   1.3204   2.8634   H         1 RES1   0.0000
    72 H32     11.9446   2.4408   2.9529   H         1 RES1   0.0000
    73 H33     12.7834   2.2308   1.7001   H         1 RES1   0.0000
    74 H34     12.9204   4.4515   3.3779   H         1 RES1   0.0000
    75 H35     12.4547   4.4115   1.8791   H         1 RES1   0.0000
    76 H36     15.0856   4.1814   2.7963   H         1 RES1   0.0000
    77 H37     14.5761   5.4619   2.3712   H         1 RES1   0.0000
    78 H38     14.2028   4.5315   0.1342   H         1 RES1   0.0000
    79 H39     14.8855   3.2211   0.7606   H         1 RES1   0.0000
    80 H40     16.3722   4.5415  -0.6040   H         1 RES1   0.0000
    81 H41     16.3176   5.5219   0.6487   H         1 RES1   0.0000
    82 H42     18.1301   1.4105  -0.6711   H         1 RES1   0.0000
    83 H43     16.8538   1.1304  -0.1566   H         1 RES1   0.0000
    84 H44     17.0908   2.4008  -1.0961   H         1 RES1   0.0000
    85 H45     22.8405   1.3905   4.5859   H         1 RES1   0.0000
    86 H46     23.2120   2.8010   5.1899   H         1 RES1   0.0000
    87 Cl1     19.7503   8.8706   8.6297   Cl        2 RES2   0.0000
    88 O9      19.0654   8.4339  10.1896   O.3       2 RES2  -1.0000
    89 O10     18.7586   9.6763   7.9327   O.2       2 RES2   0.0000
    90 O11     20.0117   7.5986   7.9409   O.2       2 RES2   0.0000
    91 O12     20.9873   9.5893   8.8943   O.2       2 RES2   0.0000
    92 Cl2     23.8992  -1.3575   4.1758   Cl        3 RES3   0.0000
    93 O13     24.6523  -2.4798   3.7624   O.3       3 RES3  -1.0000
    94 O14     23.3844  -0.6612   3.0370   O.2       3 RES3   0.0000
    95 O15     22.7652  -1.7906   4.9679   O.2       3 RES3   0.0000
    96 O16     24.7046  -0.4722   4.9628   O.2       3 RES3   0.0000
    97 Cl3     14.5141  -1.1255   1.2970   Cl        4 RES4   0.0000
    98 O17     15.0567  -1.9187   0.3490   O.3       4 RES4  -1.0000
    99 O18     15.3520  -0.0130   1.5883   O.2       4 RES4   0.0000
   100 O19     13.2527  -0.5622   0.9060   O.2       4 RES4   0.0000
   101 O20     14.2686  -1.8486   2.4719   O.2       4 RES4   0.0000
   102 Mg1     18.7232   8.1059   3.9817   Mg        5 RES5   2.0000
   103 O21     17.6240   8.9280   5.5308   O.3       5 RES5   0.0000
   104 O22     17.0754   6.9304   3.5557   O.3       5 RES5   0.0000
   105 O23     19.5872   6.7623   5.3214   O.3       5 RES5   0.0000
   106 O24     20.2377   9.3992   4.3908   O.3       5 RES5   0.0000
   107 O25     18.0305   9.4262   2.5506   O.3       5 RES5   0.0000
   108 O26     19.8001   7.0344   2.5833   O.3       5 RES5   0.0000
   109 C26     19.8075   7.1144   1.1789   C.3       5 RES5   0.0000
   110 C27     21.0820   7.7346   0.6420   C.3       5 RES5   0.0000
   111 H47     17.0198   8.2228   5.7715   H         5 RES5   0.0000
   112 H48     17.9211   9.2932   6.3755   H         5 RES5   0.0000
   113 H49     17.0022   6.2221   2.9081   H         5 RES5   0.0000
   114 H50     16.1494   7.0024   3.7805   H         5 RES5   0.0000
   115 H51     19.5439   6.8723   6.2636   H         5 RES5   0.0000
   116 H52     19.1954   5.8820   5.3688   H         5 RES5   0.0000
   117 H53     20.3383  10.3435   4.5188   H         5 RES5   0.0000
   118 H54     21.1491   9.0831   4.4293   H         5 RES5   0.0000
   119 H55     18.3833  10.2835   2.3265   H         5 RES5   0.0000
   120 H56     17.1781   9.3932   2.1028   H         5 RES5   0.0000
   121 H57     20.4012   6.3822   2.9529   H         5 RES5   0.0000
   122 H58     19.6979   6.2321   0.8277   H         5 RES5   0.0000
   123 H59     19.0633   7.6626   0.8948   H         5 RES5   0.0000
   124 H60     21.0333   7.7726  -0.3132   H         5 RES5   0.0000
   125 H61     21.1985   8.6229   0.9843   H         5 RES5   0.0000
   126 H62     21.8119   7.1824   0.9172   H         5 RES5   0.0000
@<TRIPOS>BOND
     1     1     2    1
     2     2     3    1
     3     3     4   am
     4     4     5    2
     5     5     1    1
     6     6     1    1
     7     7     6    1
     8     8     7   am
     9     9     1    1
    10    10     1    1
    11    11    10    1
    12    12    11   am
    13    13     1    1
    14    14     3    1
    15    15    14    1
    16    16    15    1
    17    17    16    1
    18    18    17    1
    19    19    18    1
    20    20     4    1
    21    21    20    1
    22    22    21    1
    23    23    22   am
    24    24    23    1
    25    25    24    1
    26    26    25    1
    27    27    26    1
    28    28     7    1
    29    29    22    2
    30    30     8    1
    31    31    30    1
    32    32    31    1
    33    33    32   am
    34    34    33    1
    35    35    34    1
    36    36    35    1
    37    37    36    1
    38    38    11    1
    39    39    32    2
    40    40    12    1
    41    41    14    1
    42    42    14    1
    43    43    15    1
    44    44    15    1
    45    45    16    1
    46    46    16    1
    47    47    17    1
    48    48    17    1
    49    49    18    1
    50    50    18    1
    51    51    19    1
    52    52    19    1
    53    53    19    1
    54    54    21    1
    55    55    21    1
    56    56    23    1
    57    57    24    1
    58    58    24    1
    59    59    25    1
    60    60    25    1
    61    61    26    1
    62    62    26    1
    63    63    27    1
    64    64    27    1
    65    65    28    1
    66    66    28    1
    67    67    30    1
    68    68    30    1
    69    69    31    1
    70    70    31    1
    71    71    33    1
    72    72    34    1
    73    73    34    1
    74    74    35    1
    75    75    35    1
    76    76    36    1
    77    77    36    1
    78    78    37    1
    79    79    37    1
    80    80    38    1
    81    81    38    1
    82    82    40    1
    83    83    40    1
    84    84    40    1
    85    85    20    1
    86    86    20    1
    87     8     9    2
    88    12    13    2
    89    27    28    1
    90    37    38    1
    91    87    88    1
    92    89    87    2
    93    90    87    2
    94    91    87    2
    95    92    93    1
    96    94    92    2
    97    95    92    2
    98    96    92    2
    99    97    98    1
   100    99    97    2
   101   100    97    2
   102   101    97    2
   103   102   103    1
   104   103   111    1
   105   104   102    1
   106   105   102    1
   107   106   102    1
   108   107   102    1
   109   108   102    1
   110   109   108    1
   111   110   109    1
   112   112   103    1
   113   113   104    1
   114   114   104    1
   115   115   105    1
   116   116   105    1
   117   117   106    1
   118   118   106    1
   119   119   107    1
   120   120   107    1
   121   121   108    1
   122   122   109    1
   123   123   109    1
   124   124   110    1
   125   125   110    1
   126   126   110    1
@<TRIPOS>SUBSTRUCTURE
     1 RES1        1 GROUP             0 ****  ****    0  
     2 RES2       87 GROUP             0 ****  ****    0  
     3 RES3       92 GROUP             0 ****  ****    0  
     4 RES4       97 GROUP             0 ****  ****    0  
     5 RES5      102 GROUP             0 ****  ****    0  
@<TRIPOS>CRYSIN
   21.1945   10.0034   23.3381   90.0000  106.5600   90.0000   231     1
