@<TRIPOS>MOLECULE
OGEKOD
    93   101     3     0     0
SMALL
USER_CHARGES
****
Generated from the CSD

@<TRIPOS>ATOM
     1 Fe1     15.0947   7.5442   8.4251   Fe        1 RES1   1.0000
     2 S1      17.1316   4.9334   8.8219   S.o2      1 RES1   0.0000
     3 O1      16.5269   6.2316   9.0649   O.3       1 RES1   0.0000
     4 N1      13.4495   8.6223   7.4579   N.3       1 RES1   0.0000
     5 F1      19.5335   4.0971   9.2269   F         1 RES1   0.0000
     6 N2      13.6621   5.9650   7.8862   N.ar      1 RES1   0.0000
     7 N3      13.8727   8.1404  10.1878   N.ar      1 RES1   0.0000
     8 F2      18.9597   5.6726  10.5043   F         1 RES1   0.0000
     9 N4      15.9025   9.6153   8.4038   N.ar      1 RES1   0.0000
    10 N5      15.5713   7.4948   6.2438   N.ar      1 RES1   0.0000
    11 O2      17.1000   4.4807   7.5733   O.2       1 RES1   0.0000
    12 C1      12.6862   8.6808   9.8247   C.ar      1 RES1   0.0000
    13 C2      12.8944   6.3591   6.8583   C.ar      1 RES1   0.0000
    14 C3      12.5229   3.8573   7.9029   C.ar      1 RES1   0.0000
    15 H1      12.4274   2.9907   8.2791   H         1 RES1   0.0000
    16 C4      15.4238   7.5650  11.9326   C.ar      1 RES1   0.0000
    17 H2      16.0366   7.2375  11.2846   H         1 RES1   0.0000
    18 C5      11.8949   5.5275   6.3127   C.ar      1 RES1   0.0000
    19 H3      11.3514   5.8269   5.5939   H         1 RES1   0.0000
    20 C6      13.4637   4.7345   8.3945   C.ar      1 RES1   0.0000
    21 H4      13.9981   4.4573   9.1282   H         1 RES1   0.0000
    22 C7      15.4873  11.8434   7.5584   C.ar      1 RES1   0.0000
    23 H5      14.9016  12.4212   7.0799   H         1 RES1   0.0000
    24 C8      12.2961   8.6878   8.4057   C.3       1 RES1   0.0000
    25 H6      11.7781   9.5124   8.2214   H         1 RES1   0.0000
    26 H7      11.7012   7.9170   8.2344   H         1 RES1   0.0000
    27 C9      15.1655  10.4574   7.7260   C.ar      1 RES1   0.0000
    28 C10     14.1656   8.1018  11.5211   C.ar      1 RES1   0.0000
    29 C11     13.9177   9.9743   7.0240   C.3       1 RES1   0.0000
    30 H8      13.1896  10.6282   7.1860   H         1 RES1   0.0000
    31 H9      14.0895   9.9533   6.0501   H         1 RES1   0.0000
    32 C12     13.2609   8.5626  12.4987   C.ar      1 RES1   0.0000
    33 F3      19.3524   6.1346   8.5510   F         1 RES1   0.0000
    34 C13     16.6416  12.3159   8.0985   C.ar      1 RES1   0.0000
    35 H10     16.9071  13.2165   7.9551   H         1 RES1   0.0000
    36 C14     17.4531  11.4363   8.8861   C.ar      1 RES1   0.0000
    37 C15     13.1867   7.7240   6.3182   C.3       1 RES1   0.0000
    38 H11     12.4226   8.0609   5.7652   H         1 RES1   0.0000
    39 C16     17.0591  10.0878   9.0072   C.ar      1 RES1   0.0000
    40 C17     17.8430   9.2059   9.7725   C.ar      1 RES1   0.0000
    41 H12     17.5872   8.2936   9.8396   H         1 RES1   0.0000
    42 C18     18.8093   5.1883   9.3703   C.3       1 RES1   0.0000
    43 C19     11.7795   9.1732  10.8023   C.ar      1 RES1   0.0000
    44 H13     10.9635   9.5743  10.5230   H         1 RES1   0.0000
    45 C20     14.4560   7.6445   5.4989   C.ar      1 RES1   0.0000
    46 C21     18.9803   9.6398  10.4317   C.ar      1 RES1   0.0000
    47 H14     19.4964   9.0328  10.9475   H         1 RES1   0.0000
    48 O3      16.6876   3.8854   9.7930   O.2       1 RES1   0.0000
    49 C22     11.7225   4.2562   6.8527   C.ar      1 RES1   0.0000
    50 H15     11.0600   3.6714   6.5026   H         1 RES1   0.0000
    51 C23     12.0528   9.0831  12.1021   C.ar      1 RES1   0.0000
    52 H16     11.4189   9.3743  12.7482   H         1 RES1   0.0000
    53 C24     15.7462   7.5229  13.2659   C.ar      1 RES1   0.0000
    54 H17     16.5876   7.1767  13.5452   H         1 RES1   0.0000
    55 C25     13.6659   8.4960  13.8748   C.ar      1 RES1   0.0000
    56 H18     13.0776   8.8246  14.5415   H         1 RES1   0.0000
    57 C26     14.4540   7.7311   4.1097   C.ar      1 RES1   0.0000
    58 H19     13.6484   7.8328   3.6237   H         1 RES1   0.0000
    59 C27     16.8291   7.5147   4.2066   C.ar      1 RES1   0.0000
    60 H20     17.6726   7.4843   3.7690   H         1 RES1   0.0000
    61 C28     18.6134  11.8820   9.5602   C.ar      1 RES1   0.0000
    62 H21     18.8877  12.7896   9.4951   H         1 RES1   0.0000
    63 C29     19.3581  10.9650  10.3293   C.ar      1 RES1   0.0000
    64 H22     20.1312  11.2644  10.7874   H         1 RES1   0.0000
    65 C30     16.7539   7.4082   5.6162   C.ar      1 RES1   0.0000
    66 H23     17.5457   7.2749   6.1227   H         1 RES1   0.0000
    67 C31     14.7996   8.0059  14.2361   C.ar      1 RES1   0.0000
    68 H24     15.0157   7.9626  15.1597   H         1 RES1   0.0000
    69 C32     15.6676   7.6656   3.4710   C.ar      1 RES1   0.0000
    70 H25     15.7069   7.7229   2.5232   H         1 RES1   0.0000
    71 S2      31.9654   6.3370   6.3365   S.o2      2 RES2   0.0000
    72 F4      30.8335   7.6714   8.2791   F         2 RES2   0.0000
    73 O4      31.4002   7.2702   5.4095   O.2       2 RES2   0.0000
    74 O5      31.8908   4.9579   5.9589   O.2       2 RES2   0.0000
    75 O6      33.2207   6.7474   6.9067   O.3       2 RES2  -1.0000
    76 F5      31.1371   5.5907   8.7167   F         2 RES2   0.0000
    77 F6      29.5690   6.1591   7.3946   F         2 RES2   0.0000
    78 C33     30.8287   6.4340   7.7521   C.3       2 RES2   0.0000
    79 C34     29.0763  10.8901   6.2214   C.ar      3 RES3   0.0000
    80 H26     29.8927  10.8469   5.7354   H         3 RES3   0.0000
    81 C35     26.6939  10.9603   7.5324   C.ar      3 RES3   0.0000
    82 H27     25.8699  10.9779   8.0016   H         3 RES3   0.0000
    83 C36     27.9131  11.3802   5.6050   C.ar      3 RES3   0.0000
    84 H28     27.9706  11.7042   4.7149   H         3 RES3   0.0000
    85 C37     29.0278  10.4761   7.5212   C.ar      3 RES3   0.0000
    86 H29     29.8098  10.1814   7.9700   H         3 RES3   0.0000
    87 C38     26.7252  11.4059   6.2363   C.ar      3 RES3   0.0000
    88 C39     25.5007  11.9100   5.5771   C.3       3 RES3   0.0000
    89 H30     25.0587  11.1744   5.1041   H         3 RES3   0.0000
    90 H31     25.7404  12.6118   4.9365   H         3 RES3   0.0000
    91 H32     24.8950  12.2761   6.2531   H         3 RES3   0.0000
    92 C40     27.7966  10.4972   8.1711   C.ar      3 RES3   0.0000
    93 H33     27.7305  10.1849   9.0649   H         3 RES3   0.0000
@<TRIPOS>BOND
     1     1     3    1
     2     2     3    1
     3     4     1    1
     4     5    42    1
     5     6     1    1
     6     7     1    1
     7     8    42    1
     8     9     1    1
     9    10     1    1
    10    11     2    2
    11    12     7   ar
    12    13     6   ar
    13    14    15    1
    14    16    17    1
    15    18    13   ar
    16    19    18    1
    17    20     6   ar
    18    21    20    1
    19    22    23    1
    20    24     4    1
    21    25    24    1
    22    26    24    1
    23    27     9   ar
    24    28     7   ar
    25    29     4    1
    26    30    29    1
    27    31    29    1
    28    32    28   ar
    29    33    42    1
    30    34    22   ar
    31    35    34    1
    32    36    34   ar
    33    37     4    1
    34    38    37    1
    35    39     9   ar
    36    40    39   ar
    37    41    40    1
    38    42     2    1
    39    43    12   ar
    40    44    43    1
    41    45    10   ar
    42    46    40   ar
    43    47    46    1
    44    48     2    2
    45    49    14   ar
    46    50    49    1
    47    51    32   ar
    48    52    51    1
    49    53    16   ar
    50    54    53    1
    51    55    32   ar
    52    56    55    1
    53    57    45   ar
    54    58    57    1
    55    59    60    1
    56    61    36   ar
    57    62    61    1
    58    63    46   ar
    59    64    63    1
    60    65    10   ar
    61    66    65    1
    62    67    53   ar
    63    68    67    1
    64    69    57   ar
    65    70    69    1
    66    12    24    1
    67    13    37    1
    68    14    20   ar
    69    16    28   ar
    70    18    49   ar
    71    22    27   ar
    72    27    29    1
    73    36    39   ar
    74    37    45    1
    75    43    51   ar
    76    55    67   ar
    77    59    65   ar
    78    59    69   ar
    79    61    63   ar
    80    71    73    2
    81    72    78    1
    82    74    71    2
    83    75    71    1
    84    76    78    1
    85    77    78    1
    86    78    71    1
    87    79    80    1
    88    81    82    1
    89    83    79   ar
    90    84    83    1
    91    85    79   ar
    92    86    85    1
    93    87    81   ar
    94    88    87    1
    95    89    88    1
    96    90    88    1
    97    91    88    1
    98    92    81   ar
    99    93    92    1
   100    83    87   ar
   101    85    92   ar
@<TRIPOS>SUBSTRUCTURE
     1 RES1        1 GROUP             0 ****  ****    0  
     2 RES2       71 GROUP             0 ****  ****    0  
     3 RES3       79 GROUP             0 ****  ****    0  
@<TRIPOS>CRYSIN
   42.3480   11.6960   18.6450   90.0000   92.8820   90.0000    15     1
