@<TRIPOS>MOLECULE
OGELOE
    78    84     4     0     0
SMALL
USER_CHARGES
****
Generated from the CSD

@<TRIPOS>ATOM
     1 Br1     -2.7522   9.0762   6.2471   Br        1 RES1   0.0000
     2 Fe1     -0.7260   8.8971   4.8470   Fe        1 RES1   1.0000
     3 N1      -0.3162   6.7840   4.2176   N.ar      1 RES1   0.0000
     4 N2       1.2039   8.5894   6.0443   N.ar      1 RES1   0.0000
     5 N3       0.8939   9.1534   3.3260   N.3       1 RES1   0.0000
     6 N4      -1.7555   9.2312   2.8956   N.ar      1 RES1   0.0000
     7 N5      -0.3880  11.0754   4.7609   N.ar      1 RES1   0.0000
     8 C1      -0.7618   5.6223   4.7948   C.ar      1 RES1   0.0000
     9 C2       1.3242   8.0578   7.3195   C.ar      1 RES1   0.0000
    10 C3       2.6031   7.6723   7.8371   C.ar      1 RES1   0.0000
    11 C4      -1.5936   5.6656   5.9266   C.ar      1 RES1   0.0000
    12 H1      -1.8490   6.4935   6.2651   H         1 RES1   0.0000
    13 C5      -0.3835   4.3245   4.3063   C.ar      1 RES1   0.0000
    14 C6       0.4861   6.6711   3.1616   C.ar      1 RES1   0.0000
    15 C7       2.2760   8.7722   5.3494   C.ar      1 RES1   0.0000
    16 C8      -1.0113   9.9338   2.0330   C.ar      1 RES1   0.0000
    17 C9      -2.0365   4.5427   6.5424   C.ar      1 RES1   0.0000
    18 H2      -2.5794   4.6089   7.2954   H         1 RES1   0.0000
    19 C10      0.3271  10.3471   2.5876   C.3       1 RES1   0.0000
    20 H3       0.9289  10.6284   1.8670   H         1 RES1   0.0000
    21 C11      0.9095   5.4505   2.6279   C.ar      1 RES1   0.0000
    22 H4       1.4834   5.4371   1.8960   H         1 RES1   0.0000
    23 C12     -1.4195  10.3114   0.7787   C.ar      1 RES1   0.0000
    24 H5      -0.8723  10.8167   0.2225   H         1 RES1   0.0000
    25 C13      0.4836   4.2862   3.1745   C.ar      1 RES1   0.0000
    26 H6       0.7539   3.4714   2.8166   H         1 RES1   0.0000
    27 C14      2.6763   7.1206   9.1269   C.ar      1 RES1   0.0000
    28 H7       3.5019   6.8418   9.4541   H         1 RES1   0.0000
    29 C15      0.1190  11.4615   3.5743   C.ar      1 RES1   0.0000
    30 C16      0.3292  12.8010   3.2777   C.ar      1 RES1   0.0000
    31 H8       0.6714  13.0516   2.4506   H         1 RES1   0.0000
    32 C17     -1.6812   3.2857   6.0507   C.ar      1 RES1   0.0000
    33 H9      -1.9998   2.5154   6.4634   H         1 RES1   0.0000
    34 C18      0.1865   7.9333   8.1418   C.ar      1 RES1   0.0000
    35 H10     -0.6466   8.2118   7.8338   H         1 RES1   0.0000
    36 C19     -0.8652   3.1918   4.9641   C.ar      1 RES1   0.0000
    37 H11     -0.6225   2.3505   4.6513   H         1 RES1   0.0000
    38 C20     -2.9645   8.8438   2.4925   C.ar      1 RES1   0.0000
    39 H12     -3.4840   8.3447   3.0810   H         1 RES1   0.0000
    40 C21     -3.4831   9.1366   1.2672   C.ar      1 RES1   0.0000
    41 H13     -4.3306   8.8415   1.0238   H         1 RES1   0.0000
    42 C22      3.5764   8.3818   5.7702   C.ar      1 RES1   0.0000
    43 H14      4.3090   8.4906   5.2075   H         1 RES1   0.0000
    44 C23      3.7297   7.8425   7.0164   C.ar      1 RES1   0.0000
    45 H15      4.5720   7.5911   7.3179   H         1 RES1   0.0000
    46 C24      0.3180   7.3964   9.4042   C.ar      1 RES1   0.0000
    47 H16     -0.4352   7.3024   9.9410   H         1 RES1   0.0000
    48 C25      0.9760   7.9530   2.4780   C.3       1 RES1   0.0000
    49 H17      1.8990   7.8267   2.2039   H         1 RES1   0.0000
    50 H18      0.4496   8.1013   1.6767   H         1 RES1   0.0000
    51 C26      2.1580   9.4658   4.0000   C.3       1 RES1   0.0000
    52 H19      2.2228  10.4248   4.1273   H         1 RES1   0.0000
    53 H20      2.8971   9.1891   3.4341   H         1 RES1   0.0000
    54 C27      1.5846   6.9834   9.9007   C.ar      1 RES1   0.0000
    55 H21      1.6577   6.6203  10.7552   H         1 RES1   0.0000
    56 C28     -2.6943   9.9013   0.3724   C.ar      1 RES1   0.0000
    57 H22     -3.0177  10.1290  -0.4692   H         1 RES1   0.0000
    58 C29     -0.6980  11.9971   5.6815   C.ar      1 RES1   0.0000
    59 H23     -1.0568  11.7297   6.4973   H         1 RES1   0.0000
    60 C30      0.0206  13.7675   4.2418   C.ar      1 RES1   0.0000
    61 H24      0.1635  14.6706   4.0709   H         1 RES1   0.0000
    62 C31     -0.4907  13.3595   5.4316   C.ar      1 RES1   0.0000
    63 H25     -0.7037  13.9882   6.0846   H         1 RES1   0.0000
    64 Cl1      3.0955  10.2914  -0.2697   Cl        2 RES2   0.0000
    65 O1       1.7350  10.4563  -0.6578   O.2       2 RES2   0.0000
    66 O2       3.2249   9.8659   1.0641   O.2       2 RES2   0.0000
    67 O3       3.7610  11.5863  -0.3063   O.3       2 RES2  -1.0000
    68 O4       3.7567   9.4934  -1.1947   O.2       2 RES2   0.0000
    69 Cl2      6.6119  13.0382   2.1173   Cl        3 RES3   0.0000
    70 Cl3      3.8278  13.4321   2.7195   Cl        3 RES3   0.0000
    71 Cl4      5.3767  11.4121   4.1081   Cl        3 RES3   0.0000
    72 C32      5.1323  12.2655   2.6021   C.3       3 RES3   0.0000
    73 H26      4.8928  11.6091   1.9153   H         3 RES3   0.0000
    74 Cl5     -2.8446   5.3987   1.2237   Cl        4 RES4   0.0000
    75 Cl6     -5.5118   6.2487   1.1608   Cl        4 RES4   0.0000
    76 Cl7     -4.3069   5.0675   3.5550   Cl        4 RES4   0.0000
    77 C33     -4.4507   5.0672   1.9363   C.3       4 RES4   0.0000
    78 H27     -4.7323   4.1714   1.6542   H         4 RES4   0.0000
@<TRIPOS>BOND
     1     1     2    1
     2     2     3    1
     3     3     8   ar
     4     4     2    1
     5     5     2    1
     6     6     2    1
     7     7     2    1
     8     8    11   ar
     9     9     4   ar
    10    10     9   ar
    11    11    12    1
    12    13     8   ar
    13    14     3   ar
    14    15     4   ar
    15    16     6   ar
    16    17    11   ar
    17    18    17    1
    18    19     5    1
    19    20    19    1
    20    21    14   ar
    21    22    21    1
    22    23    16   ar
    23    24    23    1
    24    25    13   ar
    25    26    25    1
    26    27    10   ar
    27    28    27    1
    28    29     7   ar
    29    30    29   ar
    30    31    30    1
    31    32    17   ar
    32    33    32    1
    33    34     9   ar
    34    35    34    1
    35    36    13   ar
    36    37    36    1
    37    38     6   ar
    38    39    38    1
    39    40    38   ar
    40    41    40    1
    41    42    15   ar
    42    43    42    1
    43    44    10   ar
    44    45    44    1
    45    46    34   ar
    46    47    46    1
    47    48     5    1
    48    49    48    1
    49    50    48    1
    50    51     5    1
    51    52    51    1
    52    53    51    1
    53    54    27   ar
    54    55    54    1
    55    56    23   ar
    56    57    56    1
    57    58     7   ar
    58    59    58    1
    59    60    30   ar
    60    61    60    1
    61    62    58   ar
    62    63    62    1
    63    14    48    1
    64    15    51    1
    65    16    19    1
    66    19    29    1
    67    21    25   ar
    68    32    36   ar
    69    40    56   ar
    70    42    44   ar
    71    46    54   ar
    72    60    62   ar
    73    64    65    2
    74    66    64    2
    75    67    64    1
    76    68    64    2
    77    69    72    1
    78    70    72    1
    79    71    72    1
    80    72    73    1
    81    74    77    1
    82    75    77    1
    83    76    77    1
    84    77    78    1
@<TRIPOS>SUBSTRUCTURE
     1 RES1        1 GROUP             0 ****  ****    0  
     2 RES2       64 GROUP             0 ****  ****    0  
     3 RES3       69 GROUP             0 ****  ****    0  
     4 RES4       74 GROUP             0 ****  ****    0  
@<TRIPOS>CRYSIN
    9.9553   13.1814   16.2767   92.6620   96.4220  105.7430     2     1
