@<TRIPOS>MOLECULE
OGELUK
    78    84     4     0     0
SMALL
USER_CHARGES
****
Generated from the CSD

@<TRIPOS>ATOM
     1 Fe1      7.1468   2.4946   5.5267   Fe        1 RES1   1.0000
     2 Cl1      6.2079   1.4528   7.3766   Cl        1 RES1   0.0000
     3 N1       7.5225   3.3932   3.5423   N.3       1 RES1   0.0000
     4 C1       5.1495   1.1357   1.8838   C.ar      1 RES1   0.0000
     5 H1       4.9460   1.6002   1.1051   H         1 RES1   0.0000
     6 C2       8.5951   2.6201   2.8798   C.3       1 RES1   0.0000
     7 H2       9.0297   3.1814   2.2201   H         1 RES1   0.0000
     8 H3       8.2017   1.8650   2.4145   H         1 RES1   0.0000
     9 C3       5.8313   1.7512   2.9080   C.ar      1 RES1   0.0000
    10 N2       6.1576   1.1185   4.0498   N.ar      1 RES1   0.0000
    11 N3       5.3469   3.6941   5.1061   N.ar      1 RES1   0.0000
    12 N4       8.2865   4.3843   6.0423   N.ar      1 RES1   0.0000
    13 C4       8.5674   5.1374   4.9854   C.ar      1 RES1   0.0000
    14 C5       6.1840   3.2271   2.9004   C.3       1 RES1   0.0000
    15 H4       6.1727   3.5947   1.9920   H         1 RES1   0.0000
    16 C6       9.4016   6.2759   5.0450   C.ar      1 RES1   0.0000
    17 H5       9.5744   6.7724   4.2775   H         1 RES1   0.0000
    18 C7       7.8928   4.8196   3.6756   C.3       1 RES1   0.0000
    19 H6       7.0931   5.3615   3.5931   H         1 RES1   0.0000
    20 H7       8.4890   5.0587   2.9482   H         1 RES1   0.0000
    21 C8       9.7573   0.8725   7.2486   C.ar      1 RES1   0.0000
    22 H8       8.8630   0.9321   7.4976   H         1 RES1   0.0000
    23 C9       8.5075   3.9873   8.4114   C.ar      1 RES1   0.0000
    24 H9       7.9393   3.2545   8.3428   H         1 RES1   0.0000
    25 C10     10.6789   0.4048   8.1400   C.ar      1 RES1   0.0000
    26 H10     10.4015   0.1399   8.9876   H         1 RES1   0.0000
    27 N5       9.2210   1.7661   5.0696   N.ar      1 RES1   0.0000
    28 C11      9.9490   6.6370   6.2324   C.ar      1 RES1   0.0000
    29 H11     10.5082   7.3778   6.2834   H         1 RES1   0.0000
    30 C12      4.7713  -0.1892   2.0332   C.ar      1 RES1   0.0000
    31 H12      4.3094  -0.6296   1.3571   H         1 RES1   0.0000
    32 C13      8.8261   4.7471   7.2605   C.ar      1 RES1   0.0000
    33 C14      5.7892  -0.1641   4.1875   C.ar      1 RES1   0.0000
    34 H13      6.0114  -0.6126   4.9719   H         1 RES1   0.0000
    35 C15     10.9653   2.0080   3.4258   C.ar      1 RES1   0.0000
    36 H14     11.2067   2.2624   2.5633   H         1 RES1   0.0000
    37 C16      5.1455   3.8968   3.7853   C.ar      1 RES1   0.0000
    38 C17      4.4153   4.1297   5.9598   C.ar      1 RES1   0.0000
    39 H15      4.5432   3.9866   6.8706   H         1 RES1   0.0000
    40 C18     12.0354   0.3167   7.8017   C.ar      1 RES1   0.0000
    41 H16     12.6521   0.0161   8.4301   H         1 RES1   0.0000
    42 C19      4.0388   4.5545   3.2909   C.ar      1 RES1   0.0000
    43 H17      3.9351   4.6958   2.3769   H         1 RES1   0.0000
    44 C20      9.8835   5.4327   9.7572   C.ar      1 RES1   0.0000
    45 H18     10.2343   5.6470  10.5907   H         1 RES1   0.0000
    46 C21      3.0819   5.0009   4.1966   C.ar      1 RES1   0.0000
    47 H19      2.3197   5.4415   3.8966   H         1 RES1   0.0000
    48 C22     11.5241   1.1407   5.5856   C.ar      1 RES1   0.0000
    49 C23      9.6658   5.8794   7.3930   C.ar      1 RES1   0.0000
    50 C24      3.2760   4.7815   5.5493   C.ar      1 RES1   0.0000
    51 H20      2.6465   5.0705   6.1703   H         1 RES1   0.0000
    52 C25      9.0364   4.3332   9.6231   C.ar      1 RES1   0.0000
    53 H21      8.8286   3.8245  10.3724   H         1 RES1   0.0000
    54 C26     10.1515   1.2658   5.9465   C.ar      1 RES1   0.0000
    55 C27      5.0927  -0.8415   3.2062   C.ar      1 RES1   0.0000
    56 H22      4.8415  -1.7280   3.3351   H         1 RES1   0.0000
    57 C28      9.6234   2.1168   3.8534   C.ar      1 RES1   0.0000
    58 C29     12.4549   0.6740   6.5461   C.ar      1 RES1   0.0000
    59 H23     13.3551   0.6087   6.3231   H         1 RES1   0.0000
    60 C30     10.2020   6.1996   8.6694   C.ar      1 RES1   0.0000
    61 H24     10.7685   6.9305   8.7654   H         1 RES1   0.0000
    62 C31     11.9017   1.5289   4.2879   C.ar      1 RES1   0.0000
    63 H25     12.7892   1.4581   4.0196   H         1 RES1   0.0000
    64 Cl2      7.0628   3.4495  -1.0860   Cl        2 RES2   0.0000
    65 O1       5.7008   3.3719  -0.6424   O.2       2 RES2   0.0000
    66 O2       7.9342   3.3028   0.0248   O.2       2 RES2   0.0000
    67 O3       7.2808   4.6948  -1.7521   O.2       2 RES2   0.0000
    68 O4       7.3143   2.3859  -2.0213   O.3       2 RES2  -1.0000
    69 Cl3      1.7067   0.3088  -0.0085   Cl        3 RES3   0.0000
    70 Cl4      0.9124   1.2065  -2.6457   Cl        3 RES3   0.0000
    71 Cl5      2.3334   2.9806  -0.8623   Cl        3 RES3   0.0000
    72 C32      1.1559   1.6829  -0.9638   C.3       3 RES3   0.0000
    73 H26      0.3034   2.0005  -0.5992   H         3 RES3   0.0000
    74 Cl6      7.3541   1.0339  10.5091   Cl        4 RES4   0.0000
    75 Cl7      7.4768   0.9435  13.3953   Cl        4 RES4   0.0000
    76 Cl8      9.9173   0.9615  11.8527   Cl        4 RES4   0.0000
    77 C33      8.2331   0.4234  11.8964   C.3       4 RES4   0.0000
    78 H27      8.2185  -0.5552  11.8664   H         4 RES4   0.0000
@<TRIPOS>BOND
     1     1     2    1
     2     3     1    1
     3     4     5    1
     4     6     3    1
     5     7     6    1
     6     8     6    1
     7     9     4   ar
     8    10     1    1
     9    11     1    1
    10    12     1    1
    11    13    12   ar
    12    14     3    1
    13    15    14    1
    14    16    13   ar
    15    17    16    1
    16    18     3    1
    17    19    18    1
    18    20    18    1
    19    21    22    1
    20    23    24    1
    21    25    21   ar
    22    26    25    1
    23    27     1    1
    24    28    16   ar
    25    29    28    1
    26    30     4   ar
    27    31    30    1
    28    32    12   ar
    29    33    10   ar
    30    34    33    1
    31    35    36    1
    32    37    11   ar
    33    38    11   ar
    34    39    38    1
    35    40    25   ar
    36    41    40    1
    37    42    37   ar
    38    43    42    1
    39    44    45    1
    40    46    42   ar
    41    47    46    1
    42    48    54   ar
    43    49    28   ar
    44    50    38   ar
    45    51    50    1
    46    52    23   ar
    47    53    52    1
    48    54    21   ar
    49    55    30   ar
    50    56    55    1
    51    57     6    1
    52    58    40   ar
    53    59    58    1
    54    60    44   ar
    55    61    60    1
    56    62    35   ar
    57    63    62    1
    58     9    10   ar
    59     9    14    1
    60    13    18    1
    61    14    37    1
    62    23    32   ar
    63    27    54   ar
    64    27    57   ar
    65    32    49   ar
    66    33    55   ar
    67    35    57   ar
    68    44    52   ar
    69    46    50   ar
    70    48    58   ar
    71    48    62   ar
    72    49    60   ar
    73    64    65    2
    74    66    64    2
    75    67    64    2
    76    68    64    1
    77    69    72    1
    78    70    72    1
    79    71    72    1
    80    72    73    1
    81    74    77    1
    82    75    77    1
    83    76    77    1
    84    77    78    1
@<TRIPOS>SUBSTRUCTURE
     1 RES1        1 GROUP             0 ****  ****    0  
     2 RES2       64 GROUP             0 ****  ****    0  
     3 RES3       69 GROUP             0 ****  ****    0  
     4 RES4       74 GROUP             0 ****  ****    0  
@<TRIPOS>CRYSIN
    9.6850    9.7460   20.3011   92.2266  101.5632   98.3455     2     1
