@<TRIPOS>MOLECULE
OGIJEU
    94    97     8     0     0
SMALL
USER_CHARGES
****
Generated from the CSD

@<TRIPOS>ATOM
     1 N1       2.7870  -0.2798   4.4167   N.pl3     1 RES1   0.0000
     2 H1       2.9203  -0.0354   3.5957   H         1 RES1   0.0000
     3 N2       3.0267   0.5130   5.4753   N.2       1 RES1   0.0000
     4 N3       3.3489   1.6291   7.8068   N.ar      1 RES1   0.0000
     5 N4       4.4815   3.9478   7.4370   N.2       1 RES1   0.0000
     6 N5       5.1915   5.0933   7.5102   N.pl3     1 RES1   0.0000
     7 H2       5.2681   5.5684   6.7519   H         1 RES1   0.0000
     8 N6       6.9118   1.2027   5.9412   N.pl3     1 RES1   0.0000
     9 H3       6.9327   1.0364   6.8568   H         1 RES1   0.0000
    10 N7       5.8730   1.8619   5.3848   N.2       1 RES1   0.0000
    11 N8       4.0948   3.0461   3.8819   N.ar      1 RES1   0.0000
    12 N9       1.9852   3.5306   5.3454   N.2       1 RES1   0.0000
    13 N10      0.7941   3.8908   5.8833   N.pl3     1 RES1   0.0000
    14 H4       0.6337   3.6789   6.7377   H         1 RES1   0.0000
    15 Fe1      3.8589   2.5132   5.9304   Fe        1 RES1   2.0000
    16 C1       2.2078  -1.4380   4.7666   C.2       1 RES1   0.0000
    17 H5       1.9547  -2.1420   4.1827   H         1 RES1   0.0000
    18 C2       2.0507  -1.4126   6.1346   C.2       1 RES1   0.0000
    19 H6       1.6702  -2.0881   6.6838   H         1 RES1   0.0000
    20 C3       2.5666  -0.1856   6.5401   C.2       1 RES1   0.0000
    21 C4       2.7172   0.4477   7.8474   C.ar      1 RES1   0.0000
    22 C5       2.2637  -0.0932   9.0511   C.ar      1 RES1   0.0000
    23 H7       1.8048  -0.9240   9.0715   H         1 RES1   0.0000
    24 C6       2.5032   0.6187  10.2115   C.ar      1 RES1   0.0000
    25 H8       2.2139   0.2679  11.0452   H         1 RES1   0.0000
    26 C7       3.1531   1.8271  10.1735   C.ar      1 RES1   0.0000
    27 H9       3.3096   2.3191  10.9715   H         1 RES1   0.0000
    28 C8       3.5799   2.3184   8.9374   C.ar      1 RES1   0.0000
    29 C9       4.2985   3.5723   8.7176   C.2       1 RES1   0.0000
    30 C10      4.8864   4.4830   9.5908   C.2       1 RES1   0.0000
    31 H10      4.8918   4.4550  10.5405   H         1 RES1   0.0000
    32 C11      5.4556   5.4281   8.7783   C.2       1 RES1   0.0000
    33 H11      5.9504   6.1874   9.0659   H         1 RES1   0.0000
    34 C12      7.8578   0.9240   5.0170   C.2       1 RES1   0.0000
    35 H12      8.6791   0.4743   5.1752   H         1 RES1   0.0000
    36 C13      7.4226   1.4047   3.8135   C.2       1 RES1   0.0000
    37 H13      7.8671   1.3521   2.9747   H         1 RES1   0.0000
    38 C14      6.1807   1.9913   4.0849   C.2       1 RES1   0.0000
    39 C15      5.2218   2.6789   3.2282   C.ar      1 RES1   0.0000
    40 C16      5.3828   2.9302   1.8829   C.ar      1 RES1   0.0000
    41 H14      6.1858   2.6841   1.4406   H         1 RES1   0.0000
    42 C17      4.3597   3.5457   1.1887   C.ar      1 RES1   0.0000
    43 H15      4.4517   3.7236   0.2609   H         1 RES1   0.0000
    44 C18      3.1877   3.9046   1.8602   C.ar      1 RES1   0.0000
    45 H16      2.4722   4.3241   1.3980   H         1 RES1   0.0000
    46 C19      3.0938   3.6356   3.2132   C.ar      1 RES1   0.0000
    47 C20      1.9178   3.9230   4.0628   C.2       1 RES1   0.0000
    48 C21      0.6884   4.5245   3.7786   C.2       1 RES1   0.0000
    49 H17      0.3907   4.8800   2.9492   H         1 RES1   0.0000
    50 C22      0.0104   4.4835   4.9716   C.2       1 RES1   0.0000
    51 H18     -0.8654   4.8184   5.1242   H         1 RES1   0.0000
    52 O1       4.5169  -2.1517  13.4831   O.3       2 RES2   0.0000
    53 H19      4.1014  -2.5917  14.0228   H         2 RES2   0.0000
    54 O2       5.9401  -1.8281  15.1749   O.2       2 RES2   0.0000
    55 O3       6.7271   4.1712  12.4722   O.co2     2 RES2   0.0000
    56 O4       4.7944   3.3817  13.1961   O.co2     2 RES2  -1.0000
    57 O5       7.2698   0.7016   8.5311   O.co2     2 RES2   0.0000
    58 O6       6.6404  -1.3850   8.9632   O.co2     2 RES2  -1.0000
    59 C23      6.3346  -0.6620  13.1224   C.3       2 RES2   0.0000
    60 H20      7.2999  -0.6745  13.3819   H         2 RES2   0.0000
    61 C24      5.7864   0.7450  13.4043   C.3       2 RES2   0.0000
    62 H21      4.8309   0.7807  13.1493   H         2 RES2   0.0000
    63 H22      5.8520   0.9332  14.3744   H         2 RES2   0.0000
    64 C25      6.5531   1.8079  12.6332   C.3       2 RES2   0.0000
    65 H23      7.4982   1.8094  12.9594   H         2 RES2   0.0000
    66 C26      6.5652   1.4769  11.1258   C.3       2 RES2   0.0000
    67 H24      5.6514   1.6000  10.7645   H         2 RES2   0.0000
    68 H25      7.1613   2.1174  10.6624   H         2 RES2   0.0000
    69 C27      7.0317   0.0533  10.8169   C.3       2 RES2   0.0000
    70 H26      7.9910  -0.0139  11.0934   H         2 RES2   0.0000
    71 C28      6.2459  -0.9698  11.6362   C.3       2 RES2   0.0000
    72 H27      5.2975  -0.9594  11.3543   H         2 RES2   0.0000
    73 H28      6.6072  -1.8756  11.4649   H         2 RES2   0.0000
    74 C29      5.5953  -1.6260  14.0287   C.2       2 RES2   0.0000
    75 C30      5.9905   3.2188  12.7957   C.2       2 RES2   0.0000
    76 C31      6.9641  -0.2348   9.3137   C.2       2 RES2   0.0000
    77 O7       0.3164   3.1221   8.4814   O.3       3 RES3   0.0000
    78 H29      0.4901   3.4417   9.1963   H         3 RES3   0.0000
    79 H30     -0.0474   2.4023   8.6547   H         3 RES3   0.0000
    80 O8       0.9861   3.9618  11.4556   O.3       4 RES4   0.0000
    81 H31      0.2541   4.1101  11.7230   H         4 RES4   0.0000
    82 H32      1.2872   3.3139  11.9073   H         4 RES4   0.0000
    83 O9       6.4498   6.7283  13.3547   O.3       5 RES5   0.0000
    84 H33      6.4959   5.8641  13.1890   H         5 RES5   0.0000
    85 H34      6.0663   6.9251  12.6389   H         5 RES5   0.0000
    86 O10      0.5104   7.8365  12.3675   O.3       6 RES6   0.0000
    87 H35      0.8935   8.0692  13.0586   H         6 RES6   0.0000
    88 H36     -0.1921   7.5118  12.5652   H         6 RES6   0.0000
    89 O11      3.1394   5.6346  13.1105   O.3       7 RES7   0.0000
    90 H37      2.4839   5.3128  12.6758   H         7 RES7   0.0000
    91 H38      3.7024   5.0972  13.1579   H         7 RES7   0.0000
    92 O12      4.2105   7.9922  13.2996   O.3       8 RES8   0.0000
    93 H39      3.4910   7.5303  13.3847   H         8 RES8   0.0000
    94 H40      4.1027   8.5312  13.9519   H         8 RES8   0.0000
@<TRIPOS>BOND
     1     1     2    1
     2     3     1    1
     3     4    15    1
     4     5     6    1
     5     6     7    1
     6     8     9    1
     7    10     8    1
     8    11    15    1
     9    12    13    1
    10    13    14    1
    11    15     3    1
    12    16     1    1
    13    17    16    1
    14    18    16    2
    15    19    18    1
    16    20     3    2
    17    21     4   ar
    18    22    21   ar
    19    23    22    1
    20    24    22   ar
    21    25    24    1
    22    26    24   ar
    23    27    26    1
    24    28     4   ar
    25    29     5    2
    26    30    29    1
    27    31    30    1
    28    32     6    1
    29    33    32    1
    30    34     8    1
    31    35    34    1
    32    36    34    2
    33    37    36    1
    34    38    10    2
    35    39    11   ar
    36    40    39   ar
    37    41    40    1
    38    42    40   ar
    39    43    42    1
    40    44    42   ar
    41    45    44    1
    42    46    11   ar
    43    47    12    2
    44    48    47    1
    45    49    48    1
    46    50    13    1
    47    51    50    1
    48     5    15    1
    49    10    15    1
    50    12    15    1
    51    18    20    1
    52    20    21    1
    53    26    28   ar
    54    28    29    1
    55    30    32    2
    56    36    38    1
    57    38    39    1
    58    44    46   ar
    59    46    47    1
    60    48    50    2
    61    52    53    1
    62    54    74    2
    63    55    75    2
    64    56    75    1
    65    57    76    2
    66    58    76    1
    67    59    60    1
    68    61    59    1
    69    62    61    1
    70    63    61    1
    71    64    61    1
    72    65    64    1
    73    66    64    1
    74    67    66    1
    75    68    66    1
    76    69    66    1
    77    70    69    1
    78    71    59    1
    79    72    71    1
    80    73    71    1
    81    74    52    1
    82    75    64    1
    83    76    69    1
    84    59    74    1
    85    69    71    1
    86    77    78    1
    87    79    77    1
    88    80    81    1
    89    82    80    1
    90    83    84    1
    91    85    83    1
    92    86    87    1
    93    88    86    1
    94    89    90    1
    95    91    89    1
    96    92    93    1
    97    94    92    1
@<TRIPOS>SUBSTRUCTURE
     1 RES1        1 GROUP             0 ****  ****    0  
     2 RES2       52 GROUP             0 ****  ****    0  
     3 RES3       77 GROUP             0 ****  ****    0  
     4 RES4       80 GROUP             0 ****  ****    0  
     5 RES5       83 GROUP             0 ****  ****    0  
     6 RES6       86 GROUP             0 ****  ****    0  
     7 RES7       89 GROUP             0 ****  ****    0  
     8 RES8       92 GROUP             0 ****  ****    0  
@<TRIPOS>CRYSIN
    8.2910   15.3993   28.3620   90.0000   91.0270   90.0000   231     1
