@<TRIPOS>MOLECULE
OGIWUX
   177   181     2     0     0
SMALL
USER_CHARGES
****
Generated from the CSD

@<TRIPOS>ATOM
     1 Fe1      5.3590   9.8671  11.9943   Fe        1 RES1   1.0000
     2 P1       5.8826  10.1947   9.8508   P.3       1 RES1   0.0000
     3 P2       4.3026   8.0503  11.2256   P.3       1 RES1   0.0000
     4 P3       5.1995   9.2847  14.1411   P.3       1 RES1   0.0000
     5 P4       6.7402  11.4559  12.7516   P.3       1 RES1   0.0000
     6 N1       3.8558  10.9167  11.9668   N.1       1 RES1   0.0000
     7 N2       2.9325  11.5364  11.9407   N.1       1 RES1   0.0000
     8 O1      10.4759  10.2731   9.9475   O.3       1 RES1   0.0000
     9 O2       3.4149  12.3262   6.8236   O.3       1 RES1   0.0000
    10 O3       6.8318   4.8008   9.1277   O.3       1 RES1   0.0000
    11 O4      -0.8065   8.3938  12.3280   O.3       1 RES1   0.0000
    12 O5       7.3294   5.2401  13.3866   O.3       1 RES1   0.0000
    13 O6       1.7119  10.8181  16.6352   O.3       1 RES1   0.0000
    14 O7      11.7500  12.1408  14.2505   O.3       1 RES1   0.0000
    15 O8       4.5779  16.0952  11.3496   O.3       1 RES1   0.0000
    16 C1       5.1300   8.8726   8.8016   C.3       1 RES1   0.0000
    17 C2       3.8442   8.4215   9.4828   C.3       1 RES1   0.0000
    18 C3       6.2319  10.4073  15.1859   C.3       1 RES1   0.0000
    19 C4       6.2926  11.7679  14.5091   C.3       1 RES1   0.0000
    20 C5       7.6263  10.2333   9.2977   C.3       1 RES1   0.0000
    21 C6       8.4629   9.0218   9.7083   C.3       1 RES1   0.0000
    22 C7       9.9075   9.1596   9.2808   C.3       1 RES1   0.0000
    23 C8      11.8304  10.4740   9.5853   C.3       1 RES1   0.0000
    24 C9       5.1396  11.6853   9.0727   C.3       1 RES1   0.0000
    25 C10      5.5651  12.0129   7.6487   C.3       1 RES1   0.0000
    26 H1       6.4771  12.3979   7.6644   H         1 RES1   0.0000
    27 H2       5.5999  11.1759   7.1206   H         1 RES1   0.0000
    28 C11      4.6279  12.9859   6.9712   C.3       1 RES1   0.0000
    29 H3       4.5140  13.7995   7.5252   H         1 RES1   0.0000
    30 H4       4.9861  13.2527   6.0874   H         1 RES1   0.0000
    31 C12      2.4963  13.1233   6.0826   C.3       1 RES1   0.0000
    32 H5       1.6534  12.6355   5.9754   H         1 RES1   0.0000
    33 H6       2.8735  13.3212   5.1997   H         1 RES1   0.0000
    34 H7       2.3293  13.9616   6.5624   H         1 RES1   0.0000
    35 C13      5.3525   6.5548  11.0444   C.3       1 RES1   0.0000
    36 H8       6.1463   6.8319  10.6729   H         1 RES1   0.0000
    37 H9       5.5476   6.2025  11.9364   H         1 RES1   0.0000
    38 C14      4.7968   5.4064  10.2099   C.3       1 RES1   0.0000
    39 C15      5.8236   4.3136   9.9895   C.3       1 RES1   0.0000
    40 C16      7.7595   3.7847   8.7872   C.3       1 RES1   0.0000
    41 C17      2.7581   7.3637  11.9415   C.3       1 RES1   0.0000
    42 C18      1.5222   8.2404  11.8422   C.3       1 RES1   0.0000
    43 C19      0.3317   7.5896  12.5053   C.3       1 RES1   0.0000
    44 H10      0.1754   6.6954  12.1092   H         1 RES1   0.0000
    45 H11      0.5106   7.4720  13.4719   H         1 RES1   0.0000
    46 C20     -2.0037   7.7302  12.6450   C.3       1 RES1   0.0000
    47 H12     -2.7610   8.3353  12.5010   H         1 RES1   0.0000
    48 H13     -1.9833   7.4491  13.5838   H         1 RES1   0.0000
    49 H14     -2.1015   6.9420  12.0708   H         1 RES1   0.0000
    50 C21      5.7165   7.5976  14.6569   C.3       1 RES1   0.0000
    51 C22      7.1974   7.3473  14.5850   C.3       1 RES1   0.0000
    52 C23      7.6023   5.8849  14.6009   C.3       1 RES1   0.0000
    53 C24      8.4271   5.5797  12.4450   C.3       1 RES1   0.0000
    54 H15      8.3437   6.5170  12.1715   H         1 RES1   0.0000
    55 H16      8.3707   5.0019  11.6565   H         1 RES1   0.0000
    56 H17      9.2910   5.4453  12.8881   H         1 RES1   0.0000
    57 C25      3.5307   9.4804  14.8843   C.3       1 RES1   0.0000
    58 C26      3.3951   9.2266  16.3684   C.3       1 RES1   0.0000
    59 H18      4.0278   9.8089  16.8594   H         1 RES1   0.0000
    60 H19      3.6368   8.2849  16.5619   H         1 RES1   0.0000
    61 C27      1.9894   9.4911  16.8642   C.3       1 RES1   0.0000
    62 H20      1.3428   8.9183  16.3796   H         1 RES1   0.0000
    63 H21      1.9230   9.2896  17.8303   H         1 RES1   0.0000
    64 C28      0.4969  11.2351  17.2305   C.3       1 RES1   0.0000
    65 H22      0.3620  12.1911  17.0609   H         1 RES1   0.0000
    66 H23      0.5365  11.0770  18.1965   H         1 RES1   0.0000
    67 H24     -0.2466  10.7277  16.8466   H         1 RES1   0.0000
    68 C29      8.5064  10.9521  12.8631   C.3       1 RES1   0.0000
    69 C30      9.4369  11.7772  13.7526   C.3       1 RES1   0.0000
    70 C31     10.8467  11.2332  13.6572   C.3       1 RES1   0.0000
    71 C32     13.1000  11.8031  13.9101   C.3       1 RES1   0.0000
    72 H25     13.7123  12.4442  14.3291   H         1 RES1   0.0000
    73 H26     13.2105  11.8368  12.9361   H         1 RES1   0.0000
    74 H27     13.3026  10.9007  14.2300   H         1 RES1   0.0000
    75 C33      6.8563  13.1315  12.0116   C.3       1 RES1   0.0000
    76 C34      5.6032  13.9928  12.1365   C.3       1 RES1   0.0000
    77 C35      5.7425  15.2775  11.3258   C.3       1 RES1   0.0000
    78 C36      4.4652  16.8308  12.5122   C.3       1 RES1   0.0000
    79 H28      3.6498  17.3731  12.4770   H         1 RES1   0.0000
    80 H29      5.2443  17.4168  12.6034   H         1 RES1   0.0000
    81 H30      4.4206  16.2226  13.2799   H         1 RES1   0.0000
    82 H31      6.4817   9.0402  11.9844   H         1 RES1   0.0000
    83 H32      5.7680   8.1636   8.7216   H         1 RES1   0.0000
    84 H33      4.9862   9.2279   7.9747   H         1 RES1   0.0000
    85 H34      3.3845   7.6852   9.0959   H         1 RES1   0.0000
    86 H35      3.2029   9.1206   9.5149   H         1 RES1   0.0000
    87 H36      7.0592   9.9797  15.2360   H         1 RES1   0.0000
    88 H37      5.8561  10.4373  16.0277   H         1 RES1   0.0000
    89 H38      6.9298  12.3814  14.9721   H         1 RES1   0.0000
    90 H39      5.3899  12.2566  14.4619   H         1 RES1   0.0000
    91 H40      7.5645  10.3052   8.3185   H         1 RES1   0.0000
    92 H41      8.0252  11.0359   9.6285   H         1 RES1   0.0000
    93 H42      8.4389   8.9128  10.6313   H         1 RES1   0.0000
    94 H43      8.1086   8.1734   9.3198   H         1 RES1   0.0000
    95 H44     10.0116   9.2781   8.3153   H         1 RES1   0.0000
    96 H45     10.4068   8.3504   9.5533   H         1 RES1   0.0000
    97 H46     12.1758  11.2049  10.1723   H         1 RES1   0.0000
    98 H47     12.3362   9.6654   9.8684   H         1 RES1   0.0000
    99 H48     11.8547  10.5522   8.6528   H         1 RES1   0.0000
   100 H49      4.2017  11.4594   9.1326   H         1 RES1   0.0000
   101 H50      5.1803  12.4480   9.6669   H         1 RES1   0.0000
   102 H51      4.0413   5.0309  10.6345   H         1 RES1   0.0000
   103 H52      4.5092   5.7335   9.4205   H         1 RES1   0.0000
   104 H53      6.2507   4.0590  10.8104   H         1 RES1   0.0000
   105 H54      5.4402   3.5533   9.5949   H         1 RES1   0.0000
   106 H55      8.4243   4.0817   8.3169   H         1 RES1   0.0000
   107 H56      7.2689   3.0998   8.3809   H         1 RES1   0.0000
   108 H57      8.1964   3.5764   9.5805   H         1 RES1   0.0000
   109 H58      2.6202   6.6230  11.4902   H         1 RES1   0.0000
   110 H59      2.9338   7.1857  12.8033   H         1 RES1   0.0000
   111 H60      1.3087   8.3738  10.8920   H         1 RES1   0.0000
   112 H61      1.6658   9.0270  12.2099   H         1 RES1   0.0000
   113 H62      5.2355   6.9698  14.1420   H         1 RES1   0.0000
   114 H63      5.3863   7.4115  15.5031   H         1 RES1   0.0000
   115 H64      7.5381   7.6682  13.8653   H         1 RES1   0.0000
   116 H65      7.5799   7.7615  15.4343   H         1 RES1   0.0000
   117 H66      8.4501   5.7691  14.7626   H         1 RES1   0.0000
   118 H67      7.0143   5.2598  15.1624   H         1 RES1   0.0000
   119 H68      2.9067   8.8861  14.4267   H         1 RES1   0.0000
   120 H69      3.2447  10.3622  14.7546   H         1 RES1   0.0000
   121 H70      8.8314  10.9449  11.9204   H         1 RES1   0.0000
   122 H71      8.4753  10.0402  13.1648   H         1 RES1   0.0000
   123 H72      9.4624  12.6136  13.4767   H         1 RES1   0.0000
   124 H73      9.1021  11.7445  14.7130   H         1 RES1   0.0000
   125 H74     11.0956  11.1125  12.6817   H         1 RES1   0.0000
   126 H75     10.9097  10.4373  14.0796   H         1 RES1   0.0000
   127 H76      7.1188  12.9710  11.0743   H         1 RES1   0.0000
   128 H77      7.5601  13.5365  12.3587   H         1 RES1   0.0000
   129 H78      5.4416  14.1715  13.0656   H         1 RES1   0.0000
   130 H79      4.8516  13.5087  11.8405   H         1 RES1   0.0000
   131 H80      6.5385  15.8115  11.6965   H         1 RES1   0.0000
   132 H81      5.7338  14.9203  10.2810   H         1 RES1   0.0000
   133 B1       0.0835   2.6179  12.1698   B         2 RES2  -1.0000
   134 C37      0.2029   1.2021  11.3483   C.ar      2 RES2   0.0000
   135 C38     -0.5498   0.9524  10.1980   C.ar      2 RES2   0.0000
   136 C39     -0.5518  -0.2840   9.5567   C.ar      2 RES2   0.0000
   137 C40      0.2249  -1.3169  10.0379   C.ar      2 RES2   0.0000
   138 C41      0.9858  -1.1114  11.1591   C.ar      2 RES2   0.0000
   139 C42      0.9734   0.1219  11.8045   C.ar      2 RES2   0.0000
   140 C43      1.5254   3.0835  12.8155   C.ar      2 RES2   0.0000
   141 C44      2.7682   2.6683  12.3112   C.ar      2 RES2   0.0000
   142 C45      3.9764   3.1570  12.8081   C.ar      2 RES2   0.0000
   143 C46      3.9816   4.0905  13.8253   C.ar      2 RES2   0.0000
   144 C47      2.7908   4.5296  14.3339   C.ar      2 RES2   0.0000
   145 C48      1.5880   4.0255  13.8479   C.ar      2 RES2   0.0000
   146 C49     -1.0197   2.4133  13.3858   C.ar      2 RES2   0.0000
   147 C50     -1.2723   1.1563  13.9619   C.ar      2 RES2   0.0000
   148 C51     -2.2158   0.9481  14.9679   C.ar      2 RES2   0.0000
   149 C52     -2.9497   2.0066  15.4497   C.ar      2 RES2   0.0000
   150 C53     -2.7252   3.2678  14.9430   C.ar      2 RES2   0.0000
   151 C54     -1.7735   3.4596  13.9379   C.ar      2 RES2   0.0000
   152 C55     -0.3749   3.7996  11.1130   C.ar      2 RES2   0.0000
   153 C56     -1.7127   4.1429  10.8557   C.ar      2 RES2   0.0000
   154 C57     -2.0700   5.1301   9.9452   C.ar      2 RES2   0.0000
   155 C58     -1.1040   5.8133   9.2317   C.ar      2 RES2   0.0000
   156 C59      0.2202   5.4735   9.4159   C.ar      2 RES2   0.0000
   157 C60      0.5629   4.4897  10.3380   C.ar      2 RES2   0.0000
   158 H82     -1.1335   1.6549   9.8444   H         2 RES2   0.0000
   159 H83     -1.0316  -0.4195   8.8048   H         2 RES2   0.0000
   160 H84      0.3045  -2.0572   9.6445   H         2 RES2   0.0000
   161 H85      1.4857  -1.7545  11.4998   H         2 RES2   0.0000
   162 H86      1.4878   0.2404  12.5506   H         2 RES2   0.0000
   163 H87      2.8008   2.0209  11.6565   H         2 RES2   0.0000
   164 H88      4.7391   2.6821  12.4274   H         2 RES2   0.0000
   165 H89      4.7101   4.4352  14.1868   H         2 RES2   0.0000
   166 H90      2.7284   5.1345  15.0025   H         2 RES2   0.0000
   167 H91      0.8167   4.3634  14.2460   H         2 RES2   0.0000
   168 H92     -0.7907   0.4188  13.6750   H         2 RES2   0.0000
   169 H93     -2.3474   0.0358  15.3864   H         2 RES2   0.0000
   170 H94     -3.5321   1.8958  16.0437   H         2 RES2   0.0000
   171 H95     -3.2442   4.0320  15.3096   H         2 RES2   0.0000
   172 H96     -1.6582   4.3157  13.6126   H         2 RES2   0.0000
   173 H97     -2.4167   3.7355  11.3270   H         2 RES2   0.0000
   174 H98     -2.9308   5.3166   9.8332   H         2 RES2   0.0000
   175 H99     -1.3917   6.4687   8.6048   H         2 RES2   0.0000
   176 H100     0.8632   5.9708   8.9695   H         2 RES2   0.0000
   177 H101     1.4779   4.2923  10.4250   H         2 RES2   0.0000
@<TRIPOS>BOND
     1     1     2    1
     2     2    16    1
     3     3     1    1
     4     4     1    1
     5     5     1    1
     6     6     1    1
     7     7     6    3
     8     8    22    1
     9     9    28    1
    10    10    39    1
    11    11    43    1
    12    12    52    1
    13    13    61    1
    14    14    70    1
    15    15    77    1
    16    16    17    1
    17    17     3    1
    18    18     4    1
    19    19     5    1
    20    20     2    1
    21    21    20    1
    22    22    21    1
    23    23     8    1
    24    24     2    1
    25    25    24    1
    26    26    25    1
    27    27    25    1
    28    28    25    1
    29    29    28    1
    30    30    28    1
    31    31     9    1
    32    32    31    1
    33    33    31    1
    34    34    31    1
    35    35     3    1
    36    36    35    1
    37    37    35    1
    38    38    35    1
    39    39    38    1
    40    40    10    1
    41    41     3    1
    42    42    41    1
    43    43    42    1
    44    44    43    1
    45    45    43    1
    46    46    11    1
    47    47    46    1
    48    48    46    1
    49    49    46    1
    50    50     4    1
    51    51    50    1
    52    52    51    1
    53    53    12    1
    54    54    53    1
    55    55    53    1
    56    56    53    1
    57    57     4    1
    58    58    57    1
    59    59    58    1
    60    60    58    1
    61    61    58    1
    62    62    61    1
    63    63    61    1
    64    64    13    1
    65    65    64    1
    66    66    64    1
    67    67    64    1
    68    68     5    1
    69    69    68    1
    70    70    69    1
    71    71    14    1
    72    72    71    1
    73    73    71    1
    74    74    71    1
    75    75     5    1
    76    76    75    1
    77    77    76    1
    78    78    15    1
    79    79    78    1
    80    80    78    1
    81    81    78    1
    82    82     1    1
    83    83    16    1
    84    84    16    1
    85    85    17    1
    86    86    17    1
    87    87    18    1
    88    88    18    1
    89    89    19    1
    90    90    19    1
    91    91    20    1
    92    92    20    1
    93    93    21    1
    94    94    21    1
    95    95    22    1
    96    96    22    1
    97    97    23    1
    98    98    23    1
    99    99    23    1
   100   100    24    1
   101   101    24    1
   102   102    38    1
   103   103    38    1
   104   104    39    1
   105   105    39    1
   106   106    40    1
   107   107    40    1
   108   108    40    1
   109   109    41    1
   110   110    41    1
   111   111    42    1
   112   112    42    1
   113   113    50    1
   114   114    50    1
   115   115    51    1
   116   116    51    1
   117   117    52    1
   118   118    52    1
   119   119    57    1
   120   120    57    1
   121   121    68    1
   122   122    68    1
   123   123    69    1
   124   124    69    1
   125   125    70    1
   126   126    70    1
   127   127    75    1
   128   128    75    1
   129   129    76    1
   130   130    76    1
   131   131    77    1
   132   132    77    1
   133    18    19    1
   134   133   134    1
   135   134   135   ar
   136   135   136   ar
   137   136   137   ar
   138   137   138   ar
   139   138   139   ar
   140   139   134   ar
   141   140   133    1
   142   141   140   ar
   143   142   141   ar
   144   143   142   ar
   145   144   143   ar
   146   145   140   ar
   147   146   133    1
   148   147   146   ar
   149   148   147   ar
   150   149   148   ar
   151   150   149   ar
   152   151   146   ar
   153   152   133    1
   154   153   152   ar
   155   154   153   ar
   156   155   154   ar
   157   156   155   ar
   158   157   152   ar
   159   158   135    1
   160   159   136    1
   161   160   137    1
   162   161   138    1
   163   162   139    1
   164   163   141    1
   165   164   142    1
   166   165   143    1
   167   166   144    1
   168   167   145    1
   169   168   147    1
   170   169   148    1
   171   170   149    1
   172   171   150    1
   173   172   151    1
   174   173   153    1
   175   174   154    1
   176   175   155    1
   177   176   156    1
   178   177   157    1
   179   144   145   ar
   180   150   151   ar
   181   156   157   ar
@<TRIPOS>SUBSTRUCTURE
     1 RES1        1 GROUP             0 ****  ****    0  
     2 RES2      133 GROUP             0 ****  ****    0  
@<TRIPOS>CRYSIN
   13.4660   15.4430   16.2190   97.2610   94.1690  104.4080     2     1
