@<TRIPOS>MOLECULE
OHOFIC
   106   109     1     0     0
SMALL
NO_CHARGES
****
Generated from the CSD

@<TRIPOS>ATOM
     1 Fe1     11.3398  16.4283   6.2342   Fe        1 RES1   0.0000
     2 O1      10.7805  18.7408   7.9501   O.2       1 RES1   0.0000
     3 C1      11.0234  17.8301   7.2992   C.1       1 RES1   0.0000
     4 O2       8.6115  16.4450   5.1411   O.2       1 RES1   0.0000
     5 C2       9.6859  16.4398   5.5544   C.1       1 RES1   0.0000
     6 C3      11.9376  15.0531   5.2596   C.1       1 RES1   0.0000
     7 O3      12.2789  14.1451   4.6445   O.2       1 RES1   0.0000
     8 P1      10.8867  15.0189   7.8917   P.3       1 RES1   0.0000
     9 C4      12.1582  14.3548   8.9868   C.3       1 RES1   0.0000
    10 H1      11.7400  13.7796   9.6626   H         1 RES1   0.0000
    11 H2      12.6250  15.0923   9.4309   H         1 RES1   0.0000
    12 H3      12.7991  13.8297   8.4627   H         1 RES1   0.0000
    13 C5      10.0674  13.5000   7.3343   C.3       1 RES1   0.0000
    14 H4       9.8307  12.9523   8.1121   H         1 RES1   0.0000
    15 H5      10.6729  12.9972   6.7532   H         1 RES1   0.0000
    16 H6       9.2546  13.7312   6.8381   H         1 RES1   0.0000
    17 C6       9.6758  15.6674   9.0924   C.3       1 RES1   0.0000
    18 H7       9.4383  14.9627   9.7294   H         1 RES1   0.0000
    19 H8       8.8719  15.9645   8.6180   H         1 RES1   0.0000
    20 H9      10.0688  16.4239   9.5753   H         1 RES1   0.0000
    21 B1      12.5794  17.6974   4.8253   B         1 RES1   0.0000
    22 C7      12.9468  17.1767   3.3480   C.ar      1 RES1   0.0000
    23 C8      14.2952  16.9829   2.9835   C.ar      1 RES1   0.0000
    24 C9      14.6211  16.3250   1.7872   C.ar      1 RES1   0.0000
    25 C10     13.5954  15.8954   0.9585   C.ar      1 RES1   0.0000
    26 H10     13.8132  15.4049   0.1747   H         1 RES1   0.0000
    27 C11     12.2697  16.1554   1.2332   C.ar      1 RES1   0.0000
    28 C12     11.9350  16.8392   2.4108   C.ar      1 RES1   0.0000
    29 C13     15.4323  17.5178   3.8219   C.3       1 RES1   0.0000
    30 H11     16.0332  18.0458   3.2577   H         1 RES1   0.0000
    31 H12     15.9269  16.7694   4.2162   H         1 RES1   0.0000
    32 H13     15.0722  18.0838   4.5365   H         1 RES1   0.0000
    33 C14     16.0548  16.0732   1.4098   C.3       1 RES1   0.0000
    34 H14     16.0901  15.6329   0.5351   H         1 RES1   0.0000
    35 H15     16.4741  15.4964   2.0832   H         1 RES1   0.0000
    36 H16     16.5360  16.9266   1.3650   H         1 RES1   0.0000
    37 C15     11.1811  15.7179   0.2766   C.3       1 RES1   0.0000
    38 H17     10.5363  15.1527   0.7510   H         1 RES1   0.0000
    39 H18     11.5800  15.2097  -0.4611   H         1 RES1   0.0000
    40 H19     10.7222  16.5069  -0.0801   H         1 RES1   0.0000
    41 C16     10.5011  17.2297   2.6134   C.3       1 RES1   0.0000
    42 H20     10.1926  17.7522   1.8442   H         1 RES1   0.0000
    43 H21     10.4209  17.7694   3.4275   H         1 RES1   0.0000
    44 H22      9.9513  16.4222   2.7008   H         1 RES1   0.0000
    45 C17     12.0552  19.1173   4.9445   C.1       1 RES1   0.0000
    46 N1      11.6966  20.2127   5.0082   N.1       1 RES1   0.0000
    47 C18     11.3459  21.5667   5.0436   C.ar      1 RES1   0.0000
    48 C19     10.6260  22.0819   3.9529   C.ar      1 RES1   0.0000
    49 C20     10.2977  23.4286   4.0063   C.ar      1 RES1   0.0000
    50 H23      9.8049  23.8215   3.2953   H         1 RES1   0.0000
    51 C21     10.6785  24.2055   5.0825   C.ar      1 RES1   0.0000
    52 H24     10.4476  25.1273   5.0970   H         1 RES1   0.0000
    53 C22     11.3868  23.6699   6.1392   C.ar      1 RES1   0.0000
    54 H25     11.6249  24.2240   6.8721   H         1 RES1   0.0000
    55 C23     11.7561  22.3313   6.1429   C.ar      1 RES1   0.0000
    56 C24     10.1914  21.1734   2.8197   C.3       1 RES1   0.0000
    57 H26     10.8596  20.4310   2.7687   H         1 RES1   0.0000
    58 C25     10.1798  21.8563   1.4596   C.3       1 RES1   0.0000
    59 H27     11.0427  22.2947   1.3067   H         1 RES1   0.0000
    60 H28      9.4642  22.5261   1.4353   H         1 RES1   0.0000
    61 H29     10.0244  21.1876   0.7595   H         1 RES1   0.0000
    62 C26      8.8624  20.5450   3.1703   C.3       1 RES1   0.0000
    63 H30      8.6499  19.8421   2.5200   H         1 RES1   0.0000
    64 H31      8.1606  21.2307   3.1509   H         1 RES1   0.0000
    65 H32      8.9119  20.1547   4.0682   H         1 RES1   0.0000
    66 C27     12.6062  21.7137   7.2348   C.3       1 RES1   0.0000
    67 H33     12.3353  20.7540   7.3089   H         1 RES1   0.0000
    68 C28     12.3900  22.3396   8.5913   C.3       1 RES1   0.0000
    69 H34     12.9109  21.8525   9.2623   H         1 RES1   0.0000
    70 H35     11.4386  22.2999   8.8218   H         1 RES1   0.0000
    71 H36     12.6812  23.2757   8.5683   H         1 RES1   0.0000
    72 C29     14.0662  21.7299   6.8296   C.3       1 RES1   0.0000
    73 H37     14.5944  21.2428   7.4957   H         1 RES1   0.0000
    74 H38     14.3796  22.6574   6.7774   H         1 RES1   0.0000
    75 H39     14.1680  21.3016   5.9548   H         1 RES1   0.0000
    76 C30     13.2386  17.1815   6.1259   C.1       1 RES1   0.0000
    77 N2      14.3138  17.2136   6.7574   N.2       1 RES1   0.0000
    78 C31     14.6672  16.4851   7.9231   C.ar      1 RES1   0.0000
    79 C32     14.4955  17.0658   9.1967   C.ar      1 RES1   0.0000
    80 C33     14.9474  16.3474  10.3045   C.ar      1 RES1   0.0000
    81 H40     14.8271  16.7124  11.1732   H         1 RES1   0.0000
    82 C34     15.5621  15.1220  10.1722   C.ar      1 RES1   0.0000
    83 H41     15.8571  14.6501  10.9415   H         1 RES1   0.0000
    84 C35     15.7466  14.5833   8.9153   C.ar      1 RES1   0.0000
    85 H42     16.1825  13.7433   8.8291   H         1 RES1   0.0000
    86 C36     15.3088  15.2439   7.7711   C.ar      1 RES1   0.0000
    87 C37     13.8904  18.4462   9.3860   C.3       1 RES1   0.0000
    88 H43     13.5100  18.7401   8.5088   H         1 RES1   0.0000
    89 C38     14.9731  19.4459   9.7925   C.3       1 RES1   0.0000
    90 H44     14.5760  20.3361   9.8907   H         1 RES1   0.0000
    91 H45     15.6684  19.4742   9.1021   H         1 RES1   0.0000
    92 H46     15.3691  19.1685  10.6454   H         1 RES1   0.0000
    93 C39     12.7581  18.4538  10.4210   C.3       1 RES1   0.0000
    94 H47     12.3164  19.3291  10.4149   H         1 RES1   0.0000
    95 H48     13.1293  18.2807  11.3115   H         1 RES1   0.0000
    96 H49     12.1062  17.7573  10.1965   H         1 RES1   0.0000
    97 C40     15.5803  14.6356   6.3965   C.3       1 RES1   0.0000
    98 H50     15.0469  15.1510   5.7243   H         1 RES1   0.0000
    99 C41     15.1460  13.1746   6.3127   C.3       1 RES1   0.0000
   100 H51     15.2935  12.8417   5.4028   H         1 RES1   0.0000
   101 H52     14.1951  13.1043   6.5372   H         1 RES1   0.0000
   102 H53     15.6717  12.6414   6.9449   H         1 RES1   0.0000
   103 C42     17.0533  14.7814   6.0288   C.3       1 RES1   0.0000
   104 H54     17.2032  14.4152   5.1322   H         1 RES1   0.0000
   105 H55     17.6013  14.2909   6.6779   H         1 RES1   0.0000
   106 H56     17.3005  15.7296   6.0422   H         1 RES1   0.0000
@<TRIPOS>BOND
     1     1     3    1
     2     2     3    3
     3     4     5    3
     4     5     1    1
     5     6     1    1
     6     7     6    3
     7     8     1    1
     8     9     8    1
     9    10     9    1
    10    11     9    1
    11    12     9    1
    12    13     8    1
    13    14    13    1
    14    15    13    1
    15    16    13    1
    16    17     8    1
    17    18    17    1
    18    19    17    1
    19    20    17    1
    20    21     1   un
    21    22    21    1
    22    23    22   ar
    23    24    23   ar
    24    25    24   ar
    25    26    25    1
    26    27    25   ar
    27    28    22   ar
    28    29    23    1
    29    30    29    1
    30    31    29    1
    31    32    29    1
    32    33    24    1
    33    34    33    1
    34    35    33    1
    35    36    33    1
    36    37    27    1
    37    38    37    1
    38    39    37    1
    39    40    37    1
    40    41    28    1
    41    42    41    1
    42    43    41    1
    43    44    41    1
    44    45    21    1
    45    46    45    3
    46    47    46    1
    47    48    47   ar
    48    49    48   ar
    49    50    49    1
    50    51    49   ar
    51    52    51    1
    52    53    51   ar
    53    54    53    1
    54    55    47   ar
    55    56    48    1
    56    57    56    1
    57    58    56    1
    58    59    58    1
    59    60    58    1
    60    61    58    1
    61    62    56    1
    62    63    62    1
    63    64    62    1
    64    65    62    1
    65    66    55    1
    66    67    66    1
    67    68    66    1
    68    69    68    1
    69    70    68    1
    70    71    68    1
    71    72    66    1
    72    73    72    1
    73    74    72    1
    74    75    72    1
    75    76     1   un
    76    77    76    2
    77    78    77    1
    78    79    78   ar
    79    80    79   ar
    80    81    80    1
    81    82    80   ar
    82    83    82    1
    83    84    82   ar
    84    85    84    1
    85    86    78   ar
    86    87    79    1
    87    88    87    1
    88    89    87    1
    89    90    89    1
    90    91    89    1
    91    92    89    1
    92    93    87    1
    93    94    93    1
    94    95    93    1
    95    96    93    1
    96    97    86    1
    97    98    97    1
    98    99    97    1
    99   100    99    1
   100   101    99    1
   101   102    99    1
   102   103    97    1
   103   104   103    1
   104   105   103    1
   105   106   103    1
   106    21    76    2
   107    27    28   ar
   108    53    55   ar
   109    84    86   ar
@<TRIPOS>SUBSTRUCTURE
     1 RES1        1 GROUP             0 ****  ****    0  
@<TRIPOS>CRYSIN
   19.0760   17.2720   12.6810   90.0000  106.9070   90.0000    14     1
