@<TRIPOS>MOLECULE
OHOQOS
   115   124     2     0     0
SMALL
USER_CHARGES
****
Generated from the CSD

@<TRIPOS>ATOM
     1 Fe1      7.8487   9.4708  18.3670   Fe        1 RES1   1.0000
     2 O1       8.6453  11.1938  18.5286   O.3       1 RES1   0.0000
     3 O2       9.0879   8.3034  17.5098   O.3       1 RES1   0.0000
     4 N1       6.5952   7.7798  18.5754   N.2       1 RES1   0.0000
     5 C1       8.7967  14.5797  19.7675   C.ar      1 RES1   0.0000
     6 H1       9.4133  15.2745  19.7962   H         1 RES1   0.0000
     7 C2       6.8186  11.4035  16.1430   C.ar      1 RES1   0.0000
     8 H2       7.1012  12.0322  16.7672   H         1 RES1   0.0000
     9 C3       7.8682   6.2446  17.2048   C.ar      1 RES1   0.0000
    10 C5       5.9272  11.4936  19.6323   C.2       1 RES1   0.0000
    11 H4       5.0983  11.7210  19.9869   H         1 RES1   0.0000
    12 C7       4.9227   9.3820  19.1566   C.3       1 RES1   0.0000
    13 H6       4.4955   9.3799  18.2853   H         1 RES1   0.0000
    14 H7       4.2690   9.6503  19.8204   H         1 RES1   0.0000
    15 N2       7.0153  10.0978  16.4165   N.ar      1 RES1   0.0000
    16 C9       7.5317  14.7715  20.3195   C.ar      1 RES1   0.0000
    17 H8       7.3053  15.5784  20.7230   H         1 RES1   0.0000
    18 C11      8.2536  12.3193  19.1178   C.ar      1 RES1   0.0000
    19 C14      5.9933   9.5958  14.3101   C.ar      1 RES1   0.0000
    20 H11      5.7329   8.9482  13.6947   H         1 RES1   0.0000
    21 C15     10.0717   6.5631  16.2702   C.ar      1 RES1   0.0000
    22 H12     10.8290   7.0850  16.1372   H         1 RES1   0.0000
    23 N3       6.0655  10.3031  19.1629   N.2       1 RES1   0.0000
    24 C16      6.7428   6.6312  18.0239   C.2       1 RES1   0.0000
    25 H13      6.0745   5.9993  18.1622   H         1 RES1   0.0000
    26 C17      9.1567  13.3935  19.1839   C.ar      1 RES1   0.0000
    27 H14     10.0097  13.2981  18.8260   H         1 RES1   0.0000
    28 C18      6.6246  13.7382  20.2541   C.ar      1 RES1   0.0000
    29 H15      5.7739  13.8546  20.6144   H         1 RES1   0.0000
    30 C19     10.0181   5.2857  15.7298   C.ar      1 RES1   0.0000
    31 H16     10.7366   4.9682  15.2321   H         1 RES1   0.0000
    32 C20      7.8523   4.9535  16.6492   C.ar      1 RES1   0.0000
    33 H17      7.1088   4.4117  16.7792   H         1 RES1   0.0000
    34 C21      6.6023   9.2217  15.4860   C.ar      1 RES1   0.0000
    35 H18      6.7354   8.3152  15.6449   H         1 RES1   0.0000
    36 C23      9.0008   7.0766  17.0148   C.ar      1 RES1   0.0000
    37 C24      5.7676  10.9455  14.0386   C.ar      1 RES1   0.0000
    38 C25      6.2206  11.8499  14.9903   C.ar      1 RES1   0.0000
    39 H20      6.1187  12.7637  14.8460   H         1 RES1   0.0000
    40 C28      5.4641   8.0082  19.4786   C.3       1 RES1   0.0000
    41 H23      5.7556   7.9684  20.4020   H         1 RES1   0.0000
    42 H24      4.7797   7.3344  19.3401   H         1 RES1   0.0000
    43 C30      6.9585  12.5059  19.6524   C.ar      1 RES1   0.0000
    44 C31      5.0433  11.3636  12.7891   C.3       1 RES1   0.0000
    45 H26      4.7456  12.2816  12.8910   H         1 RES1   0.0000
    46 H27      4.2565  10.8072  12.6810   H         1 RES1   0.0000
    47 C33      5.9042  11.2568  11.5290   C.3       1 RES1   0.0000
    48 H29      6.1924  10.3377  11.4187   H         1 RES1   0.0000
    49 H30      6.6961  11.8048  11.6407   H         1 RES1   0.0000
    50 C35      8.9060   4.4767  15.9202   C.ar      1 RES1   0.0000
    51 H32      8.8787   3.6206  15.5580   H         1 RES1   0.0000
    52 C43      4.2243  10.6490   9.7255   C.ar      1 RES1   0.0000
    53 C44      3.0351  10.3189  10.3685   C.ar      1 RES1   0.0000
    54 H38      2.7647  10.7852  11.1266   H         1 RES1   0.0000
    55 C45      5.1602  11.7032  10.2599   C.3       1 RES1   0.0000
    56 H39      4.6518  12.5059  10.4581   H         1 RES1   0.0000
    57 H40      5.8107  11.9253   9.5747   H         1 RES1   0.0000
    58 C47      4.5290   9.9332   8.5788   C.ar      1 RES1   0.0000
    59 H42      5.3041  10.1323   8.1048   H         1 RES1   0.0000
    60 N4       2.5722   8.5929   8.7736   N.ar      1 RES1   0.0000
    61 C52      2.2576   9.2825   9.8646   C.ar      1 RES1   0.0000
    62 H47      1.4746   9.0593  10.3157   H         1 RES1   0.0000
    63 C53      3.6996   8.9325   8.1350   C.ar      1 RES1   0.0000
    64 H48      3.9305   8.4724   7.3614   H         1 RES1   0.0000
    65 O3       8.4630   8.9912  20.2799   O.3       1 RES1   0.0000
    66 C54      8.6841   9.9353  21.3506   C.3       1 RES1   0.0000
    67 H49      9.2992  10.6123  21.0585   H         1 RES1   0.0000
    68 H50      9.0510   9.4774  22.1109   H         1 RES1   0.0000
    69 H51      7.8504  10.3430  21.5943   H         1 RES1   0.0000
    70 H52      9.0294   8.3519  20.3538   H         1 RES1   0.0000
    71 C4       3.5297   4.2954  15.6465   C.ar      2 RES2   0.0000
    72 H3       3.6939   3.7788  14.8918   H         2 RES2   0.0000
    73 C6       2.8088   6.3001  16.6632   C.ar      2 RES2   0.0000
    74 H5       2.4942   7.1730  16.6127   H         2 RES2   0.0000
    75 C8       4.3121   6.4824  13.2742   C.ar      2 RES2   0.0000
    76 C10      5.5444   6.1125  13.8243   C.ar      2 RES2   0.0000
    77 H9       5.5548   5.6944  14.6553   H         2 RES2   0.0000
    78 C12      3.0466   5.6116  15.4728   C.ar      2 RES2   0.0000
    79 C13      6.7548   6.3462  13.1808   C.ar      2 RES2   0.0000
    80 H10      7.5526   6.0790  13.5788   H         2 RES2   0.0000
    81 C22      3.5165   4.4631  18.0447   C.ar      2 RES2   0.0000
    82 H19      3.6775   4.0953  18.8839   H         2 RES2   0.0000
    83 C26      3.0173   5.7478  17.9211   C.ar      2 RES2   0.0000
    84 H21      2.8199   6.2435  18.6836   H         2 RES2   0.0000
    85 C27      6.7709   6.9760  11.9489   C.ar      2 RES2   0.0000
    86 H22      7.5749   7.1238  11.5080   H         2 RES2   0.0000
    87 C29      3.7697   3.7400  16.8961   C.ar      2 RES2   0.0000
    88 H25      4.1033   2.8744  16.9603   H         2 RES2   0.0000
    89 C32      4.3776   7.1353  12.0339   C.ar      2 RES2   0.0000
    90 H28      3.5863   7.4130  11.6335   H         2 RES2   0.0000
    91 C34      5.5765   7.3826  11.3825   C.ar      2 RES2   0.0000
    92 H31      5.5762   7.8217  10.5643   H         2 RES2   0.0000
    93 B1       2.8416   6.2005  13.9532   B         2 RES2  -1.0000
    94 C36      2.6173   4.3070  12.0450   C.ar      2 RES2   0.0000
    95 H33      3.5044   4.4715  11.8193   H         2 RES2   0.0000
    96 C37      2.0416   7.6456  13.9044   C.ar      2 RES2   0.0000
    97 C38      2.0417   5.0468  13.0843   C.ar      2 RES2   0.0000
    98 C39      2.0287  10.0380  14.4371   C.ar      2 RES2   0.0000
    99 H34      2.4178  10.7527  14.8870   H         2 RES2   0.0000
   100 C40      0.7077   4.7052  13.3800   C.ar      2 RES2   0.0000
   101 H35      0.2805   5.1474  14.0784   H         2 RES2   0.0000
   102 C41      2.5804   8.7700  14.5556   C.ar      2 RES2   0.0000
   103 H36      3.3358   8.6590  15.0873   H         2 RES2   0.0000
   104 C42      0.9119   7.9076  13.1186   C.ar      2 RES2   0.0000
   105 H37      0.5138   7.2013  12.6641   H         2 RES2   0.0000
   106 C46      1.9135   3.3334  11.3342   C.ar      2 RES2   0.0000
   107 H41      2.3344   2.8692  10.6463   H         2 RES2   0.0000
   108 C48      0.3587   9.1798  12.9887   C.ar      2 RES2   0.0000
   109 H43     -0.3864   9.3066  12.4469   H         2 RES2   0.0000
   110 C49      0.5952   3.0526  11.6441   C.ar      2 RES2   0.0000
   111 H44      0.1222   2.4123  11.1652   H         2 RES2   0.0000
   112 C50      0.0012   3.7400  12.6764   C.ar      2 RES2   0.0000
   113 H45     -0.8806   3.5566  12.9054   H         2 RES2   0.0000
   114 C51      0.9094  10.2508  13.6563   C.ar      2 RES2   0.0000
   115 H46      0.5354  11.0996  13.5837   H         2 RES2   0.0000
@<TRIPOS>BOND
     1     1     2    1
     2     2    18    1
     3     3     1    1
     4     4     1    1
     5     5     6    1
     6     7     8    1
     7     9    24    1
     8    10    11    1
     9    12    13    1
    10    14    12    1
    11    15     1    1
    12    16     5   ar
    13    17    16    1
    14    18    26   ar
    15    19    20    1
    16    21    22    1
    17    23     1    1
    18    24     4    2
    19    25    24    1
    20    26     5   ar
    21    27    26    1
    22    28    16   ar
    23    29    28    1
    24    30    21   ar
    25    31    30    1
    26    32     9   ar
    27    33    32    1
    28    34    15   ar
    29    35    34    1
    30    36     3    1
    31    37    19   ar
    32    38     7   ar
    33    39    38    1
    34    40     4    1
    35    41    40    1
    36    42    40    1
    37    43    10    1
    38    44    37    1
    39    45    44    1
    40    46    44    1
    41    47    44    1
    42    48    47    1
    43    49    47    1
    44    50    30   ar
    45    51    50    1
    46    52    53   ar
    47    53    54    1
    48    55    47    1
    49    56    55    1
    50    57    55    1
    51    58    52   ar
    52    59    58    1
    53    60    61   ar
    54    61    53   ar
    55    62    61    1
    56    63    58   ar
    57    64    63    1
    58    65     1    1
    59    66    65    1
    60    67    66    1
    61    68    66    1
    62    69    66    1
    63    70    65    1
    64     7    15   ar
    65     9    36   ar
    66    10    23    2
    67    12    23    1
    68    12    40    1
    69    18    43   ar
    70    19    34   ar
    71    21    36   ar
    72    28    43   ar
    73    32    50   ar
    74    37    38   ar
    75    52    55    1
    76    60    63   ar
    77    71    72    1
    78    73    74    1
    79    75    76   ar
    80    76    77    1
    81    78    71   ar
    82    79    76   ar
    83    80    79    1
    84    81    82    1
    85    83    73   ar
    86    84    83    1
    87    85    79   ar
    88    86    85    1
    89    87    71   ar
    90    88    87    1
    91    89    75   ar
    92    90    89    1
    93    91    85   ar
    94    92    91    1
    95    93    75    1
    96    94    95    1
    97    96    93    1
    98    97    93    1
    99    98    99    1
   100   100    97   ar
   101   101   100    1
   102   102    96   ar
   103   103   102    1
   104   104    96   ar
   105   105   104    1
   106   106    94   ar
   107   107   106    1
   108   108   104   ar
   109   109   108    1
   110   110   106   ar
   111   111   110    1
   112   112   100   ar
   113   113   112    1
   114   114    98   ar
   115   115   114    1
   116    73    78   ar
   117    78    93    1
   118    81    83   ar
   119    81    87   ar
   120    89    91   ar
   121    94    97   ar
   122    98   102   ar
   123   108   114   ar
   124   110   112   ar
@<TRIPOS>SUBSTRUCTURE
     1 RES1        1 GROUP             0 ****  ****    0  
     2 RES2       71 GROUP             0 ****  ****    0  
@<TRIPOS>CRYSIN
   17.7548   10.4792   24.2709   90.0000   96.0470   90.0000   231     1
