@<TRIPOS>MOLECULE
OHORAF
   106   115     2     0     0
SMALL
USER_CHARGES
****
Generated from the CSD

@<TRIPOS>ATOM
     1 Fe1      6.3021   4.4858   7.4878   Fe        1 RES1   1.0000
     2 N1       5.9878   8.2281  15.9629   N.ar      1 RES1   0.0000
     3 O1       6.3168   3.5506   5.5930   O.3       1 RES1   0.0000
     4 O2       6.6299   6.1603   6.6482   O.3       1 RES1   0.0000
     5 N2       6.1952   5.3917   9.4792   N.ar      1 RES1   0.0000
     6 O3       7.9921   3.7254   7.9175   O.3       1 RES1   0.0000
     7 C1       7.4200   1.7121   9.1147   C.ar      1 RES1   0.0000
     8 C2       4.4168   7.0015   6.1372   C.ar      1 RES1   0.0000
     9 N3       5.4276   2.6780   8.1367   N.2       1 RES1   0.0000
    10 N4       4.2438   4.9151   7.3462   N.2       1 RES1   0.0000
    11 C3       5.8517   7.0910   6.1218   C.ar      1 RES1   0.0000
    12 C4       6.3683   5.2026  11.8509   C.ar      1 RES1   0.0000
    13 H1       6.5308   4.6481  12.6055   H         1 RES1   0.0000
    14 C5       6.4185   4.6737  10.5906   C.ar      1 RES1   0.0000
    15 H2       6.6220   3.7512  10.4956   H         1 RES1   0.0000
    16 C6       5.6548   9.1787   4.9128   C.ar      1 RES1   0.0000
    17 H3       6.0763   9.9172   4.4919   H         1 RES1   0.0000
    18 C7       6.0789   6.5569  12.0254   C.ar      1 RES1   0.0000
    19 C8       9.6832   2.5681   9.0710   C.ar      1 RES1   0.0000
    20 H4      10.3240   3.2044   8.7784   H         1 RES1   0.0000
    21 C9       5.5848   6.4240  14.4664   C.ar      1 RES1   0.0000
    22 H5       5.2836   5.5297  14.3535   H         1 RES1   0.0000
    23 C10      5.5808   6.9990  15.7216   C.ar      1 RES1   0.0000
    24 H6       5.2664   6.4777  16.4506   H         1 RES1   0.0000
    25 C11      8.3369   2.6984   8.6680   C.ar      1 RES1   0.0000
    26 C12      3.6651   8.0135   5.5366   C.ar      1 RES1   0.0000
    27 H7       2.7164   7.9572   5.5597   H         1 RES1   0.0000
    28 C13      7.8758   0.6644   9.9386   C.ar      1 RES1   0.0000
    29 H8       7.2575   0.0128  10.2415   H         1 RES1   0.0000
    30 C14      6.7105   2.1950   5.3492   C.3       1 RES1   0.0000
    31 H9       7.3103   1.8935   6.0628   H         1 RES1   0.0000
    32 H10      7.1742   2.1388   4.4867   H         1 RES1   0.0000
    33 H11      5.9151   1.6226   5.3287   H         1 RES1   0.0000
    34 C15      5.8662   7.2954  10.8858   C.ar      1 RES1   0.0000
    35 H12      5.6746   8.2230  10.9576   H         1 RES1   0.0000
    36 C16      6.0300   7.1472  13.3653   C.ar      1 RES1   0.0000
    37 C17      6.4013   8.9359  14.9002   C.ar      1 RES1   0.0000
    38 H13      6.6946   9.8277  15.0440   H         1 RES1   0.0000
    39 C18      3.9927   2.5502   7.7774   C.3       1 RES1   0.0000
    40 H14      3.5528   1.8756   8.3523   H         1 RES1   0.0000
    41 H15      3.9002   2.2666   6.8328   H         1 RES1   0.0000
    42 C19     10.0756   1.5332   9.8744   C.ar      1 RES1   0.0000
    43 H16     10.9859   1.4719  10.1440   H         1 RES1   0.0000
    44 C20      5.9270   6.7077   9.6434   C.ar      1 RES1   0.0000
    45 H17      5.7777   7.2443   8.8734   H         1 RES1   0.0000
    46 C21      3.6968   5.9130   6.7481   C.2       1 RES1   0.0000
    47 H18      2.7481   5.9334   6.7045   H         1 RES1   0.0000
    48 C22      6.4264   8.4504  13.6040   C.ar      1 RES1   0.0000
    49 H19      6.7131   9.0049  12.8879   H         1 RES1   0.0000
    50 C23      4.2517   9.0816   4.9205   C.ar      1 RES1   0.0000
    51 H20      3.7206   9.7485   4.5047   H         1 RES1   0.0000
    52 C24      3.3651   3.9122   7.9853   C.3       1 RES1   0.0000
    53 H21      2.4641   3.9377   7.5746   H         1 RES1   0.0000
    54 H22      3.2753   4.1013   8.9504   H         1 RES1   0.0000
    55 C25      9.1759   0.5673  10.3108   C.ar      1 RES1   0.0000
    56 H23      9.4679  -0.1508  10.8601   H         1 RES1   0.0000
    57 C26      6.0023   1.7325   8.7656   C.2       1 RES1   0.0000
    58 H24      5.4725   0.9863   9.0248   H         1 RES1   0.0000
    59 C27      6.4238   8.1949   5.5186   C.ar      1 RES1   0.0000
    60 H25      7.3698   8.2818   5.5160   H         1 RES1   0.0000
    61 H46      6.0274   4.0732   4.6485   H         1 RES1   0.0000
    62 C28     12.0892   1.6839  15.5342   C.ar      2 RES2   0.0000
    63 C29     14.1925   1.5332  14.2970   C.ar      2 RES2   0.0000
    64 H26     14.6721   1.1959  13.5501   H         2 RES2   0.0000
    65 C30      9.8603   2.9182  15.0619   C.ar      2 RES2   0.0000
    66 C31     10.8036   0.6874  18.1908   C.ar      2 RES2   0.0000
    67 H27     11.7126   0.5085  17.9778   H         2 RES2   0.0000
    68 C32     12.8449   1.2112  14.4639   C.ar      2 RES2   0.0000
    69 H28     12.4261   0.6490  13.8222   H         2 RES2   0.0000
    70 C33     10.0915  -2.2001  14.2868   C.ar      2 RES2   0.0000
    71 H29     10.5645  -3.0178  14.3843   H         2 RES2   0.0000
    72 C34      8.7253   0.1814  14.0583   C.ar      2 RES2   0.0000
    73 H30      8.2338   0.9889  13.9685   H         2 RES2   0.0000
    74 C35      9.9224   0.1968  14.8052   C.ar      2 RES2   0.0000
    75 C36      9.9884   1.2240  17.1975   C.ar      2 RES2   0.0000
    76 C37      9.5260   4.4105  13.1702   C.ar      2 RES2   0.0000
    77 H31      9.5498   4.5536  12.2333   H         2 RES2   0.0000
    78 C38      8.1836   1.1371  18.8710   C.ar      2 RES2   0.0000
    79 H32      7.2733   1.3007  19.0918   H         2 RES2   0.0000
    80 C39      8.2404  -0.9685  13.4500   C.ar      2 RES2   0.0000
    81 H33      7.4239  -0.9352  12.9649   H         2 RES2   0.0000
    82 C40     10.3650   0.4012  19.4742   C.ar      2 RES2   0.0000
    83 H34     10.9701   0.0511  20.1185   H         2 RES2   0.0000
    84 C41      8.6474   1.4131  17.5851   C.ar      2 RES2   0.0000
    85 H35      8.0304   1.7427  16.9408   H         2 RES2   0.0000
    86 C42      9.4745   3.9965  15.8884   C.ar      2 RES2   0.0000
    87 H36      9.4599   3.8713  16.8304   H         2 RES2   0.0000
    88 C43     12.7696   2.4787  16.4454   C.ar      2 RES2   0.0000
    89 H37     12.3006   2.8108  17.2026   H         2 RES2   0.0000
    90 C44     10.5671  -1.0451  14.8976   C.ar      2 RES2   0.0000
    91 H38     11.3704  -1.1013  15.4033   H         2 RES2   0.0000
    92 C45      9.8761   3.1788  13.6836   C.ar      2 RES2   0.0000
    93 H39     10.1351   2.4863  13.0855   H         2 RES2   0.0000
    94 C46      9.0332   0.6286  19.8182   C.ar      2 RES2   0.0000
    95 H40      8.7201   0.4370  20.6935   H         2 RES2   0.0000
    96 C47     14.8214   2.3330  15.2108   C.ar      2 RES2   0.0000
    97 H41     15.7371   2.5579  15.0953   H         2 RES2   0.0000
    98 C48     14.1238   2.8134  16.2940   C.ar      2 RES2   0.0000
    99 H42     14.5559   3.3679  16.9331   H         2 RES2   0.0000
   100 B1      10.4469   1.4923  15.6549   B         2 RES2  -1.0000
   101 C49      9.1151   5.2333  15.3699   C.ar      2 RES2   0.0000
   102 H43      8.8522   5.9385  15.9500   H         2 RES2   0.0000
   103 C50      9.1455   5.4351  14.0018   C.ar      2 RES2   0.0000
   104 H44      8.9011   6.2784  13.6399   H         2 RES2   0.0000
   105 C51      8.9288  -2.1567  13.5398   C.ar      2 RES2   0.0000
   106 H45      8.6117  -2.9335  13.0958   H         2 RES2   0.0000
@<TRIPOS>BOND
     1     1     3    1
     2     2    23   ar
     3     3    30    1
     4     4     1    1
     5     5     1    1
     6     6     1    1
     7     7    25   ar
     8     8    11   ar
     9     9     1    1
    10    10     1    1
    11    11     4    1
    12    12    13    1
    13    14     5   ar
    14    15    14    1
    15    16    17    1
    16    18    12   ar
    17    19    20    1
    18    21    22    1
    19    23    21   ar
    20    24    23    1
    21    25     6    1
    22    26     8   ar
    23    27    26    1
    24    28     7   ar
    25    29    28    1
    26    30    31    1
    27    32    30    1
    28    33    30    1
    29    34    18   ar
    30    35    34    1
    31    36    18    1
    32    37     2   ar
    33    38    37    1
    34    39     9    1
    35    40    39    1
    36    41    39    1
    37    42    19   ar
    38    43    42    1
    39    44     5   ar
    40    45    44    1
    41    46     8    1
    42    47    46    1
    43    48    36   ar
    44    49    48    1
    45    50    16   ar
    46    51    50    1
    47    52    10    1
    48    53    52    1
    49    54    52    1
    50    55    28   ar
    51    56    55    1
    52    57     7    1
    53    58    57    1
    54    59    11   ar
    55    60    59    1
    56    61     3    1
    57     9    57    2
    58    10    46    2
    59    12    14   ar
    60    16    59   ar
    61    19    25   ar
    62    21    36   ar
    63    26    50   ar
    64    34    44   ar
    65    37    48   ar
    66    39    52    1
    67    42    55   ar
    68    62    68   ar
    69    63    64    1
    70    65    86   ar
    71    66    67    1
    72    68    63   ar
    73    69    68    1
    74    70    71    1
    75    72    73    1
    76    74    72   ar
    77    75    66   ar
    78    76    77    1
    79    78    79    1
    80    80    72   ar
    81    81    80    1
    82    82    66   ar
    83    83    82    1
    84    84    75   ar
    85    85    84    1
    86    86    87    1
    87    88    62   ar
    88    89    88    1
    89    90    70   ar
    90    91    90    1
    91    92    65   ar
    92    93    92    1
    93    94    78   ar
    94    95    94    1
    95    96    63   ar
    96    97    96    1
    97    98    88   ar
    98    99    98    1
    99   100    62    1
   100   101    86   ar
   101   102   101    1
   102   103    76   ar
   103   104   103    1
   104   105    70   ar
   105   106   105    1
   106    65   100    1
   107    74    90   ar
   108    74   100    1
   109    75   100    1
   110    76    92   ar
   111    78    84   ar
   112    80   105   ar
   113    82    94   ar
   114    96    98   ar
   115   101   103   ar
@<TRIPOS>SUBSTRUCTURE
     1 RES1        1 GROUP             0 ****  ****    0  
     2 RES2       62 GROUP             0 ****  ****    0  
@<TRIPOS>CRYSIN
   13.2122   25.5531   25.6679   90.0000   90.0000   90.0000    61     1
