@<TRIPOS>MOLECULE
OKUHUY02
   101   105     5     0     0
SMALL
USER_CHARGES
****
Generated from the CSD

@<TRIPOS>ATOM
     1 Fe1      3.8584   5.3349   5.2130   Fe        1 RES1   2.0000
     2 N1       7.3654   5.7537   2.8175   N.pl3     1 RES1   0.0000
     3 N2       5.6139   5.5930   4.1106   N.2       1 RES1   0.0000
     4 N3       5.3806   5.1764   6.7481   N.2       1 RES1   0.0000
     5 N4       0.4561   5.2478   7.8336   N.pl3     1 RES1   0.0000
     6 N5       2.2188   5.2677   6.5385   N.2       1 RES1   0.0000
     7 N6       3.5025   7.4104   5.3720   N.2       1 RES1   0.0000
     8 N7       0.9829   4.8252   2.0543   N.pl3     1 RES1   0.0000
     9 N8       2.4845   5.0911   3.6024   N.2       1 RES1   0.0000
    10 N9       3.8836   3.2181   4.9667   N.2       1 RES1   0.0000
    11 C1       5.1605   6.0057   1.6984   C.3       1 RES1   0.0000
    12 C2       6.0220   5.7835   2.8808   C.2       1 RES1   0.0000
    13 C3       7.8637   5.5534   4.0868   C.2       1 RES1   0.0000
    14 C4       6.7438   5.4482   4.8935   C.2       1 RES1   0.0000
    15 C5       6.5732   5.2240   6.2894   C.2       1 RES1   0.0000
    16 C6       5.2072   4.8748   8.1737   C.3       1 RES1   0.0000
    17 C7       5.0124   6.1267   8.9982   C.ar      1 RES1   0.0000
    18 C8       6.1008   6.8470   9.4312   C.ar      1 RES1   0.0000
    19 C9       5.9331   7.9838  10.2201   C.ar      1 RES1   0.0000
    20 C10      4.6635   8.4005  10.5562   C.ar      1 RES1   0.0000
    21 C11      3.5911   7.6941  10.1271   C.ar      1 RES1   0.0000
    22 C12      3.7360   6.5732   9.3620   C.ar      1 RES1   0.0000
    23 C13      1.4952   3.0614   7.4401   C.3       1 RES1   0.0000
    24 C14      1.4170   4.5395   7.2523   C.2       1 RES1   0.0000
    25 C15      0.6415   6.5712   7.4915   C.2       1 RES1   0.0000
    26 C16      1.7065   6.6089   6.7106   C.2       1 RES1   0.0000
    27 C17      2.4440   7.6803   6.0640   C.2       1 RES1   0.0000
    28 C18      4.1533   8.4659   4.6642   C.3       1 RES1   0.0000
    29 C19      5.5911   8.6425   5.0735   C.ar      1 RES1   0.0000
    30 C20      5.9428   8.6346   6.3744   C.ar      1 RES1   0.0000
    31 C21      7.2654   8.8350   6.6967   C.ar      1 RES1   0.0000
    32 C22      8.2097   9.0790   5.8090   C.ar      1 RES1   0.0000
    33 C23      7.9233   9.0850   4.4368   C.ar      1 RES1   0.0000
    34 C24      6.5238   8.8370   4.0967   C.ar      1 RES1   0.0000
    35 C25      1.4392   7.1803   2.6316   C.3       1 RES1   0.0000
    36 C26      1.6521   5.6803   2.7819   C.2       1 RES1   0.0000
    37 C27      1.3644   3.6149   2.3588   C.2       1 RES1   0.0000
    38 C28      2.3111   3.7042   3.3335   C.2       1 RES1   0.0000
    39 C29      3.0597   2.7955   4.0572   C.2       1 RES1   0.0000
    40 C30      4.6482   2.2202   5.7674   C.3       1 RES1   0.0000
    41 C31      6.0915   2.0991   5.3661   C.ar      1 RES1   0.0000
    42 C32      6.5174   2.1884   4.0730   C.ar      1 RES1   0.0000
    43 C33      7.7763   2.0079   3.7606   C.ar      1 RES1   0.0000
    44 C34      8.7021   1.7162   4.7255   C.ar      1 RES1   0.0000
    45 C35      8.3794   1.5912   5.9948   C.ar      1 RES1   0.0000
    46 C36      7.0227   1.8114   6.3883   C.ar      1 RES1   0.0000
    47 H1       7.8871   5.8549   2.0543   H         1 RES1   0.0000
    48 H2      -0.2172   4.9026   8.3734   H         1 RES1   0.0000
    49 H3       0.3302   5.0316   1.4236   H         1 RES1   0.0000
    50 H4       4.5289   5.2637   1.6055   H         1 RES1   0.0000
    51 H5       4.6661   6.8450   1.8032   H         1 RES1   0.0000
    52 H6       5.7235   6.0573   0.8976   H         1 RES1   0.0000
    53 H7       8.7538   5.5018   4.3518   H         1 RES1   0.0000
    54 H8       7.3022   5.1109   6.8549   H         1 RES1   0.0000
    55 H9       4.4416   4.2717   8.2765   H         1 RES1   0.0000
    56 H10      6.0220   4.4205   8.4742   H         1 RES1   0.0000
    57 H11      6.9583   6.5652   9.2058   H         1 RES1   0.0000
    58 H12      6.6699   8.4739  10.5048   H         1 RES1   0.0000
    59 H13      4.5470   9.1485  11.0960   H         1 RES1   0.0000
    60 H14      2.7349   7.9858  10.3407   H         1 RES1   0.0000
    61 H15      2.9899   6.0910   9.0871   H         1 RES1   0.0000
    62 H16      2.3962   2.8233   7.7446   H         1 RES1   0.0000
    63 H17      1.3099   2.6150   6.5880   H         1 RES1   0.0000
    64 H18      0.8384   2.7737   8.1084   H         1 RES1   0.0000
    65 H19      0.1295   7.2993   7.7624   H         1 RES1   0.0000
    66 H20      2.1510   8.5592   6.1569   H         1 RES1   0.0000
    67 H21      4.0702   8.2318   3.7151   H         1 RES1   0.0000
    68 H22      3.6278   9.2734   4.8401   H         1 RES1   0.0000
    69 H23      5.2955   8.5036   7.0269   H         1 RES1   0.0000
    70 H24      7.4925   8.8151   7.5983   H         1 RES1   0.0000
    71 H25      9.0833   9.2318   6.0877   H         1 RES1   0.0000
    72 H26      8.5666   9.2377   3.7843   H         1 RES1   0.0000
    73 H27      6.2551   8.8211   3.2070   H         1 RES1   0.0000
    74 H28      2.2798   7.6564   2.7957   H         1 RES1   0.0000
    75 H29      0.7725   7.4541   3.2960   H         1 RES1   0.0000
    76 H30      1.1125   7.3946   1.7340   H         1 RES1   0.0000
    77 H31      1.0529   2.8174   1.9970   H         1 RES1   0.0000
    78 H32      2.9852   1.8789   3.9168   H         1 RES1   0.0000
    79 H33      4.1716   1.3690   5.6666   H         1 RES1   0.0000
    80 H34      4.5800   2.5197   6.6987   H         1 RES1   0.0000
    81 H35      5.8947   2.3789   3.4087   H         1 RES1   0.0000
    82 H36      8.0512   2.0892   2.8748   H         1 RES1   0.0000
    83 H37      9.5874   1.5773   4.4783   H         1 RES1   0.0000
    84 H38      9.0217   1.3968   6.6374   H         1 RES1   0.0000
    85 H39      6.7468   1.7440   7.2741   H         1 RES1   0.0000
    86 Cl1      8.8379   5.9301   0.0156   Cl        2 RES2  -1.0000
    87 P1       0.0000   0.0000   0.0000   P.3       3 RES3  -1.0000
    88 F1      -1.0317  -0.6329  -0.9906   F         3 RES3   0.0000
    89 F2      -0.9936  -0.2678   1.1784   F         3 RES3   0.0000
    90 F3      -0.6188   1.4525  -0.2254   F         3 RES3   0.0000
    91 F1B      1.0317   0.6329   0.9906   F         3 RES3   0.0000
    92 F2B      0.9936   0.2678  -1.1784   F         3 RES3   0.0000
    93 F3B      0.6188  -1.4525   0.2254   F         3 RES3   0.0000
    94 P2       5.0249   9.9203   0.0000   P.3       4 RES4  -1.0000
    95 F4       4.4317   8.8112  -0.8205   F         4 RES4   0.0000
    96 F5       6.1721   8.9401   0.3421   F         4 RES4   0.0000
    97 F6       5.8208  10.4520  -1.2614   F         4 RES4   0.0000
    98 F4B      5.6181  11.0293   0.8205   F         4 RES4   0.0000
    99 F5B      3.8777  10.9004  -0.3421   F         4 RES4   0.0000
   100 F6B      4.2290   9.3885   1.2614   F         4 RES4   0.0000
   101 O1       9.1800   9.5651   1.0281   O.3       5 RES5   0.0000
@<TRIPOS>BOND
     1     1     3    1
     2     2    12    1
     3     3    12    2
     4     4     1    1
     5     5    24    1
     6     6     1    1
     7     7     1    1
     8     8    36    1
     9     9     1    1
    10    10     1    1
    11    11    12    1
    12    13     2    1
    13    14     3    1
    14    15     4    2
    15    16     4    1
    16    17    16    1
    17    18    17   ar
    18    19    18   ar
    19    20    19   ar
    20    21    20   ar
    21    22    17   ar
    22    23    24    1
    23    24     6    2
    24    25     5    1
    25    26     6    1
    26    27     7    2
    27    28     7    1
    28    29    28    1
    29    30    29   ar
    30    31    30   ar
    31    32    31   ar
    32    33    32   ar
    33    34    29   ar
    34    35    36    1
    35    36     9    2
    36    37     8    1
    37    38     9    1
    38    39    10    2
    39    40    10    1
    40    41    40    1
    41    42    41   ar
    42    43    42   ar
    43    44    43   ar
    44    45    44   ar
    45    46    41   ar
    46    47     2    1
    47    48     5    1
    48    49     8    1
    49    50    11    1
    50    51    11    1
    51    52    11    1
    52    53    13    1
    53    54    15    1
    54    55    16    1
    55    56    16    1
    56    57    18    1
    57    58    19    1
    58    59    20    1
    59    60    21    1
    60    61    22    1
    61    62    23    1
    62    63    23    1
    63    64    23    1
    64    65    25    1
    65    66    27    1
    66    67    28    1
    67    68    28    1
    68    69    30    1
    69    70    31    1
    70    71    32    1
    71    72    33    1
    72    73    34    1
    73    74    35    1
    74    75    35    1
    75    76    35    1
    76    77    37    1
    77    78    39    1
    78    79    40    1
    79    80    40    1
    80    81    42    1
    81    82    43    1
    82    83    44    1
    83    84    45    1
    84    85    46    1
    85    13    14    2
    86    14    15    1
    87    21    22   ar
    88    25    26    2
    89    26    27    1
    90    33    34   ar
    91    37    38    2
    92    38    39    1
    93    45    46   ar
    94    87    88    1
    95    89    87    1
    96    90    87    1
    97    91    87    1
    98    92    87    1
    99    93    87    1
   100    94    95    1
   101    96    94    1
   102    97    94    1
   103    98    94    1
   104    99    94    1
   105   100    94    1
@<TRIPOS>SUBSTRUCTURE
     1 RES1        1 GROUP             0 ****  ****    0  
     2 RES2       86 GROUP             0 ****  ****    0  
     3 RES3       87 GROUP             0 ****  ****    0  
     4 RES4       94 GROUP             0 ****  ****    0  
     5 RES5      101 GROUP             0 ****  ****    0  
@<TRIPOS>CRYSIN
   10.0498   19.8405   19.7795   90.0000   91.5956   90.0000    14     1
