@<TRIPOS>MOLECULE
OKUHUY03
   101   105     5     0     0
SMALL
USER_CHARGES
****
Generated from the CSD

@<TRIPOS>ATOM
     1 Fe1      3.7218   5.3043   5.1467   Fe        1 RES1   2.0000
     2 N1       7.1030   5.7452   2.6911   N.pl3     1 RES1   0.0000
     3 N2       5.3718   5.5666   4.0180   N.2       1 RES1   0.0000
     4 N3       5.1582   5.1664   6.6070   N.2       1 RES1   0.0000
     5 N4       0.3810   5.1330   7.7180   N.pl3     1 RES1   0.0000
     6 N5       2.1500   5.1919   6.4323   N.2       1 RES1   0.0000
     7 N6       3.4185   7.3012   5.3174   N.2       1 RES1   0.0000
     8 N7       0.9010   4.9741   2.0237   N.pl3     1 RES1   0.0000
     9 N8       2.3835   5.1723   3.6058   N.2       1 RES1   0.0000
    10 N9       3.7864   3.2788   4.8954   N.2       1 RES1   0.0000
    11 C1       4.8565   5.9277   1.6115   C.3       1 RES1   0.0000
    12 C2       5.7346   5.7609   2.7677   C.2       1 RES1   0.0000
    13 C3       7.6087   5.5490   3.9395   C.2       1 RES1   0.0000
    14 C4       6.5469   5.4313   4.7521   C.2       1 RES1   0.0000
    15 C5       6.3491   5.2095   6.1693   C.2       1 RES1   0.0000
    16 C6       4.9687   4.8603   8.0497   C.3       1 RES1   0.0000
    17 C7       4.8664   6.0984   8.8918   C.ar      1 RES1   0.0000
    18 C8       5.9938   6.7596   9.3394   C.ar      1 RES1   0.0000
    19 C9       5.9163   7.8741  10.1539   C.ar      1 RES1   0.0000
    20 C10      4.6910   8.3451  10.5367   C.ar      1 RES1   0.0000
    21 C11      3.5558   7.7231  10.0852   C.ar      1 RES1   0.0000
    22 C12      3.6318   6.6380   9.2864   C.ar      1 RES1   0.0000
    23 C13      1.4519   2.9452   7.2823   C.3       1 RES1   0.0000
    24 C14      1.3478   4.4561   7.1154   C.2       1 RES1   0.0000
    25 C15      0.5519   6.4653   7.4059   C.2       1 RES1   0.0000
    26 C16      1.6174   6.5261   6.6384   C.2       1 RES1   0.0000
    27 C17      2.3716   7.5896   6.0280   C.2       1 RES1   0.0000
    28 C18      4.0878   8.3529   4.5971   C.3       1 RES1   0.0000
    29 C19      5.5195   8.5452   5.0289   C.ar      1 RES1   0.0000
    30 C20      5.8820   8.5491   6.3205   C.ar      1 RES1   0.0000
    31 C21      7.1484   8.7630   6.6600   C.ar      1 RES1   0.0000
    32 C22      8.1434   9.0279   5.7728   C.ar      1 RES1   0.0000
    33 C23      7.8440   9.0259   4.4067   C.ar      1 RES1   0.0000
    34 C24      6.4643   8.7866   4.0455   C.ar      1 RES1   0.0000
    35 C25      1.2902   7.3032   2.7735   C.3       1 RES1   0.0000
    36 C26      1.5405   5.7688   2.8265   C.2       1 RES1   0.0000
    37 C27      1.3181   3.7006   2.2553   C.2       1 RES1   0.0000
    38 C28      2.2371   3.7889   3.2407   C.2       1 RES1   0.0000
    39 C29      3.0215   2.8432   3.9729   C.2       1 RES1   0.0000
    40 C30      4.5360   2.2918   5.7237   C.3       1 RES1   0.0000
    41 C31      5.9976   2.1545   5.2919   C.ar      1 RES1   0.0000
    42 C32      6.4240   2.2074   4.0219   C.ar      1 RES1   0.0000
    43 C33      7.7111   1.9955   3.7138   C.ar      1 RES1   0.0000
    44 C34      8.6212   1.6875   4.6972   C.ar      1 RES1   0.0000
    45 C35      8.2470   1.5913   5.9927   C.ar      1 RES1   0.0000
    46 C36      6.8891   1.8621   6.3303   C.ar      1 RES1   0.0000
    47 H1       7.6215   5.8472   1.9334   H         1 RES1   0.0000
    48 H2      -0.2891   4.7916   8.2558   H         1 RES1   0.0000
    49 H3       0.2535   5.1781   1.3976   H         1 RES1   0.0000
    50 H4       4.2275   5.1919   1.5212   H         1 RES1   0.0000
    51 H5       4.3638   6.7557   1.7156   H         1 RES1   0.0000
    52 H6       5.4171   5.9767   0.8166   H         1 RES1   0.0000
    53 H7       8.4936   5.4960   4.2005   H         1 RES1   0.0000
    54 H8       7.0734   5.0957   6.7327   H         1 RES1   0.0000
    55 H9       4.2072   4.2638   8.1499   H         1 RES1   0.0000
    56 H10      5.7786   4.4090   8.3461   H         1 RES1   0.0000
    57 H11      6.8468   6.4810   9.1136   H         1 RES1   0.0000
    58 H12      6.6497   8.3588  10.4386   H         1 RES1   0.0000
    59 H13      4.5747   9.0848  11.0726   H         1 RES1   0.0000
    60 H14      2.7042   8.0115  10.2972   H         1 RES1   0.0000
    61 H15      2.8891   6.1612   9.0135   H         1 RES1   0.0000
    62 H16      2.3477   2.7097   7.5845   H         1 RES1   0.0000
    63 H17      1.2685   2.5037   6.4363   H         1 RES1   0.0000
    64 H18      0.7982   2.6627   7.9457   H         1 RES1   0.0000
    65 H19      0.0425   7.1835   7.6748   H         1 RES1   0.0000
    66 H20      2.0800   8.4589   6.1222   H         1 RES1   0.0000
    67 H21      4.0071   8.1214   3.6549   H         1 RES1   0.0000
    68 H22      3.5651   9.1515   4.7717   H         1 RES1   0.0000
    69 H23      5.2376   8.4196   6.9702   H         1 RES1   0.0000
    70 H24      7.3735   8.7434   7.5551   H         1 RES1   0.0000
    71 H25      9.0119   9.1790   6.0496   H         1 RES1   0.0000
    72 H26      8.4854   9.1770   3.7569   H         1 RES1   0.0000
    73 H27      6.1980   8.7728   3.1602   H         1 RES1   0.0000
    74 H28      2.1249   7.7741   2.9384   H         1 RES1   0.0000
    75 H29      0.6265   7.5739   3.4331   H         1 RES1   0.0000
    76 H30      0.9661   7.5151   1.8824   H         1 RES1   0.0000
    77 H31      1.0087   2.9118   1.8961   H         1 RES1   0.0000
    78 H32      2.9476   1.9367   3.8335   H         1 RES1   0.0000
    79 H33      4.0622   1.4520   5.6236   H         1 RES1   0.0000
    80 H34      4.4674   2.5901   6.6483   H         1 RES1   0.0000
    81 H35      5.8054   2.3958   3.3624   H         1 RES1   0.0000
    82 H36      7.9843   2.0760   2.8364   H         1 RES1   0.0000
    83 H37      9.5027   1.5521   4.4518   H         1 RES1   0.0000
    84 H38      8.8862   1.3990   6.6306   H         1 RES1   0.0000
    85 H39      6.6139   1.7954   7.2096   H         1 RES1   0.0000
    86 Cl1      8.6861   5.9538  -0.0504   Cl        2 RES2  -1.0000
    87 P1       0.0000   0.0000   0.0000   P.3       3 RES3  -1.0000
    88 F1      -0.8868  -0.6779  -1.1326   F         3 RES3   0.0000
    89 F2      -1.1232  -0.3218   1.0717   F         3 RES3   0.0000
    90 F3      -0.6665   1.4349  -0.2793   F         3 RES3   0.0000
    91 F1B      0.8868   0.6779   1.1326   F         3 RES3   0.0000
    92 F2B      1.1232   0.3218  -1.0717   F         3 RES3   0.0000
    93 F3B      0.6665  -1.4349   0.2793   F         3 RES3   0.0000
    94 P2       4.9970   9.8108   0.0000   P.3       4 RES4  -1.0000
    95 F4       4.3030   8.7179  -0.8872   F         4 RES4   0.0000
    96 F5       6.1144   8.7885   0.3769   F         4 RES4   0.0000
    97 F6       5.8206  10.3092  -1.2523   F         4 RES4   0.0000
    98 F4B      5.6909  10.9037   0.8872   F         4 RES4   0.0000
    99 F5B      3.8795  10.8331  -0.3769   F         4 RES4   0.0000
   100 F6B      4.1733   9.3124   1.2523   F         4 RES4   0.0000
   101 O1       9.0747   9.4458   0.9952   O.3       5 RES5   0.0000
@<TRIPOS>BOND
     1     1     3    1
     2     2    12    1
     3     3    12    2
     4     4     1    1
     5     5    24    1
     6     6     1    1
     7     7     1    1
     8     8    36    1
     9     9     1    1
    10    10     1    1
    11    11    12    1
    12    13     2    1
    13    14     3    1
    14    15     4    2
    15    16     4    1
    16    17    16    1
    17    18    17   ar
    18    19    18   ar
    19    20    19   ar
    20    21    20   ar
    21    22    17   ar
    22    23    24    1
    23    24     6    2
    24    25     5    1
    25    26     6    1
    26    27     7    2
    27    28     7    1
    28    29    28    1
    29    30    29   ar
    30    31    30   ar
    31    32    31   ar
    32    33    32   ar
    33    34    29   ar
    34    35    36    1
    35    36     9    2
    36    37     8    1
    37    38     9    1
    38    39    10    2
    39    40    10    1
    40    41    40    1
    41    42    41   ar
    42    43    42   ar
    43    44    43   ar
    44    45    44   ar
    45    46    41   ar
    46    47     2    1
    47    48     5    1
    48    49     8    1
    49    50    11    1
    50    51    11    1
    51    52    11    1
    52    53    13    1
    53    54    15    1
    54    55    16    1
    55    56    16    1
    56    57    18    1
    57    58    19    1
    58    59    20    1
    59    60    21    1
    60    61    22    1
    61    62    23    1
    62    63    23    1
    63    64    23    1
    64    65    25    1
    65    66    27    1
    66    67    28    1
    67    68    28    1
    68    69    30    1
    69    70    31    1
    70    71    32    1
    71    72    33    1
    72    73    34    1
    73    74    35    1
    74    75    35    1
    75    76    35    1
    76    77    37    1
    77    78    39    1
    78    79    40    1
    79    80    40    1
    80    81    42    1
    81    82    43    1
    82    83    44    1
    83    84    45    1
    84    85    46    1
    85    13    14    2
    86    14    15    1
    87    21    22   ar
    88    25    26    2
    89    26    27    1
    90    33    34   ar
    91    37    38    2
    92    38    39    1
    93    45    46   ar
    94    87    88    1
    95    89    87    1
    96    90    87    1
    97    91    87    1
    98    92    87    1
    99    93    87    1
   100    94    95    1
   101    96    94    1
   102    97    94    1
   103    98    94    1
   104    99    94    1
   105   100    94    1
@<TRIPOS>SUBSTRUCTURE
     1 RES1        1 GROUP             0 ****  ****    0  
     2 RES2       86 GROUP             0 ****  ****    0  
     3 RES3       87 GROUP             0 ****  ****    0  
     4 RES4       94 GROUP             0 ****  ****    0  
     5 RES5      101 GROUP             0 ****  ****    0  
@<TRIPOS>CRYSIN
    9.9939   19.6216   19.6369   90.0000   91.6521   90.0000    14     1
