@<TRIPOS>MOLECULE
OLATEC
    98   106     3     0     0
SMALL
NO_CHARGES
****
Generated from the CSD

@<TRIPOS>ATOM
     1 Fe1      6.0967  10.3864   2.8851   Fe        1 RES1   0.0000
     2 F1       2.9984  13.2556   1.8478   F         1 RES1   0.0000
     3 F2       9.1872   7.5130   3.8641   F         1 RES1   0.0000
     4 O1       4.6804  11.9864   0.9008   O.3       1 RES1   0.0000
     5 O2       7.6015   7.9843   2.2445   O.3       1 RES1   0.0000
     6 O3       3.3307  11.1587   2.7584   O.3       1 RES1   0.0000
     7 O4       7.2071   8.4012   4.6509   O.3       1 RES1   0.0000
     8 O5       4.9185  13.0094   3.1050   O.3       1 RES1   0.0000
     9 O6       8.8553   9.7422   3.4319   O.3       1 RES1   0.0000
    10 N1       5.5490  10.9756   1.1042   N.2       1 RES1   0.0000
    11 N2       6.7421   8.9604   1.7889   N.2       1 RES1   0.0000
    12 N3       4.2556  10.2680   3.2628   N.2       1 RES1   0.0000
    13 N4       6.0973   9.1249   4.3165   N.2       1 RES1   0.0000
    14 N5       6.0270  12.2239   3.3664   N.2       1 RES1   0.0000
    15 N6       7.9211  10.7381   3.2997   N.2       1 RES1   0.0000
    16 N7       7.2598   8.2404  -0.3702   N.pl3     1 RES1   0.0000
    17 H1       7.6925   7.5822  -0.0260   H         1 RES1   0.0000
    18 N8       8.9390   6.0804  -0.6143   N.3       1 RES1   0.0000
    19 C1       5.8549  10.2247   0.1065   C.2       1 RES1   0.0000
    20 H2       5.5729  10.3917  -0.7646   H         1 RES1   0.0000
    21 C2       9.6411  12.6396   5.7130   C.ar      1 RES1   0.0000
    22 H3       8.8609  12.7781   6.1978   H         1 RES1   0.0000
    23 C3       6.6683   9.1150   0.4643   C.2       1 RES1   0.0000
    24 C4       3.8359   9.4664   4.2412   C.2       1 RES1   0.0000
    25 C5       4.9417   8.7154   4.8186   C.2       1 RES1   0.0000
    26 C6       7.1384  12.8437   3.6985   C.2       1 RES1   0.0000
    27 C7       8.2520  11.9158   3.7715   C.2       1 RES1   0.0000
    28 C8       7.2122   8.3394  -1.8279   C.3       1 RES1   0.0000
    29 H4       7.8826   8.9666  -2.1410   H         1 RES1   0.0000
    30 H5       6.3401   8.6561  -2.1121   H         1 RES1   0.0000
    31 C9       7.4822   6.9501  -2.4122   C.3       1 RES1   0.0000
    32 H6       6.7807   6.3501  -2.1121   H         1 RES1   0.0000
    33 H7       7.4257   7.0070  -3.3788   H         1 RES1   0.0000
    34 C10      8.7977   6.3563  -2.0495   C.3       1 RES1   0.0000
    35 H8       8.9136   5.5274  -2.5420   H         1 RES1   0.0000
    36 H9       9.5016   6.9637  -2.3227   H         1 RES1   0.0000
    37 C11     10.3490   5.9035  -0.2712   C.3       1 RES1   0.0000
    38 H10     10.7230   5.2008  -0.8079   H         1 RES1   0.0000
    39 H11     10.4255   5.6734   0.6579   H         1 RES1   0.0000
    40 H12     10.8232   6.7212  -0.4386   H         1 RES1   0.0000
    41 C12      8.2225   4.8965  -0.1904   C.3       1 RES1   0.0000
    42 H13      7.2968   4.9794  -0.4299   H         1 RES1   0.0000
    43 H14      8.2984   4.8000   0.7617   H         1 RES1   0.0000
    44 H15      8.5958   4.1245  -0.6232   H         1 RES1   0.0000
    45 C13      2.4357   9.3798   4.6518   C.ar      1 RES1   0.0000
    46 C14      1.4434   9.1051   3.6953   C.ar      1 RES1   0.0000
    47 H16      1.6729   9.0544   2.7959   H         1 RES1   0.0000
    48 C15      0.1295   8.9121   4.0785   C.ar      1 RES1   0.0000
    49 H17     -0.5203   8.7229   3.4423   H         1 RES1   0.0000
    50 C16     -0.2134   9.0000   5.4234   C.ar      1 RES1   0.0000
    51 H18     -1.0947   8.8627   5.6842   H         1 RES1   0.0000
    52 C17      0.7467   9.2932   6.3721   C.ar      1 RES1   0.0000
    53 H19      0.5058   9.3686   7.2683   H         1 RES1   0.0000
    54 C18      2.0700   9.4738   5.9970   C.ar      1 RES1   0.0000
    55 H20      2.7146   9.6569   6.6421   H         1 RES1   0.0000
    56 C19      4.7762   7.6565   5.8348   C.ar      1 RES1   0.0000
    57 C20      5.6539   7.5674   6.9160   C.ar      1 RES1   0.0000
    58 H21      6.3768   8.1488   6.9711   H         1 RES1   0.0000
    59 C21      5.4562   6.6222   7.9051   C.ar      1 RES1   0.0000
    60 H22      6.0444   6.5715   8.6244   H         1 RES1   0.0000
    61 C22      4.3788   5.7489   7.8240   C.ar      1 RES1   0.0000
    62 H23      4.2464   5.1130   8.4888   H         1 RES1   0.0000
    63 C23      3.5093   5.8256   6.7636   C.ar      1 RES1   0.0000
    64 H24      2.7849   5.2429   6.7172   H         1 RES1   0.0000
    65 C24      3.7042   6.7658   5.7638   C.ar      1 RES1   0.0000
    66 H25      3.1185   6.8041   5.0436   H         1 RES1   0.0000
    67 C25      7.2568  14.2985   3.9533   C.ar      1 RES1   0.0000
    68 C26      6.3193  14.9690   4.7413   C.ar      1 RES1   0.0000
    69 H26      5.5922  14.5076   5.0898   H         1 RES1   0.0000
    70 C27      6.4720  16.3237   5.0044   C.ar      1 RES1   0.0000
    71 H27      5.8447  16.7641   5.5313   H         1 RES1   0.0000
    72 C28      7.5522  17.0313   4.4888   C.ar      1 RES1   0.0000
    73 H28      7.6543  17.9369   4.6743   H         1 RES1   0.0000
    74 C29      8.4794  16.3657   3.6918   C.ar      1 RES1   0.0000
    75 H29      9.2013  16.8334   3.3384   H         1 RES1   0.0000
    76 C30      8.3402  15.0123   3.4195   C.ar      1 RES1   0.0000
    77 H30      8.9645  14.5793   2.8825   H         1 RES1   0.0000
    78 C31      9.5691  12.2276   4.3786   C.ar      1 RES1   0.0000
    79 C32     10.7540  12.0754   3.6463   C.ar      1 RES1   0.0000
    80 H31     10.7174  11.8119   2.7555   H         1 RES1   0.0000
    81 C33     11.9813  12.3154   4.2473   C.ar      1 RES1   0.0000
    82 H32     12.7679  12.2301   3.7596   H         1 RES1   0.0000
    83 C34     12.0248  12.6853   5.5803   C.ar      1 RES1   0.0000
    84 H33     12.8464  12.8288   5.9929   H         1 RES1   0.0000
    85 C35     10.8648  12.8412   6.3071   C.ar      1 RES1   0.0000
    86 H34     10.9086  13.0824   7.2048   H         1 RES1   0.0000
    87 B1       3.9766  12.3575   2.1548   B         1 RES1   0.0000
    88 B2       8.2049   8.3827   3.5202   B         1 RES1   0.0000
    89 Cl1     -0.1891   3.2342   1.8357   Cl        2 RES2   0.0000
    90 Cl2     -1.1833   1.4073  -0.1590   Cl        2 RES2   0.0000
    91 Cl3      1.3786   2.6924  -0.5425   Cl        2 RES2   0.0000
    92 C36      0.2630   2.0190   0.6368   C.3       2 RES2   0.0000
    93 H35      0.7050   1.2755   1.0964   H         2 RES2   0.0000
    94 Cl4      2.1563   3.1472   4.5612   Cl        3 RES3   0.0000
    95 Cl5      0.5602   3.5349   6.9463   Cl        3 RES3   0.0000
    96 Cl6      0.2185   5.3056   4.6781   Cl        3 RES3   0.0000
    97 C37      0.5837   3.6544   5.1781   C.3       3 RES3   0.0000
    98 H36     -0.1032   3.0569   4.8157   H         3 RES3   0.0000
@<TRIPOS>BOND
     1     1    10    1
     2     2    87    1
     3     3    88    1
     4     4    10    1
     5     5    11    1
     6     6    12    1
     7     7    13    1
     8     8    14    1
     9     9    15    1
    10    10    19    2
    11    11     1    1
    12    12     1    1
    13    13     1    1
    14    14     1    1
    15    15     1    1
    16    16    17    1
    17    18    34    1
    18    19    20    1
    19    21    22    1
    20    23    11    2
    21    24    12    2
    22    25    13    2
    23    26    14    2
    24    27    15    2
    25    28    16    1
    26    29    28    1
    27    30    28    1
    28    31    28    1
    29    32    31    1
    30    33    31    1
    31    34    31    1
    32    35    34    1
    33    36    34    1
    34    37    18    1
    35    38    37    1
    36    39    37    1
    37    40    37    1
    38    41    18    1
    39    42    41    1
    40    43    41    1
    41    44    41    1
    42    45    24    1
    43    46    45   ar
    44    47    46    1
    45    48    46   ar
    46    49    48    1
    47    50    48   ar
    48    51    50    1
    49    52    50   ar
    50    53    52    1
    51    54    45   ar
    52    55    54    1
    53    56    25    1
    54    57    56   ar
    55    58    57    1
    56    59    57   ar
    57    60    59    1
    58    61    59   ar
    59    62    61    1
    60    63    61   ar
    61    64    63    1
    62    65    56   ar
    63    66    65    1
    64    67    26    1
    65    68    67   ar
    66    69    68    1
    67    70    68   ar
    68    71    70    1
    69    72    70   ar
    70    73    72    1
    71    74    72   ar
    72    75    74    1
    73    76    67   ar
    74    77    76    1
    75    78    21   ar
    76    79    78   ar
    77    80    79    1
    78    81    79   ar
    79    82    81    1
    80    83    81   ar
    81    84    83    1
    82    85    21   ar
    83    86    85    1
    84    87     4    1
    85    88     5    1
    86     6    87    1
    87     7    88    1
    88     8    87    1
    89     9    88    1
    90    16    23    1
    91    19    23    1
    92    24    25    1
    93    26    27    1
    94    27    78    1
    95    52    54   ar
    96    63    65   ar
    97    74    76   ar
    98    83    85   ar
    99    89    92    1
   100    90    92    1
   101    91    92    1
   102    92    93    1
   103    94    97    1
   104    95    97    1
   105    96    97    1
   106    97    98    1
@<TRIPOS>SUBSTRUCTURE
     1 RES1        1 GROUP             0 ****  ****    0  
     2 RES2       89 GROUP             0 ****  ****    0  
     3 RES3       94 GROUP             0 ****  ****    0  
@<TRIPOS>CRYSIN
   11.9730   12.3711   29.3140   90.0000  100.1660   90.0000    14     1
