@<TRIPOS>MOLECULE
OLEFOB
   129   136     2     0     0
SMALL
USER_CHARGES
****
Generated from the CSD

@<TRIPOS>ATOM
     1 Fe1      4.1101   6.1713  13.8233   Fe        1 RES1   1.0000
     2 Br1      2.1626   4.8907  12.8979   Br        1 RES1   0.0000
     3 P1       4.9213   4.1712  14.4888   P.3       1 RES1   0.0000
     4 P2       2.9606   7.2128  15.4916   P.3       1 RES1   0.0000
     5 N1       4.9592   5.7001  12.1098   N.2       1 RES1   0.0000
     6 N2       3.5340   7.7579  12.8077   N.2       1 RES1   0.0000
     7 O1       6.4257   7.6699  14.6091   O.2       1 RES1   0.0000
     8 C1       5.0172   6.8311  11.1547   C.3       1 RES1   0.0000
     9 H1       5.7602   7.4373  11.4407   H         1 RES1   0.0000
    10 C2       3.6901   7.5951  11.3336   C.3       1 RES1   0.0000
    11 H2       2.9575   6.9856  11.0288   H         1 RES1   0.0000
    12 C3       5.3797   4.5242  11.8275   C.2       1 RES1   0.0000
    13 H3       5.8001   4.3548  10.9911   H         1 RES1   0.0000
    14 C4       5.2094   3.4330  12.8089   C.3       1 RES1   0.0000
    15 H4       6.0207   2.8650  12.8249   H         1 RES1   0.0000
    16 H5       4.4381   2.8666  12.5518   H         1 RES1   0.0000
    17 C5       3.1922   8.8607  13.3546   C.2       1 RES1   0.0000
    18 H6       2.9936   9.6214  12.8226   H         1 RES1   0.0000
    19 C6       3.1084   8.9354  14.8329   C.3       1 RES1   0.0000
    20 H7       2.3203   9.4702  15.1013   H         1 RES1   0.0000
    21 H8       3.9209   9.3689  15.1978   H         1 RES1   0.0000
    22 C7       3.7674   3.0311  15.4111   C.3       1 RES1   0.0000
    23 H9       2.8427   3.2918  15.1319   H         1 RES1   0.0000
    24 C8       3.9055   1.5512  15.0707   C.3       1 RES1   0.0000
    25 H10      3.2451   1.0347  15.5792   H         1 RES1   0.0000
    26 H11      4.8083   1.2456  15.3037   H         1 RES1   0.0000
    27 H12      3.7545   1.4200  14.1126   H         1 RES1   0.0000
    28 C9       3.8474   3.3101  16.9344   C.3       1 RES1   0.0000
    29 H13      3.1213   2.8367  17.3918   H         1 RES1   0.0000
    30 H14      3.7610   4.2734  17.0952   H         1 RES1   0.0000
    31 H15      4.7103   2.9979  17.2788   H         1 RES1   0.0000
    32 C10      6.6217   4.0724  15.2590   C.3       1 RES1   0.0000
    33 H16      6.5985   4.5939  16.1112   H         1 RES1   0.0000
    34 C11      7.6961   4.7002  14.3645   C.3       1 RES1   0.0000
    35 H17      8.5242   4.8132  14.8777   H         1 RES1   0.0000
    36 H18      7.3866   5.5738  14.0467   H         1 RES1   0.0000
    37 H19      7.8651   4.1140  13.5971   H         1 RES1   0.0000
    38 C12      7.0499   2.6374  15.6004   C.3       1 RES1   0.0000
    39 H20      7.9244   2.6557  16.0453   H         1 RES1   0.0000
    40 H21      7.1118   2.1093  14.7788   H         1 RES1   0.0000
    41 H22      6.3883   2.2339  16.2006   H         1 RES1   0.0000
    42 C13      1.1363   7.0387  15.7110   C.3       1 RES1   0.0000
    43 H23      0.8809   7.7014  16.4172   H         1 RES1   0.0000
    44 C14      0.2979   7.3858  14.4963   C.3       1 RES1   0.0000
    45 H24     -0.6462   7.4340  14.7552   H         1 RES1   0.0000
    46 H25      0.4140   6.6949  13.8113   H         1 RES1   0.0000
    47 H26      0.5830   8.2528  14.1385   H         1 RES1   0.0000
    48 C15      0.7545   5.6602  16.2689   C.3       1 RES1   0.0000
    49 H27     -0.2077   5.6403  16.4596   H         1 RES1   0.0000
    50 H28      1.2537   5.4925  17.0952   H         1 RES1   0.0000
    51 H29      0.9712   4.9693  15.6098   H         1 RES1   0.0000
    52 C16      3.5121   7.2862  17.2764   C.3       1 RES1   0.0000
    53 H30      3.1445   6.4724  17.7284   H         1 RES1   0.0000
    54 C17      2.9613   8.4953  18.0227   C.3       1 RES1   0.0000
    55 H31      3.1922   8.4289  18.9714   H         1 RES1   0.0000
    56 H32      1.9863   8.5219  17.9238   H         1 RES1   0.0000
    57 H33      3.3496   9.3141  17.6484   H         1 RES1   0.0000
    58 C18      4.9979   7.2380  17.4412   C.3       1 RES1   0.0000
    59 H34      5.2210   7.2281  18.3946   H         1 RES1   0.0000
    60 H35      5.3977   8.0269  17.0175   H         1 RES1   0.0000
    61 H36      5.3474   6.4259  17.0151   H         1 RES1   0.0000
    62 C19      5.5590   7.0304  14.3240   C.1       1 RES1   0.0000
    63 C20      3.5624   8.8790  10.5347   C.ar      1 RES1   0.0000
    64 C21      4.6613   9.7243  10.3579   C.ar      1 RES1   0.0000
    65 H37      5.5125   9.4785  10.6992   H         1 RES1   0.0000
    66 C22      4.5039  10.9152   9.6870   C.ar      1 RES1   0.0000
    67 H38      5.2494  11.4898   9.5575   H         1 RES1   0.0000
    68 C23      3.2490  11.2772   9.1950   C.ar      1 RES1   0.0000
    69 H39      3.1432  12.1043   8.7383   H         1 RES1   0.0000
    70 C24      2.1746  10.4584   9.3623   C.ar      1 RES1   0.0000
    71 H40      1.3259  10.7109   9.0208   H         1 RES1   0.0000
    72 C25      2.3229   9.2560  10.0328   C.ar      1 RES1   0.0000
    73 H41      1.5735   8.6863  10.1507   H         1 RES1   0.0000
    74 C26      5.2778   6.4259   9.7157   C.ar      1 RES1   0.0000
    75 C27      4.3582   5.6469   9.0224   C.ar      1 RES1   0.0000
    76 H42      3.5456   5.3928   9.4421   H         1 RES1   0.0000
    77 C28      4.6161   5.2350   7.7232   C.ar      1 RES1   0.0000
    78 H43      3.9957   4.6853   7.2599   H         1 RES1   0.0000
    79 C29      5.7821   5.6320   7.1177   C.ar      1 RES1   0.0000
    80 H44      5.9588   5.3629   6.2241   H         1 RES1   0.0000
    81 C30      6.7030   6.4142   7.7802   C.ar      1 RES1   0.0000
    82 H45      7.5014   6.6850   7.3400   H         1 RES1   0.0000
    83 C31      6.4592   6.8095   9.0970   C.ar      1 RES1   0.0000
    84 H46      7.0977   7.3360   9.5645   H         1 RES1   0.0000
    85 C32      1.9592  12.6840  14.4144   C.ar      2 RES2   0.0000
    86 C33      1.1208  12.2223  15.4518   C.ar      2 RES2   0.0000
    87 H47      1.2808  12.5279  16.3372   H         2 RES2   0.0000
    88 C34      0.0748  11.3437  15.2308   C.ar      2 RES2   0.0000
    89 H48     -0.4592  11.0530  15.9605   H         2 RES2   0.0000
    90 C35     -0.2025  10.8836  13.9455   C.ar      2 RES2   0.0000
    91 H49     -0.9351  10.3007  13.7830   H         2 RES2   0.0000
    92 C36      0.6114  11.2938  12.9285   C.ar      2 RES2   0.0000
    93 H50      0.4463  10.9816  12.0457   H         2 RES2   0.0000
    94 C37      1.6728  12.1592  13.1524   C.ar      2 RES2   0.0000
    95 H51      2.2262  12.4050  12.4200   H         2 RES2   0.0000
    96 C38      3.1767  14.5541  16.0246   C.ar      2 RES2   0.0000
    97 C39      4.2872  14.8713  16.8082   C.ar      2 RES2   0.0000
    98 H52      5.1346  14.5226  16.5585   H         2 RES2   0.0000
    99 C40      4.2060  15.6802  17.9408   C.ar      2 RES2   0.0000
   100 H53      4.9863  15.8562  18.4511   H         2 RES2   0.0000
   101 C41      3.0129  16.2183  18.3216   C.ar      2 RES2   0.0000
   102 H54      2.9588  16.7614  19.0985   H         2 RES2   0.0000
   103 C42      1.8908  15.9692  17.5707   C.ar      2 RES2   0.0000
   104 H55      1.0576  16.3545  17.8155   H         2 RES2   0.0000
   105 C43      1.9811  15.1487  16.4445   C.ar      2 RES2   0.0000
   106 H56      1.1930  14.9843  15.9393   H         2 RES2   0.0000
   107 C44      3.4166  14.7617  13.4299   C.ar      2 RES2   0.0000
   108 C45      2.3268  15.2550  12.7204   C.ar      2 RES2   0.0000
   109 H57      1.4639  14.9145  12.9261   H         2 RES2   0.0000
   110 C46      2.4364  16.2266  11.7225   C.ar      2 RES2   0.0000
   111 H58      1.6638  16.5339  11.2618   H         2 RES2   0.0000
   112 C47      3.6823  16.7332  11.4148   C.ar      2 RES2   0.0000
   113 H59      3.7739  17.3875  10.7322   H         2 RES2   0.0000
   114 C48      4.7838  16.2930  12.0952   C.ar      2 RES2   0.0000
   115 H60      5.6402  16.6402  11.8762   H         2 RES2   0.0000
   116 C49      4.6638  15.3463  13.1034   C.ar      2 RES2   0.0000
   117 H61      5.4377  15.0839  13.5853   H         2 RES2   0.0000
   118 C50      4.5491  12.6225  14.6660   C.ar      2 RES2   0.0000
   119 C51      4.9837  11.9599  15.8322   C.ar      2 RES2   0.0000
   120 H62      4.5336  12.1409  16.6503   H         2 RES2   0.0000
   121 C52      6.0362  11.0563  15.8428   C.ar      2 RES2   0.0000
   122 H63      6.2928  10.6378  16.6550   H         2 RES2   0.0000
   123 C53      6.7120  10.7607  14.6705   C.ar      2 RES2   0.0000
   124 H64      7.4459  10.1595  14.6752   H         2 RES2   0.0000
   125 C54      6.3070  11.3503  13.5029   C.ar      2 RES2   0.0000
   126 H65      6.7559  11.1477  12.6907   H         2 RES2   0.0000
   127 C55      5.2391  12.2455  13.5052   C.ar      2 RES2   0.0000
   128 H66      4.9644  12.6192  12.6766   H         2 RES2   0.0000
   129 B1       3.2825  13.6539  14.6540   B         2 RES2  -1.0000
@<TRIPOS>BOND
     1     1     2    1
     2     3     1    1
     3     4     1    1
     4     5     1    1
     5     6     1    1
     6     7    62    3
     7     8     5    1
     8     9     8    1
     9    10     6    1
    10    11    10    1
    11    12     5    2
    12    13    12    1
    13    14     3    1
    14    15    14    1
    15    16    14    1
    16    17     6    2
    17    18    17    1
    18    19     4    1
    19    20    19    1
    20    21    19    1
    21    22     3    1
    22    23    22    1
    23    24    22    1
    24    25    24    1
    25    26    24    1
    26    27    24    1
    27    28    22    1
    28    29    28    1
    29    30    28    1
    30    31    28    1
    31    32     3    1
    32    33    32    1
    33    34    32    1
    34    35    34    1
    35    36    34    1
    36    37    34    1
    37    38    32    1
    38    39    38    1
    39    40    38    1
    40    41    38    1
    41    42     4    1
    42    43    42    1
    43    44    42    1
    44    45    44    1
    45    46    44    1
    46    47    44    1
    47    48    42    1
    48    49    48    1
    49    50    48    1
    50    51    48    1
    51    52     4    1
    52    53    52    1
    53    54    52    1
    54    55    54    1
    55    56    54    1
    56    57    54    1
    57    58    52    1
    58    59    58    1
    59    60    58    1
    60    61    58    1
    61    62     1    1
    62    63    10    1
    63    64    63   ar
    64    65    64    1
    65    66    64   ar
    66    67    66    1
    67    68    66   ar
    68    69    68    1
    69    70    68   ar
    70    71    70    1
    71    72    63   ar
    72    73    72    1
    73    74     8    1
    74    75    74   ar
    75    76    75    1
    76    77    75   ar
    77    78    77    1
    78    79    77   ar
    79    80    79    1
    80    81    79   ar
    81    82    81    1
    82    83    74   ar
    83    84    83    1
    84     8    10    1
    85    12    14    1
    86    17    19    1
    87    70    72   ar
    88    81    83   ar
    89    85    86   ar
    90    86    87    1
    91    88    86   ar
    92    89    88    1
    93    90    88   ar
    94    91    90    1
    95    92    90   ar
    96    93    92    1
    97    94    85   ar
    98    95    94    1
    99    96    97   ar
   100    97    98    1
   101    99    97   ar
   102   100    99    1
   103   101    99   ar
   104   102   101    1
   105   103   101   ar
   106   104   103    1
   107   105    96   ar
   108   106   105    1
   109   107   108   ar
   110   108   109    1
   111   110   108   ar
   112   111   110    1
   113   112   110   ar
   114   113   112    1
   115   114   112   ar
   116   115   114    1
   117   116   107   ar
   118   117   116    1
   119   118   119   ar
   120   119   120    1
   121   121   119   ar
   122   122   121    1
   123   123   121   ar
   124   124   123    1
   125   125   123   ar
   126   126   125    1
   127   127   118   ar
   128   128   127    1
   129   129    85    1
   130    92    94   ar
   131    96   129    1
   132   103   105   ar
   133   107   129    1
   134   114   116   ar
   135   118   129    1
   136   125   127   ar
@<TRIPOS>SUBSTRUCTURE
     1 RES1        1 GROUP             0 ****  ****    0  
     2 RES2       85 GROUP             0 ****  ****    0  
@<TRIPOS>CRYSIN
   12.8978   16.6086   23.5406   90.0000   90.0000   90.0000    19     1
