@<TRIPOS>MOLECULE
OLUYEB
    75    81     3     0     0
SMALL
USER_CHARGES
****
Generated from the CSD

@<TRIPOS>ATOM
     1 Fe1      0.3489   8.3772   2.7374   Fe        1 RES1   2.0000
     2 Cl1     -0.9312   7.0346   3.9764   Cl        1 RES1   0.0000
     3 N1      -1.2657   9.3793   2.1622   N.ar      1 RES1   0.0000
     4 N2       0.3520   9.9787   4.0358   N.ar      1 RES1   0.0000
     5 N3      -0.0772   7.4192   0.9462   N.3       1 RES1   0.0000
     6 N4       2.1319   7.5438   3.3053   N.ar      1 RES1   0.0000
     7 N5       1.7130   9.4567   1.5259   N.3       1 RES1   0.0000
     8 C1       1.2663  10.2044   5.0111   C.ar      1 RES1   0.0000
     9 H1       1.9371   9.5527   5.1798   H         1 RES1   0.0000
    10 C2       0.5992   8.1113  -0.2064   C.3       1 RES1   0.0000
    11 H2       0.0249   8.8623  -0.5292   H         1 RES1   0.0000
    12 C3      -1.5795  10.5327   2.7633   C.ar      1 RES1   0.0000
    13 C4      -0.6273  10.9066   3.8277   C.ar      1 RES1   0.0000
    14 C5       1.9403   8.6569   0.2569   C.3       1 RES1   0.0000
    15 H3       2.5792   7.9075   0.4290   H         1 RES1   0.0000
    16 C6      -2.0244   8.8556   1.1920   C.ar      1 RES1   0.0000
    17 C7      -1.5591   7.5085   0.7356   C.3       1 RES1   0.0000
    18 H4      -1.7718   7.3855  -0.2235   H         1 RES1   0.0000
    19 H5      -2.0180   6.7995   1.2511   H         1 RES1   0.0000
    20 C8       0.7412   7.0488  -1.3264   C.3       1 RES1   0.0000
    21 H6       0.1350   7.2559  -2.0817   H         1 RES1   0.0000
    22 H7       1.6717   7.0201  -1.6638   H         1 RES1   0.0000
    23 C9       3.2376   8.2595   3.0073   C.ar      1 RES1   0.0000
    24 C10      2.9924   9.5443   2.2649   C.3       1 RES1   0.0000
    25 H8       2.9576  10.2987   2.9054   H         1 RES1   0.0000
    26 H9       3.7338   9.7110   1.6304   H         1 RES1   0.0000
    27 C11      0.3826   5.9930   0.8195   C.3       1 RES1   0.0000
    28 H10     -0.2274   5.3817   1.3041   H         1 RES1   0.0000
    29 H11      1.2980   5.8852   1.1817   H         1 RES1   0.0000
    30 C12      4.5040   7.8604   3.4192   C.ar      1 RES1   0.0000
    31 H12      5.2696   8.3858   3.2214   H         1 RES1   0.0000
    32 C13      1.3328  10.8173   1.0267   C.3       1 RES1   0.0000
    33 H13      1.5126  11.5060   1.7152   H         1 RES1   0.0000
    34 H14      0.3715  10.8476   0.7895   H         1 RES1   0.0000
    35 C14     -0.6953  12.0634   4.5769   C.ar      1 RES1   0.0000
    36 H15     -1.3911  12.6932   4.4245   H         1 RES1   0.0000
    37 C15     -3.4728  10.7382   1.3427   C.ar      1 RES1   0.0000
    38 H16     -4.2353  11.2198   1.0447   H         1 RES1   0.0000
    39 C16      2.2087  11.0547  -0.2209   C.3       1 RES1   0.0000
    40 H17      1.7138  11.5767  -0.9025   H         1 RES1   0.0000
    41 H18      3.0347  11.5447   0.0188   H         1 RES1   0.0000
    42 C17      0.2633  12.3025   5.5583   C.ar      1 RES1   0.0000
    43 H19      0.2434  13.1007   6.0729   H         1 RES1   0.0000
    44 C18     -2.6989  11.2551   2.3651   C.ar      1 RES1   0.0000
    45 H20     -2.9256  12.0769   2.7830   H         1 RES1   0.0000
    46 C19      0.3556   5.7101  -0.6713   C.3       1 RES1   0.0000
    47 H21     -0.5474   5.4238  -0.9591   H         1 RES1   0.0000
    48 H22      1.0077   5.0028  -0.9077   H         1 RES1   0.0000
    49 C20     -3.1551   9.5291   0.7467   C.ar      1 RES1   0.0000
    50 H23     -3.6946   9.1705   0.0522   H         1 RES1   0.0000
    51 C21      1.2383  11.3578   5.7646   C.ar      1 RES1   0.0000
    52 H24      1.8989  11.5010   6.4317   H         1 RES1   0.0000
    53 C22      2.5432   9.6504  -0.7484   C.3       1 RES1   0.0000
    54 H25      2.1504   9.5157  -1.6475   H         1 RES1   0.0000
    55 H26      3.5242   9.5291  -0.8109   H         1 RES1   0.0000
    56 C23      4.6168   6.6800   4.1222   C.ar      1 RES1   0.0000
    57 H27      5.4674   6.3870   4.4262   H         1 RES1   0.0000
    58 C24      3.4864   5.9222   4.3860   C.ar      1 RES1   0.0000
    59 H28      3.5581   5.0938   4.8458   H         1 RES1   0.0000
    60 C25      2.2563   6.3870   3.9724   C.ar      1 RES1   0.0000
    61 H29      1.4789   5.8768   4.1642   H         1 RES1   0.0000
    62 P1       5.3459  10.9645   5.7812   P.3       2 RES2  -1.0000
    63 F1       4.7867  10.9823   4.2841   F         2 RES2   0.0000
    64 F2       4.3052  12.1031   6.1953   F         2 RES2   0.0000
    65 F3       4.2731   9.8407   6.1619   F         2 RES2   0.0000
    66 F4       6.4241  12.0934   5.3973   F         2 RES2   0.0000
    67 F5       5.8898  10.9588   7.2931   F         2 RES2   0.0000
    68 F6       6.4013   9.8322   5.3759   F         2 RES2   0.0000
    69 P2       5.1744   5.9423  -0.6003   P.3       3 RES3  -1.0000
    70 F7       5.2521   4.5280   0.1653   F         3 RES3   0.0000
    71 F8       4.7933   5.1477  -1.9250   F         3 RES3   0.0000
    72 F9       6.7079   5.7875  -1.0147   F         3 RES3   0.0000
    73 F10      5.6231   6.6632   0.7493   F         3 RES3   0.0000
    74 F11      3.6634   6.0014  -0.1627   F         3 RES3   0.0000
    75 F12      5.1501   7.3115  -1.3487   F         3 RES3   0.0000
@<TRIPOS>BOND
     1     1     2    1
     2     3     1    1
     3     4     1    1
     4     5     1    1
     5     6     1    1
     6     7     1    1
     7     8     4   ar
     8     9     8    1
     9    10     5    1
    10    11    10    1
    11    12     3   ar
    12    13     4   ar
    13    14     7    1
    14    15    14    1
    15    16     3   ar
    16    17     5    1
    17    18    17    1
    18    19    17    1
    19    20    10    1
    20    21    20    1
    21    22    20    1
    22    23     6   ar
    23    24     7    1
    24    25    24    1
    25    26    24    1
    26    27     5    1
    27    28    27    1
    28    29    27    1
    29    30    23   ar
    30    31    30    1
    31    32     7    1
    32    33    32    1
    33    34    32    1
    34    35    13   ar
    35    36    35    1
    36    37    38    1
    37    39    32    1
    38    40    39    1
    39    41    39    1
    40    42    35   ar
    41    43    42    1
    42    44    12   ar
    43    45    44    1
    44    46    20    1
    45    47    46    1
    46    48    46    1
    47    49    16   ar
    48    50    49    1
    49    51     8   ar
    50    52    51    1
    51    53    14    1
    52    54    53    1
    53    55    53    1
    54    56    30   ar
    55    57    56    1
    56    58    56   ar
    57    59    58    1
    58    60     6   ar
    59    61    60    1
    60    10    14    1
    61    12    13    1
    62    16    17    1
    63    23    24    1
    64    27    46    1
    65    37    44   ar
    66    37    49   ar
    67    39    53    1
    68    42    51   ar
    69    58    60   ar
    70    62    63    1
    71    64    62    1
    72    65    62    1
    73    66    62    1
    74    67    62    1
    75    68    62    1
    76    69    70    1
    77    71    69    1
    78    72    69    1
    79    73    69    1
    80    74    69    1
    81    75    69    1
@<TRIPOS>SUBSTRUCTURE
     1 RES1        1 GROUP             0 ****  ****    0  
     2 RES2       62 GROUP             0 ****  ****    0  
     3 RES3       69 GROUP             0 ****  ****    0  
@<TRIPOS>CRYSIN
   10.1753   16.8389    9.2498   90.0000  112.2180   90.0000     4     1
