@<TRIPOS>MOLECULE
OMADAI
    78    83     3     0     0
SMALL
USER_CHARGES
****
Generated from the CSD

@<TRIPOS>ATOM
     1 Fe1     11.7486   2.6772  12.5893   Fe        1 RES1   2.0000
     2 N1      12.7490   2.2135  10.9196   N.ar      1 RES1   0.0000
     3 N2      10.8657   3.9754  11.2404   N.3       1 RES1   0.0000
     4 N3      12.8720   4.2743  13.0179   N.ar      1 RES1   0.0000
     5 N4      10.2708   3.3439  13.9134   N.3       1 RES1   0.0000
     6 N5      10.4009   1.2118  12.2115   N.ar      1 RES1   0.0000
     7 O1      12.7010   1.7166  13.7658   O.3       1 RES1   0.0000
     8 C1      13.8735   1.4927  10.8927   C.ar      1 RES1   0.0000
     9 H1      14.2751   1.2624  11.6994   H         1 RES1   0.0000
    10 C2      14.4580   1.0802   9.7272   C.ar      1 RES1   0.0000
    11 H2      15.2185   0.5468   9.7388   H         1 RES1   0.0000
    12 C3      13.8923   1.4754   8.5287   C.ar      1 RES1   0.0000
    13 H3      14.2802   1.2183   7.7220   H         1 RES1   0.0000
    14 C4      12.7422   2.2601   8.5326   C.ar      1 RES1   0.0000
    15 H4      12.3576   2.5479   7.7356   H         1 RES1   0.0000
    16 C5      12.1833   2.6016   9.7582   C.ar      1 RES1   0.0000
    17 C6      10.8845   3.3154   9.9033   C.3       1 RES1   0.0000
    18 H5      10.7888   3.9792   9.2016   H         1 RES1   0.0000
    19 H6      10.1496   2.6861   9.8319   H         1 RES1   0.0000
    20 C7      11.6775   5.2512  11.1545   C.3       1 RES1   0.0000
    21 H7      12.1953   5.2474  10.3361   H         1 RES1   0.0000
    22 H8      11.0742   6.0110  11.1234   H         1 RES1   0.0000
    23 C8      12.6020   5.4047  12.3238   C.ar      1 RES1   0.0000
    24 C9      13.1848   6.6000  12.6438   C.ar      1 RES1   0.0000
    25 H9      12.9865   7.3675  12.1551   H         1 RES1   0.0000
    26 C10     14.0735   6.6576  13.7084   C.ar      1 RES1   0.0000
    27 H10     14.4751   7.4634  13.9411   H         1 RES1   0.0000
    28 C11     14.3571   5.5218  14.4143   C.ar      1 RES1   0.0000
    29 H11     14.9416   5.5448  15.1357   H         1 RES1   0.0000
    30 C12     13.7539   4.3380  14.0303   C.ar      1 RES1   0.0000
    31 H12     13.9675   3.5571  14.4899   H         1 RES1   0.0000
    32 C13      9.4797   4.2267  11.7316   C.3       1 RES1   0.0000
    33 H13      8.9140   3.4593  11.5462   H         1 RES1   0.0000
    34 H14      9.1020   5.0018  11.2863   H         1 RES1   0.0000
    35 C14      9.5566   4.4702  13.2221   C.3       1 RES1   0.0000
    36 H15     10.0266   5.3011  13.3904   H         1 RES1   0.0000
    37 H16      8.6594   4.5529  13.5824   H         1 RES1   0.0000
    38 C15      9.3550   2.1939  14.1478   C.3       1 RES1   0.0000
    39 H17      8.4595   2.5306  14.3096   H         1 RES1   0.0000
    40 H18      9.6404   1.7210  14.9456   H         1 RES1   0.0000
    41 C16      9.3139   1.2350  13.0012   C.ar      1 RES1   0.0000
    42 C17      8.2663   0.3473  12.8532   C.ar      1 RES1   0.0000
    43 H19      7.5161   0.4048  13.3981   H         1 RES1   0.0000
    44 C18      8.3552  -0.6312  11.8797   C.ar      1 RES1   0.0000
    45 H20      7.6665  -1.2452  11.7634   H         1 RES1   0.0000
    46 C19      9.4848  -0.6888  11.0769   C.ar      1 RES1   0.0000
    47 H21      9.5686  -1.3430  10.4234   H         1 RES1   0.0000
    48 C20     10.4743   0.2379  11.2689   C.ar      1 RES1   0.0000
    49 H22     11.2297   0.1995  10.7278   H         1 RES1   0.0000
    50 C21     10.8161   3.8002  15.2489   C.3       1 RES1   0.0000
    51 H23     11.4929   3.1676  15.5352   H         1 RES1   0.0000
    52 H24     11.2519   4.6584  15.1241   H         1 RES1   0.0000
    53 C22      9.8010   3.9402  16.3562   C.ar      1 RES1   0.0000
    54 C23      8.9551   5.0496  16.4641   C.ar      1 RES1   0.0000
    55 H25      9.0251   5.7462  15.8513   H         1 RES1   0.0000
    56 C24      8.0134   5.1131  17.4802   C.ar      1 RES1   0.0000
    57 H26      7.4375   5.8422  17.5287   H         1 RES1   0.0000
    58 C25      7.9211   4.1058  18.4188   C.ar      1 RES1   0.0000
    59 H27      7.2820   4.1519  19.0917   H         1 RES1   0.0000
    60 C26      8.7842   3.0314  18.3471   C.ar      1 RES1   0.0000
    61 H28      8.7346   2.3580  18.9870   H         1 RES1   0.0000
    62 C27      9.7207   2.9524  17.3315   C.ar      1 RES1   0.0000
    63 H29     10.3034   2.2275  17.2999   H         1 RES1   0.0000
    64 C28     12.6277   0.3741  14.0788   C.2       1 RES1   0.0000
    65 P1       0.3960   1.1207   6.6826   P.3       2 RES2  -1.0000
    66 F1       1.0902  -0.2300   6.1751   F         2 RES2   0.0000
    67 F2       1.7539   1.5479   7.4141   F         2 RES2   0.0000
    68 F3       0.8846   1.8657   5.3554   F         2 RES2   0.0000
    69 F4      -0.3013   2.4739   7.1881   F         2 RES2   0.0000
    70 F5      -0.9630   0.6949   5.9523   F         2 RES2   0.0000
    71 F6      -0.0796   0.3891   8.0086   F         2 RES2   0.0000
    72 P2      13.8708   2.5111  17.9189   P.3       3 RES3  -1.0000
    73 F7      14.5656   1.0689  18.1370   F         3 RES3   0.0000
    74 F8      13.0566   3.8652  17.6739   F         3 RES3   0.0000
    75 F9      14.8374   2.8426  16.7251   F         3 RES3   0.0000
    76 F10     12.9199   1.7977  16.8461   F         3 RES3   0.0000
    77 F11     12.8857   2.0944  19.0473   F         3 RES3   0.0000
    78 F12     14.7946   3.1676  18.9657   F         3 RES3   0.0000
@<TRIPOS>BOND
     1     1     2    1
     2     2     8   ar
     3     3     1    1
     4     4     1    1
     5     5     1    1
     6     6     1    1
     7     7     1    1
     8     8     9    1
     9    10     8   ar
    10    11    10    1
    11    12    10   ar
    12    13    12    1
    13    14    12   ar
    14    15    14    1
    15    16     2   ar
    16    17     3    1
    17    18    17    1
    18    19    17    1
    19    20     3    1
    20    21    20    1
    21    22    20    1
    22    23     4   ar
    23    24    23   ar
    24    25    24    1
    25    26    24   ar
    26    27    26    1
    27    28    26   ar
    28    29    28    1
    29    30     4   ar
    30    31    30    1
    31    32     3    1
    32    33    32    1
    33    34    32    1
    34    35     5    1
    35    36    35    1
    36    37    35    1
    37    38     5    1
    38    39    38    1
    39    40    38    1
    40    41     6   ar
    41    42    41   ar
    42    43    42    1
    43    44    42   ar
    44    45    44    1
    45    46    44   ar
    46    47    46    1
    47    48     6   ar
    48    49    48    1
    49    50     5    1
    50    51    50    1
    51    52    50    1
    52    53    50    1
    53    54    53   ar
    54    55    54    1
    55    56    54   ar
    56    57    56    1
    57    58    56   ar
    58    59    58    1
    59    60    58   ar
    60    61    60    1
    61    62    53   ar
    62    63    62    1
    63    64     7    1
    64    14    16   ar
    65    16    17    1
    66    20    23    1
    67    28    30   ar
    68    32    35    1
    69    38    41    1
    70    46    48   ar
    71    60    62   ar
    72    65    66    1
    73    67    65    1
    74    68    65    1
    75    69    65    1
    76    70    65    1
    77    71    65    1
    78    72    73    1
    79    74    72    1
    80    75    72    1
    81    76    72    1
    82    77    72    1
    83    78    72    1
@<TRIPOS>SUBSTRUCTURE
     1 RES1        1 GROUP             0 ****  ****    0  
     2 RES2       65 GROUP             0 ****  ****    0  
     3 RES3       72 GROUP             0 ****  ****    0  
@<TRIPOS>CRYSIN
   17.0898   19.1861   19.3923   90.0000   90.0000   90.0000    61     1
