@<TRIPOS>MOLECULE
OMADAI01
    81    86     3     0     0
SMALL
USER_CHARGES
****
Generated from the CSD

@<TRIPOS>ATOM
     1 Fe1      5.2598   7.0170   3.0461   Fe        1 RES1   2.0000
     2 N1       4.3455   7.4089   1.2021   N.ar      1 RES1   0.0000
     3 N2       6.1883   5.5653   1.6647   N.3       1 RES1   0.0000
     4 N3       4.1522   5.2789   3.4757   N.ar      1 RES1   0.0000
     5 N4       6.8954   6.2786   4.3595   N.3       1 RES1   0.0000
     6 N5       6.8066   8.4201   2.5900   N.ar      1 RES1   0.0000
     7 O1       4.3508   8.0952   4.1400   O.3       1 RES1   0.0000
     8 C1       3.2570   8.1894   1.0914   C.ar      1 RES1   0.0000
     9 H1       2.8529   8.5009   1.8684   H         1 RES1   0.0000
    10 C2       2.7014   8.5528  -0.1424   C.ar      1 RES1   0.0000
    11 H2       1.9629   9.1160  -0.1938   H         1 RES1   0.0000
    12 C3       3.2918   8.0452  -1.2653   C.ar      1 RES1   0.0000
    13 H3       2.9452   8.2625  -2.0997   H         1 RES1   0.0000
    14 C4       4.3804   7.2225  -1.1863   C.ar      1 RES1   0.0000
    15 H4       4.7339   6.8476  -1.9593   H         1 RES1   0.0000
    16 C5       4.9691   6.9379   0.0692   C.ar      1 RES1   0.0000
    17 C6       6.2179   6.2017   0.3242   C.3       1 RES1   0.0000
    18 H5       6.3363   5.5192  -0.3539   H         1 RES1   0.0000
    19 H6       6.9703   6.8111   0.2728   H         1 RES1   0.0000
    20 C7       5.3836   4.3119   1.5817   C.3       1 RES1   0.0000
    21 H7       5.9775   3.5449   1.5580   H         1 RES1   0.0000
    22 H8       4.8611   4.3158   0.7651   H         1 RES1   0.0000
    23 C8       4.4396   4.1947   2.7976   C.ar      1 RES1   0.0000
    24 C9       3.8770   2.9586   3.1021   C.ar      1 RES1   0.0000
    25 H9       4.0913   2.2069   2.5959   H         1 RES1   0.0000
    26 C10      3.0323   2.8625   4.1242   C.ar      1 RES1   0.0000
    27 H10      2.6840   2.0301   4.3496   H         1 RES1   0.0000
    28 C11      2.6474   4.0101   4.8815   C.ar      1 RES1   0.0000
    29 H11      2.0343   3.9640   5.5774   H         1 RES1   0.0000
    30 C12      3.2674   5.2289   4.4959   C.ar      1 RES1   0.0000
    31 H12      3.0584   6.0113   4.9566   H         1 RES1   0.0000
    32 C13      7.5886   5.3327   2.1333   C.3       1 RES1   0.0000
    33 H13      8.1442   6.1036   1.9356   H         1 RES1   0.0000
    34 H14      7.9683   4.5580   1.6924   H         1 RES1   0.0000
    35 C14      7.5085   5.1020   3.6754   C.3       1 RES1   0.0000
    36 H15      6.9790   4.3100   3.8553   H         1 RES1   0.0000
    37 H16      8.4002   4.9521   4.0254   H         1 RES1   0.0000
    38 C15      7.8220   7.4262   4.5236   C.3       1 RES1   0.0000
    39 H17      7.5538   7.9280   5.3085   H         1 RES1   0.0000
    40 H18      8.7137   7.0802   4.6897   H         1 RES1   0.0000
    41 C16      7.8847   8.3374   3.3887   C.ar      1 RES1   0.0000
    42 C17      8.9854   9.1756   3.1970   C.ar      1 RES1   0.0000
    43 H19      9.7326   9.0833   3.7427   H         1 RES1   0.0000
    44 C18      8.9802  10.1253   2.2223   C.ar      1 RES1   0.0000
    45 H20      9.7187  10.6674   2.0700   H         1 RES1   0.0000
    46 C19      7.8603  10.2445   1.4848   C.ar      1 RES1   0.0000
    47 H21      7.8028  10.9308   0.8581   H         1 RES1   0.0000
    48 C20      6.7857   9.3717   1.6311   C.ar      1 RES1   0.0000
    49 H22      6.0489   9.4428   1.0676   H         1 RES1   0.0000
    50 C21      6.3659   5.8787   5.7237   C.3       1 RES1   0.0000
    51 H23      5.7372   6.5573   6.0163   H         1 RES1   0.0000
    52 H24      5.8748   5.0482   5.6268   H         1 RES1   0.0000
    53 C22      7.3953   5.6980   6.7933   C.ar      1 RES1   0.0000
    54 C23      7.4980   6.7015   7.7641   C.ar      1 RES1   0.0000
    55 H25      6.9407   7.4455   7.7344   H         1 RES1   0.0000
    56 C24      8.4507   6.5708   8.7783   C.ar      1 RES1   0.0000
    57 H26      8.5448   7.2398   9.4169   H         1 RES1   0.0000
    58 C25      9.2554   5.4481   8.8297   C.ar      1 RES1   0.0000
    59 H27      9.9103   5.3770   9.4861   H         1 RES1   0.0000
    60 C26      9.0986   4.4696   7.9440   C.ar      1 RES1   0.0000
    61 H28      9.6107   3.6968   8.0211   H         1 RES1   0.0000
    62 C27      8.1686   4.5868   6.8941   C.ar      1 RES1   0.0000
    63 H29      8.0832   3.9044   6.2674   H         1 RES1   0.0000
    64 C28      4.2027   9.1910   4.9131   C.3       1 RES1   0.0000
    65 H30      3.3057   9.2218   5.2571   H         1 RES1   0.0000
    66 H31      4.3717   9.9792   4.3911   H         1 RES1   0.0000
    67 H32      4.8228   9.1545   5.6446   H         1 RES1   0.0000
    68 P1       8.3306   1.1092   3.0922   P.3       2 RES2  -1.0000
    69 F1       7.6635  -0.2153   3.5746   F         2 RES2   0.0000
    70 F2       8.9872   2.4722   2.5920   F         2 RES2   0.0000
    71 F3       7.9665   1.8359   4.4109   F         2 RES2   0.0000
    72 F4       6.9982   1.5725   2.4674   F         2 RES2   0.0000
    73 F5       8.6684   0.4229   1.7240   F         2 RES2   0.0000
    74 F6       9.6821   0.6555   3.6992   F         2 RES2   0.0000
    75 P2       3.0166   6.8860   8.4600   P.3       3 RES3  -1.0000
    76 F7       1.4578   6.9341   8.8831   F         3 RES3   0.0000
    77 F8       4.3856   6.8822   8.0428   F         3 RES3   0.0000
    78 F9       2.6857   6.9745   7.0681   F         3 RES3   0.0000
    79 F10      2.8512   8.4316   8.5430   F         3 RES3   0.0000
    80 F11      3.2936   6.9399   9.8519   F         3 RES3   0.0000
    81 F12      2.5080   5.2904   8.3592   F         3 RES3   0.0000
@<TRIPOS>BOND
     1     1     2    1
     2     2     8   ar
     3     3     1    1
     4     4     1    1
     5     5     1    1
     6     6     1    1
     7     7     1    1
     8     8     9    1
     9    10     8   ar
    10    11    10    1
    11    12    10   ar
    12    13    12    1
    13    14    12   ar
    14    15    14    1
    15    16     2   ar
    16    17     3    1
    17    18    17    1
    18    19    17    1
    19    20     3    1
    20    21    20    1
    21    22    20    1
    22    23     4   ar
    23    24    23   ar
    24    25    24    1
    25    26    24   ar
    26    27    26    1
    27    28    26   ar
    28    29    28    1
    29    30     4   ar
    30    31    30    1
    31    32     3    1
    32    33    32    1
    33    34    32    1
    34    35     5    1
    35    36    35    1
    36    37    35    1
    37    38     5    1
    38    39    38    1
    39    40    38    1
    40    41     6   ar
    41    42    41   ar
    42    43    42    1
    43    44    42   ar
    44    45    44    1
    45    46    44   ar
    46    47    46    1
    47    48     6   ar
    48    49    48    1
    49    50     5    1
    50    51    50    1
    51    52    50    1
    52    53    50    1
    53    54    53   ar
    54    55    54    1
    55    56    54   ar
    56    57    56    1
    57    58    56   ar
    58    59    58    1
    59    60    58   ar
    60    61    60    1
    61    62    53   ar
    62    63    62    1
    63    64     7    1
    64    65    64    1
    65    66    64    1
    66    67    64    1
    67    14    16   ar
    68    16    17    1
    69    20    23    1
    70    28    30   ar
    71    32    35    1
    72    38    41    1
    73    46    48   ar
    74    60    62   ar
    75    68    69    1
    76    70    68    1
    77    71    68    1
    78    72    68    1
    79    73    68    1
    80    74    68    1
    81    75    76    1
    82    77    75    1
    83    78    75    1
    84    79    75    1
    85    80    75    1
    86    81    75    1
@<TRIPOS>SUBSTRUCTURE
     1 RES1        1 GROUP             0 ****  ****    0  
     2 RES2       68 GROUP             0 ****  ****    0  
     3 RES3       75 GROUP             0 ****  ****    0  
@<TRIPOS>CRYSIN
   17.4170   19.2240   19.7710   90.0000   90.0000   90.0000    61     1
