@<TRIPOS>MOLECULE
OMOBAW
   116   123     3     0     0
SMALL
NO_CHARGES
****
Generated from the CSD

@<TRIPOS>ATOM
     1 Fe1      3.9867   6.6910  12.6202   Fe        1 RES1   0.0000
     2 Cl1      0.8089   8.7195   6.1419   Cl        1 RES1   0.0000
     3 C1       3.5550  11.0325  11.1354   C.3       1 RES1   0.0000
     4 H1       3.5726  11.4708  10.2591   H         1 RES1   0.0000
     5 H2       4.1484  10.2524  11.1223   H         1 RES1   0.0000
     6 H3       3.8598  11.6626  11.8217   H         1 RES1   0.0000
     7 B1       5.5557   7.6611  15.1741   B         1 RES1   0.0000
     8 H4       6.1032   7.9660  16.0870   H         1 RES1   0.0000
     9 N1       3.7005   8.5833  13.6985   N.2       1 RES1   0.0000
    10 O1       3.4083   7.5534  10.6644   O.co2     1 RES1   0.0000
    11 C2       2.1519  10.5908  11.4478   C.ar      1 RES1   0.0000
    12 N2       4.5260   8.7371  14.7805   N.pl3     1 RES1   0.0000
    13 O2       1.9369   6.5971  12.0056   O.co2     1 RES1   0.0000
    14 N3       6.5431   7.4360  14.0020   N.pl3     1 RES1   0.0000
    15 C3      -0.1951  10.4672  10.7996   C.ar      1 RES1   0.0000
    16 N4       6.1021   7.0335  12.7654   N.2       1 RES1   0.0000
    17 C4       1.1189  10.8470  10.5504   C.ar      1 RES1   0.0000
    18 H5       1.3193  11.2974   9.7383   H         1 RES1   0.0000
    19 N5       4.3086   4.8217  11.4802   N.1       1 RES1   0.0000
    20 C5       0.5385   9.5208  12.9227   C.ar      1 RES1   0.0000
    21 N6       4.8361   6.3225  15.4694   N.pl3     1 RES1   0.0000
    22 C6      -0.4576   9.8104  11.9937   C.ar      1 RES1   0.0000
    23 H6      -1.3503   9.5484  12.1849   H         1 RES1   0.0000
    24 N7       4.0570   5.7026  14.5241   N.2       1 RES1   0.0000
    25 C7      -1.2919  10.7491   9.8156   C.3       1 RES1   0.0000
    26 H7      -0.9552  11.3426   9.1128   H         1 RES1   0.0000
    27 H8      -2.0415  11.1817  10.2769   H         1 RES1   0.0000
    28 H9      -1.5968   9.9081   9.4159   H         1 RES1   0.0000
    29 C8       1.8618   9.9193  12.6409   C.ar      1 RES1   0.0000
    30 C9       0.2061   8.7851  14.1834   C.3       1 RES1   0.0000
    31 H10     -0.7601   8.8323  14.3430   H         1 RES1   0.0000
    32 H11      0.6815   9.1950  14.9355   H         1 RES1   0.0000
    33 H12      0.4772   7.8479  14.0960   H         1 RES1   0.0000
    34 C10      2.9307   9.6825  13.6638   C.2       1 RES1   0.0000
    35 C11      3.2651  10.5437  14.7242   C.2       1 RES1   0.0000
    36 H13      2.8777  11.3866  14.9285   H         1 RES1   0.0000
    37 C12      7.8899   4.0944  11.2677   C.3       1 RES1   0.0000
    38 H14      7.9302   3.2055  10.8573   H         1 RES1   0.0000
    39 H15      7.2189   4.0941  11.9822   H         1 RES1   0.0000
    40 H16      8.7668   4.3198  11.6444   H         1 RES1   0.0000
    41 C13      4.2690   9.9020  15.4006   C.2       1 RES1   0.0000
    42 H17      4.7100  10.2257  16.1773   H         1 RES1   0.0000
    43 C14      7.5100   5.1231  10.2152   C.ar      1 RES1   0.0000
    44 C15      7.5406   4.7794   8.8681   C.ar      1 RES1   0.0000
    45 H18      7.7627   3.8883   8.6242   H         1 RES1   0.0000
    46 C16      7.2546   5.7068   7.8647   C.ar      1 RES1   0.0000
    47 C17      6.8998   6.9868   8.2577   C.ar      1 RES1   0.0000
    48 H19      6.6911   7.6281   7.5882   H         1 RES1   0.0000
    49 C18      7.3840   5.3414   6.4021   C.3       1 RES1   0.0000
    50 H20      6.9796   6.0443   5.8532   H         1 RES1   0.0000
    51 H21      6.9239   4.4915   6.2364   H         1 RES1   0.0000
    52 H22      8.3317   5.2496   6.1715   H         1 RES1   0.0000
    53 C19      6.8370   7.3745   9.6046   C.ar      1 RES1   0.0000
    54 C20      3.6649   4.5335  15.0695   C.2       1 RES1   0.0000
    55 C21      2.7219   3.6031  14.3883   C.ar      1 RES1   0.0000
    56 C22      4.6674   2.0743  13.8245   C.3       1 RES1   0.0000
    57 H23      4.8391   1.3161  13.2276   H         1 RES1   0.0000
    58 H24      4.9373   1.8381  14.7372   H         1 RES1   0.0000
    59 H25      5.1831   2.8509  13.5228   H         1 RES1   0.0000
    60 C23      3.1961   2.4074  13.8047   C.ar      1 RES1   0.0000
    61 C24      2.2714   1.5147  13.2573   C.ar      1 RES1   0.0000
    62 H26      2.5872   0.7125  12.8589   H         1 RES1   0.0000
    63 C25     -0.0767   0.7819  12.6900   C.3       1 RES1   0.0000
    64 H27     -0.0131   0.7996  11.7123   H         1 RES1   0.0000
    65 H28     -0.9846   1.0275  12.9634   H         1 RES1   0.0000
    66 H29      0.1292  -0.1206  13.0139   H         1 RES1   0.0000
    67 C26      0.9102   1.7636  13.2771   C.ar      1 RES1   0.0000
    68 C27      0.4679   2.9469  13.8543   C.ar      1 RES1   0.0000
    69 H30     -0.4639   3.1311  13.8667   H         1 RES1   0.0000
    70 C28      1.3408   3.8718  14.4150   C.ar      1 RES1   0.0000
    71 C29      0.8156   5.1248  15.0616   C.3       1 RES1   0.0000
    72 H31      1.1950   5.9090  14.6123   H         1 RES1   0.0000
    73 H32      1.0702   5.1358  16.0080   H         1 RES1   0.0000
    74 H33     -0.1616   5.1469  14.9863   H         1 RES1   0.0000
    75 C30      7.8872   7.5004  14.0114   C.2       1 RES1   0.0000
    76 H34      8.4254   7.7531  14.7531   H         1 RES1   0.0000
    77 C31      8.3506   7.1385  12.7727   C.2       1 RES1   0.0000
    78 H35      9.2563   7.0959  12.4877   H         1 RES1   0.0000
    79 C32      7.2116   6.8460  12.0164   C.2       1 RES1   0.0000
    80 C33      7.1554   6.4296  10.5858   C.ar      1 RES1   0.0000
    81 C34      6.4627   8.7902   9.9578   C.3       1 RES1   0.0000
    82 H36      6.4369   9.3339   9.1428   H         1 RES1   0.0000
    83 H37      7.1270   9.1589  10.5761   H         1 RES1   0.0000
    84 H38      5.5798   8.7979  10.3834   H         1 RES1   0.0000
    85 C35      4.1838   4.4086  16.3582   C.2       1 RES1   0.0000
    86 H39      4.0593   3.6864  16.9633   H         1 RES1   0.0000
    87 C36      4.9151   5.5568  16.5683   C.2       1 RES1   0.0000
    88 H40      5.3953   5.7710  17.3591   H         1 RES1   0.0000
    89 C37      2.2316   7.1588  10.9123   C.2       1 RES1   0.0000
    90 C38      1.1516   7.3324   9.8806   C.ar      1 RES1   0.0000
    91 C39      1.4488   7.9201   8.6529   C.ar      1 RES1   0.0000
    92 H41      2.3208   8.2521   8.4752   H         1 RES1   0.0000
    93 C40      0.4494   8.0121   7.6939   C.ar      1 RES1   0.0000
    94 C41     -0.8369   7.5415   7.9286   C.ar      1 RES1   0.0000
    95 H42     -1.5074   7.6014   7.2584   H         1 RES1   0.0000
    96 C42     -1.1190   6.9820   9.1640   C.ar      1 RES1   0.0000
    97 H43     -1.9971   6.6705   9.3486   H         1 RES1   0.0000
    98 C43     -0.1343   6.8704  10.1381   C.ar      1 RES1   0.0000
    99 H44     -0.3396   6.4785  10.9782   H         1 RES1   0.0000
   100 C44      4.4215   3.9127  10.8046   C.1       1 RES1   0.0000
   101 C45      4.5974   2.7407   9.9545   C.3       1 RES1   0.0000
   102 H45      4.1010   2.8653   9.1188   H         1 RES1   0.0000
   103 H46      4.2613   1.9462  10.4190   H         1 RES1   0.0000
   104 H47      5.5499   2.6230   9.7538   H         1 RES1   0.0000
   105 N8       0.0551   7.0778   2.1318   N.1       2 RES2   0.0000
   106 C46      0.2430   6.0141   1.7250   C.1       2 RES2   0.0000
   107 C47      0.4590   4.6808   1.3231   C.3       2 RES2   0.0000
   108 H48      1.4100   4.4629   1.4101   H         2 RES2   0.0000
   109 H49      0.1826   4.5729   0.3891   H         2 RES2   0.0000
   110 H50     -0.0675   4.0796   1.8908   H         2 RES2   0.0000
   111 N9      -0.6360  10.5250   0.7905   N.1       3 RES3   0.0000
   112 C48      0.3171  10.3574   3.1539   C.3       3 RES3   0.0000
   113 H51      0.0367   9.5095   3.5579   H         3 RES3   0.0000
   114 H52     -0.0561  11.1035   3.6667   H         3 RES3   0.0000
   115 H53      1.2960  10.4134   3.1600   H         3 RES3   0.0000
   116 C49     -0.1701  10.4237   1.7630   C.1       3 RES3   0.0000
@<TRIPOS>BOND
     1     1     9    1
     2     2    93    1
     3     3     4    1
     4     5     3    1
     5     6     3    1
     6     7     8    1
     7     9    12    1
     8    10     1    1
     9    11     3    1
    10    12     7    1
    11    13     1    1
    12    14     7    1
    13    15    17   ar
    14    16     1    1
    15    17    11   ar
    16    18    17    1
    17    19     1    1
    18    20    22   ar
    19    21     7    1
    20    22    15   ar
    21    23    22    1
    22    24     1    1
    23    25    15    1
    24    26    25    1
    25    27    25    1
    26    28    25    1
    27    29    11   ar
    28    30    20    1
    29    31    30    1
    30    32    30    1
    31    33    30    1
    32    34     9    2
    33    35    34    1
    34    36    35    1
    35    37    38    1
    36    39    37    1
    37    40    37    1
    38    41    12    1
    39    42    41    1
    40    43    37    1
    41    44    43   ar
    42    45    44    1
    43    46    44   ar
    44    47    46   ar
    45    48    47    1
    46    49    46    1
    47    50    49    1
    48    51    49    1
    49    52    49    1
    50    53    47   ar
    51    54    24    2
    52    55    54    1
    53    56    57    1
    54    58    56    1
    55    59    56    1
    56    60    55   ar
    57    61    60   ar
    58    62    61    1
    59    63    64    1
    60    65    63    1
    61    66    63    1
    62    67    61   ar
    63    68    67   ar
    64    69    68    1
    65    70    55   ar
    66    71    70    1
    67    72    71    1
    68    73    71    1
    69    74    71    1
    70    75    14    1
    71    76    75    1
    72    77    75    2
    73    78    77    1
    74    79    16    2
    75    80    43   ar
    76    81    53    1
    77    82    81    1
    78    83    81    1
    79    84    81    1
    80    85    54    1
    81    86    85    1
    82    87    21    1
    83    88    87    1
    84    89    10   un
    85    90    89    1
    86    91    90   ar
    87    92    91    1
    88    93    91   ar
    89    94    93   ar
    90    95    94    1
    91    96    94   ar
    92    97    96    1
    93    98    90   ar
    94    99    98    1
    95   100    19    3
    96   101   100    1
    97   102   101    1
    98   103   101    1
    99   104   101    1
   100    13    89   un
   101    14    16    1
   102    20    29   ar
   103    21    24    1
   104    29    34    1
   105    35    41    2
   106    53    80   ar
   107    56    60    1
   108    63    67    1
   109    68    70   ar
   110    77    79    1
   111    79    80    1
   112    85    87    2
   113    96    98   ar
   114   105   106    3
   115   106   107    1
   116   107   108    1
   117   109   107    1
   118   110   107    1
   119   111   116    3
   120   112   113    1
   121   114   112    1
   122   115   112    1
   123   116   112    1
@<TRIPOS>SUBSTRUCTURE
     1 RES1        1 GROUP             0 ****  ****    0  
     2 RES2      105 GROUP             0 ****  ****    0  
     3 RES3      111 GROUP             0 ****  ****    0  
@<TRIPOS>CRYSIN
   11.5426   12.5820   17.0990  101.9640   97.4860   94.4140     2     1
