@<TRIPOS>MOLECULE
ONEVAG
    85    91     3     0     0
SMALL
USER_CHARGES
****
Generated from the CSD

@<TRIPOS>ATOM
     1 C1       5.7979   3.5209  12.4506   C.ar      1 RES1   0.0000
     2 H1       4.8694   3.6326  12.6189   H         1 RES1   0.0000
     3 C2       6.6400   3.3501  13.5350   C.ar      1 RES1   0.0000
     4 H2       6.2918   3.3306  14.4189   H         1 RES1   0.0000
     5 C3       7.9896   3.2085  13.3104   C.ar      1 RES1   0.0000
     6 H3       8.5891   3.0483  14.0299   H         1 RES1   0.0000
     7 C4       8.4525   3.3060  12.0045   C.ar      1 RES1   0.0000
     8 H4       9.3842   3.2502  11.8270   H         1 RES1   0.0000
     9 C5       7.5575   3.4854  10.9590   C.ar      1 RES1   0.0000
    10 C6       8.0371   3.6786   9.5058   C.3       1 RES1   0.0000
    11 C7       9.5717   3.6717   9.4478   C.3       1 RES1   0.0000
    12 C8       7.4928   5.0217   8.9925   C.ar      1 RES1   0.0000
    13 C9       8.3198   6.0204   8.5061   C.ar      1 RES1   0.0000
    14 H5       9.2511   5.8585   8.4087   H         1 RES1   0.0000
    15 C10      7.7949   7.2518   8.1608   C.ar      1 RES1   0.0000
    16 H6       8.3512   7.9284   7.7918   H         1 RES1   0.0000
    17 C11      6.4530   7.4777   8.3604   C.ar      1 RES1   0.0000
    18 H7       6.0707   8.3290   8.1786   H         1 RES1   0.0000
    19 C12      5.6788   6.4434   8.8286   C.ar      1 RES1   0.0000
    20 H8       4.7560   6.6087   8.9773   H         1 RES1   0.0000
    21 C13      7.4665   2.5524   8.6527   C.ar      1 RES1   0.0000
    22 C14      8.2911   1.6597   7.9916   C.ar      1 RES1   0.0000
    23 H9       9.2351   1.7367   8.0658   H         1 RES1   0.0000
    24 C15      7.7337   0.6589   7.2263   C.ar      1 RES1   0.0000
    25 C16      6.3611   0.5724   7.1181   C.ar      1 RES1   0.0000
    26 H10      5.9599  -0.0968   6.5765   H         1 RES1   0.0000
    27 C17      5.5764   1.4815   7.8133   C.ar      1 RES1   0.0000
    28 C18      8.6483  -0.3081   6.5247   C.3       1 RES1   0.0000
    29 C19      3.1017   4.9861   7.6641   C.ar      1 RES1   0.0000
    30 H11      3.2429   5.7551   8.2039   H         1 RES1   0.0000
    31 C20      2.2677   5.1008   6.5654   C.ar      1 RES1   0.0000
    32 H12      1.8534   5.9291   6.3578   H         1 RES1   0.0000
    33 C21      2.0493   3.9895   5.7761   C.ar      1 RES1   0.0000
    34 H13      1.4968   4.0414   5.0043   H         1 RES1   0.0000
    35 C22      2.6576   2.7950   6.1382   C.ar      1 RES1   0.0000
    36 H14      2.5165   2.0141   5.6143   H         1 RES1   0.0000
    37 C23      3.4709   2.7370   7.2615   C.ar      1 RES1   0.0000
    38 C24      4.0482   1.4013   7.7615   C.3       1 RES1   0.0000
    39 C25      3.6132   0.2523   6.8437   C.3       1 RES1   0.0000
    40 C26      3.5055   1.1781   9.1819   C.ar      1 RES1   0.0000
    41 C27      2.7285   0.0799   9.5031   C.ar      1 RES1   0.0000
    42 H15      2.5943  -0.6090   8.8622   H         1 RES1   0.0000
    43 C28      2.1441  -0.0194  10.7606   C.ar      1 RES1   0.0000
    44 H16      1.6140  -0.7731  10.9938   H         1 RES1   0.0000
    45 C29      2.3513   1.0031  11.6622   C.ar      1 RES1   0.0000
    46 H17      1.9424   0.9833  12.5199   H         1 RES1   0.0000
    47 C30      3.1630   2.0578  11.2939   C.ar      1 RES1   0.0000
    48 H18      3.3026   2.7577  11.9214   H         1 RES1   0.0000
    49 C31      3.3213   5.6481  11.3289   C.1       1 RES1   0.0000
    50 C32      2.6785   6.5826  12.2386   C.3       1 RES1   0.0000
    51 H19      3.0853   6.5053  13.1276   H         1 RES1   0.0000
    52 H20      1.7222   6.3756  12.2989   H         1 RES1   0.0000
    53 H21      2.7953   7.4967  11.9053   H         1 RES1   0.0000
    54 N1       6.2181   3.5384  11.1687   N.ar      1 RES1   0.0000
    55 N2       6.1531   5.2075   9.0883   N.ar      1 RES1   0.0000
    56 N3       6.1118   2.4608   8.5867   N.ar      1 RES1   0.0000
    57 N4       3.7269   3.8362   8.0117   N.ar      1 RES1   0.0000
    58 N5       3.7714   2.1500  10.0893   N.ar      1 RES1   0.0000
    59 N6       3.8631   4.9102  10.6388   N.1       1 RES1   0.0000
    60 F1       9.4654  -0.9229   7.4005   F         1 RES1   0.0000
    61 F2       8.0122  -1.2523   5.8486   F         1 RES1   0.0000
    62 F3       9.4455   0.3326   5.6589   F         1 RES1   0.0000
    63 Fe1      4.9637   3.6906   9.6007   Fe        1 RES1   2.0000
    64 H22      9.9534   4.3762  10.0086   H         1 RES1   0.0000
    65 H23      9.8524   3.7951   8.5238   H         1 RES1   0.0000
    66 H24      9.8994   2.8431   9.7945   H         1 RES1   0.0000
    67 H25      2.6097   0.2118   6.7951   H         1 RES1   0.0000
    68 H26      3.9606  -0.5630   7.1680   H         1 RES1   0.0000
    69 H27      3.9275   0.4350   5.9895   H         1 RES1   0.0000
    70 C33      7.1760   7.1817  12.9821   C.3       2 RES2   0.0000
    71 O1       6.6646   8.1080  15.3293   O.2       2 RES2   0.0000
    72 O2       5.3821   6.1883  14.5474   O.2       2 RES2   0.0000
    73 O3       5.0106   8.3895  13.5845   O.3       2 RES2  -1.0000
    74 F4       8.1827   6.4296  13.4386   F         2 RES2   0.0000
    75 F5       7.7096   8.3288  12.5438   F         2 RES2   0.0000
    76 F6       6.6546   6.5568  11.9203   F         2 RES2   0.0000
    77 S1       5.9115   7.4915  14.2652   S.o2      2 RES2   0.0000
    78 C34      7.0778   3.8124   4.5962   C.3       3 RES3   0.0000
    79 O4       9.0102   5.2797   3.7145   O.2       3 RES3   0.0000
    80 O5       6.7407   6.0520   3.3476   O.2       3 RES3   0.0000
    81 O6       7.5807   4.1642   2.1120   O.3       3 RES3  -1.0000
    82 F7       7.1337   4.3800   5.7996   F         3 RES3   0.0000
    83 F8       7.8091   2.7081   4.6489   F         3 RES3   0.0000
    84 F9       5.8228   3.4537   4.3885   F         3 RES3   0.0000
    85 S2       7.6711   4.9591   3.3080   S.o2      3 RES3   0.0000
@<TRIPOS>BOND
     1     1     2    1
     2     3     1   ar
     3     4     3    1
     4     5     3   ar
     5     6     5    1
     6     7     5   ar
     7     8     7    1
     8     9     7   ar
     9    10     9    1
    10    11    10    1
    11    12    10    1
    12    13    12   ar
    13    14    13    1
    14    15    13   ar
    15    16    15    1
    16    17    15   ar
    17    18    17    1
    18    19    17   ar
    19    20    19    1
    20    21    10    1
    21    22    21   ar
    22    23    22    1
    23    24    22   ar
    24    25    24   ar
    25    26    25    1
    26    27    25   ar
    27    28    24    1
    28    29    30    1
    29    31    29   ar
    30    32    31    1
    31    33    31   ar
    32    34    33    1
    33    35    33   ar
    34    36    35    1
    35    37    35   ar
    36    38    27    1
    37    39    38    1
    38    40    38    1
    39    41    40   ar
    40    42    41    1
    41    43    41   ar
    42    44    43    1
    43    45    43   ar
    44    46    45    1
    45    47    45   ar
    46    48    47    1
    47    49    50    1
    48    50    51    1
    49    52    50    1
    50    53    50    1
    51    54     1   ar
    52    55    12   ar
    53    56    21   ar
    54    57    29   ar
    55    58    40   ar
    56    59    49    3
    57    60    28    1
    58    61    28    1
    59    62    28    1
    60    63    54    1
    61    64    11    1
    62    65    11    1
    63    66    11    1
    64    67    39    1
    65    68    39    1
    66    69    39    1
    67     9    54   ar
    68    19    55   ar
    69    27    56   ar
    70    37    38    1
    71    37    57   ar
    72    47    58   ar
    73    55    63    1
    74    56    63    1
    75    57    63    1
    76    58    63    1
    77    59    63    1
    78    70    74    1
    79    71    77    2
    80    72    77    2
    81    73    77    1
    82    75    70    1
    83    76    70    1
    84    77    70    1
    85    78    82    1
    86    79    85    2
    87    80    85    2
    88    81    85    1
    89    83    78    1
    90    84    78    1
    91    85    78    1
@<TRIPOS>SUBSTRUCTURE
     1 RES1        1 GROUP             0 ****  ****    0  
     2 RES2       70 GROUP             0 ****  ****    0  
     3 RES3       78 GROUP             0 ****  ****    0  
@<TRIPOS>CRYSIN
    9.2550   16.4150   23.0480   90.0000   92.8870   90.0000   231     1
