@<TRIPOS>MOLECULE
ONEVEK
    88    90     7     0     0
SMALL
USER_CHARGES
****
Generated from the CSD

@<TRIPOS>ATOM
     1 C1       1.7708   0.2631   9.9653   C.ar      1 RES1   0.0000
     2 H1       1.9882  -0.3291   9.2551   H         1 RES1   0.0000
     3 C2       2.5740   0.2498  11.0919   C.ar      1 RES1   0.0000
     4 H2       3.3196  -0.3365  11.1497   H         1 RES1   0.0000
     5 C3       2.2691   1.1070  12.1291   C.ar      1 RES1   0.0000
     6 H3       2.7884   1.1108  12.9246   H         1 RES1   0.0000
     7 C4       1.1854   1.9644  11.9839   C.ar      1 RES1   0.0000
     8 H4       0.9592   2.5682  12.6816   H         1 RES1   0.0000
     9 C5       0.4339   1.9377  10.8155   C.ar      1 RES1   0.0000
    10 C6      -0.6946   2.9492  10.5631   C.3       1 RES1   0.0000
    11 C7      -0.8713   3.8652  11.7760   C.3       1 RES1   0.0000
    12 H5      -0.0314   4.3371  11.9540   H         1 RES1   0.0000
    13 H6      -1.5804   4.5167  11.5925   H         1 RES1   0.0000
    14 H7      -1.1147   3.3275  12.5584   H         1 RES1   0.0000
    15 C8      -0.2903   3.7707   9.3282   C.ar      1 RES1   0.0000
    16 C9      -0.1667   5.1506   9.3773   C.ar      1 RES1   0.0000
    17 H8      -0.4316   5.6231  10.1575   H         1 RES1   0.0000
    18 C10      0.3419   5.8428   8.2926   C.ar      1 RES1   0.0000
    19 H9       0.4097   6.7908   8.3084   H         1 RES1   0.0000
    20 C11      0.7475   5.1228   7.1870   C.ar      1 RES1   0.0000
    21 H10      1.1384   5.5607   6.4402   H         1 RES1   0.0000
    22 C12      0.5740   3.7533   7.1890   C.ar      1 RES1   0.0000
    23 H11      0.8651   3.2635   6.4294   H         1 RES1   0.0000
    24 C13     -1.9957   2.2006  10.2682   C.ar      1 RES1   0.0000
    25 C14     -3.1144   2.3635  11.0755   C.ar      1 RES1   0.0000
    26 H12     -3.0797   2.9283  11.8391   H         1 RES1   0.0000
    27 C15     -4.2820   1.6920  10.7531   C.ar      1 RES1   0.0000
    28 C16     -4.3140   0.8891   9.6302   C.ar      1 RES1   0.0000
    29 H13     -5.1101   0.4295   9.3904   H         1 RES1   0.0000
    30 C17     -3.1708   0.7617   8.8563   C.ar      1 RES1   0.0000
    31 C18     -5.5182   1.8842  11.5875   C.3       1 RES1   0.0000
    32 C19     -0.9372   1.7184   5.3001   C.ar      1 RES1   0.0000
    33 H14     -0.0311   2.0024   5.2984   H         1 RES1   0.0000
    34 C20     -1.6668   1.8644   4.1388   C.ar      1 RES1   0.0000
    35 H15     -1.2682   2.2331   3.3595   H         1 RES1   0.0000
    36 C21     -2.9873   1.4637   4.1322   C.ar      1 RES1   0.0000
    37 H16     -3.5296   1.5911   3.3631   H         1 RES1   0.0000
    38 C22     -3.5032   0.8718   5.2717   C.ar      1 RES1   0.0000
    39 H17     -4.4058   0.5777   5.2864   H         1 RES1   0.0000
    40 C23     -2.6973   0.7063   6.3978   C.ar      1 RES1   0.0000
    41 C24     -3.1501  -0.1186   7.6117   C.3       1 RES1   0.0000
    42 C25     -4.5366  -0.7197   7.3494   C.3       1 RES1   0.0000
    43 H18     -4.5023  -1.2806   6.5467   H         1 RES1   0.0000
    44 H19     -4.8072  -1.2648   8.1181   H         1 RES1   0.0000
    45 H20     -5.1856   0.0025   7.2157   H         1 RES1   0.0000
    46 C26     -2.1179  -1.2392   7.8434   C.ar      1 RES1   0.0000
    47 C27     -2.4859  -2.5762   7.8492   C.ar      1 RES1   0.0000
    48 H21     -3.3956  -2.8200   7.7244   H         1 RES1   0.0000
    49 C28     -1.5231  -3.5593   8.0383   C.ar      1 RES1   0.0000
    50 H22     -1.7660  -4.4762   8.0846   H         1 RES1   0.0000
    51 C29     -0.2050  -3.1706   8.1569   C.ar      1 RES1   0.0000
    52 H23      0.4827  -3.8192   8.2558   H         1 RES1   0.0000
    53 C30      0.0975  -1.8288   8.1297   C.ar      1 RES1   0.0000
    54 H24      1.0106  -1.5737   8.1828   H         1 RES1   0.0000
    55 N1       0.7001   1.0650   9.8133   N.ar      1 RES1   0.0000
    56 N2       0.0135   3.0731   8.2096   N.ar      1 RES1   0.0000
    57 N3      -2.0090   1.3946   9.1762   N.ar      1 RES1   0.0000
    58 N4      -1.4376   1.1948   6.4366   N.ar      1 RES1   0.0000
    59 N5      -0.8335  -0.8531   8.0316   N.ar      1 RES1   0.0000
    60 O1       1.2427   0.8281   7.0309   O.3       1 RES1   0.0000
    61 F1      -6.2974   0.8075  11.5883   F         1 RES1   0.0000
    62 F2      -6.2566   2.8730  11.1341   F         1 RES1   0.0000
    63 F3      -5.2362   2.1360  12.8581   F         1 RES1   0.0000
    64 Fe1     -0.3930   1.1083   8.1303   Fe        1 RES1   2.0000
    65 H25      1.9542   1.0875   7.2767   H         1 RES1   0.0000
    66 H26      1.2923   0.2025   6.5227   H         1 RES1   0.0000
    67 O2       1.2863  -1.1628   5.2479   O.3       2 RES2   0.0000
    68 H27      1.2375  -0.9755   4.4522   H         2 RES2   0.0000
    69 H28      1.9525  -1.7037   5.3379   H         2 RES2   0.0000
    70 O3      -4.7605  -5.3883   9.3957   O.3       3 RES3   0.0000
    71 H29     -5.2787  -5.1485  10.0055   H         3 RES3   0.0000
    72 H30     -4.0367  -5.5132   9.7303   H         3 RES3   0.0000
    73 O4       1.2998 -15.4501  14.4019   O.3       4 RES4   0.0000
    74 H31      0.8811 -16.2407  14.6014   H         4 RES4   0.0000
    75 H32      1.2206 -15.4246  13.6319   H         4 RES4   0.0000
    76 O5       0.7110 -13.4796  16.1112   O.3       5 RES5   0.0000
    77 H33      0.8406 -14.0999  15.5469   H         5 RES5   0.0000
    78 H34      0.3472 -12.8561  15.7862   H         5 RES5   0.0000
    79 F4       1.0208 -10.2598  16.6787   F         6 RES6   0.0000
    80 F5       1.1222  -9.2869  14.6494   F         6 RES6   0.0000
    81 F6      -0.3120 -11.0170  15.0130   F         6 RES6   0.0000
    82 F7      -0.7102  -8.9706  15.9515   F         6 RES6   0.0000
    83 B1       0.2662  -9.8646  15.5742   B         6 RES6  -1.0000
    84 F8      -1.0858  -6.4193  12.2736   F         7 RES7   0.0000
    85 F9      -0.1639  -5.4862  10.4273   F         7 RES7   0.0000
    86 F10     -2.3175  -6.1724  10.3712   F         7 RES7   0.0000
    87 F11     -1.7623  -4.3575  11.5952   F         7 RES7   0.0000
    88 B2      -1.3291  -5.5991  11.1706   B         7 RES7  -1.0000
@<TRIPOS>BOND
     1     1     2    1
     2     3     1   ar
     3     4     3    1
     4     5     3   ar
     5     6     5    1
     6     7     5   ar
     7     8     7    1
     8     9     7   ar
     9    10     9    1
    10    11    10    1
    11    12    11    1
    12    13    11    1
    13    14    11    1
    14    15    10    1
    15    16    15   ar
    16    17    16    1
    17    18    16   ar
    18    19    18    1
    19    20    18   ar
    20    21    20    1
    21    22    20   ar
    22    23    22    1
    23    24    10    1
    24    25    24   ar
    25    26    25    1
    26    27    25   ar
    27    28    27   ar
    28    29    28    1
    29    30    28   ar
    30    31    27    1
    31    32    33    1
    32    34    32   ar
    33    35    34    1
    34    36    34   ar
    35    37    36    1
    36    38    36   ar
    37    39    38    1
    38    40    38   ar
    39    41    30    1
    40    42    41    1
    41    43    42    1
    42    44    42    1
    43    45    42    1
    44    46    41    1
    45    47    46   ar
    46    48    47    1
    47    49    47   ar
    48    50    49    1
    49    51    49   ar
    50    52    51    1
    51    53    51   ar
    52    54    53    1
    53    55     1   ar
    54    56    15   ar
    55    57    24   ar
    56    58    32   ar
    57    59    46   ar
    58    60    64    1
    59    61    31    1
    60    62    31    1
    61    63    31    1
    62    64    55    1
    63    65    60    1
    64    66    60    1
    65     9    55   ar
    66    22    56   ar
    67    30    57   ar
    68    40    41    1
    69    40    58   ar
    70    53    59   ar
    71    56    64    1
    72    57    64    1
    73    58    64    1
    74    59    64    1
    75    67    68    1
    76    69    67    1
    77    70    71    1
    78    72    70    1
    79    73    74    1
    80    75    73    1
    81    76    77    1
    82    78    76    1
    83    79    83    1
    84    80    83    1
    85    81    83    1
    86    82    83    1
    87    84    88    1
    88    85    88    1
    89    86    88    1
    90    87    88    1
@<TRIPOS>SUBSTRUCTURE
     1 RES1        1 GROUP             0 ****  ****    0  
     2 RES2       67 GROUP             0 ****  ****    0  
     3 RES3       70 GROUP             0 ****  ****    0  
     4 RES4       73 GROUP             0 ****  ****    0  
     5 RES5       76 GROUP             0 ****  ****    0  
     6 RES6       79 GROUP             0 ****  ****    0  
     7 RES7       84 GROUP             0 ****  ****    0  
@<TRIPOS>CRYSIN
   11.9538   12.0106   13.8708  110.2280  105.7950  104.2590     2     1
