@<TRIPOS>MOLECULE
ONEVOU
    85    91     3     0     0
SMALL
USER_CHARGES
****
Generated from the CSD

@<TRIPOS>ATOM
     1 C1       7.5916   6.4245   2.5797   C.ar      1 RES1   0.0000
     2 H1       8.5203   6.5901   2.4638   H         1 RES1   0.0000
     3 C2       6.8158   7.4418   3.0876   C.ar      1 RES1   0.0000
     4 H2       7.2098   8.2664   3.3438   H         1 RES1   0.0000
     5 C3       5.4529   7.2407   3.2190   C.ar      1 RES1   0.0000
     6 H3       4.8890   7.9115   3.5888   H         1 RES1   0.0000
     7 C4       4.9423   6.0258   2.7913   C.ar      1 RES1   0.0000
     8 H4       4.0066   5.8703   2.8381   H         1 RES1   0.0000
     9 C5       5.7709   5.0355   2.2945   C.ar      1 RES1   0.0000
    10 C6       5.2371   3.7040   1.7287   C.3       1 RES1   0.0000
    11 C7       3.7220   3.7023   1.7487   C.3       1 RES1   0.0000
    12 H5       3.3883   4.4374   1.1940   H         1 RES1   0.0000
    13 H6       3.4077   3.8206   2.6688   H         1 RES1   0.0000
    14 H7       3.3913   2.8507   1.3968   H         1 RES1   0.0000
    15 C8       5.7657   3.5367   0.2896   C.ar      1 RES1   0.0000
    16 C9       4.8869   3.3441  -0.7619   C.ar      1 RES1   0.0000
    17 H8       3.9513   3.2951  -0.5993   H         1 RES1   0.0000
    18 C10      5.3847   3.2241  -2.0629   C.ar      1 RES1   0.0000
    19 H9       4.8010   3.0602  -2.7935   H         1 RES1   0.0000
    20 C11      6.7450   3.3525  -2.2589   C.ar      1 RES1   0.0000
    21 H10      7.1173   3.3001  -3.1299   H         1 RES1   0.0000
    22 C12      7.5562   3.5587  -1.1517   C.ar      1 RES1   0.0000
    23 H11      8.4866   3.6871  -1.2943   H         1 RES1   0.0000
    24 C13      5.8022   2.5668   2.5908   C.ar      1 RES1   0.0000
    25 C14      4.9662   1.6932   3.2725   C.ar      1 RES1   0.0000
    26 H12      4.0245   1.7827   3.1856   H         1 RES1   0.0000
    27 C15      5.4839   0.7063   4.0678   C.ar      1 RES1   0.0000
    28 C16      6.8590   0.5982   4.1413   C.ar      1 RES1   0.0000
    29 H13      7.2528  -0.0811   4.6759   H         1 RES1   0.0000
    30 C17      7.6654   1.4769   3.4373   C.ar      1 RES1   0.0000
    31 C18      4.5712  -0.2078   4.8675   C.3       1 RES1   0.0000
    32 H14      3.6361   0.0186   4.6804   H         1 RES1   0.0000
    33 H15      4.7500  -0.0946   5.8232   H         1 RES1   0.0000
    34 H16      4.7382  -1.1406   4.6113   H         1 RES1   0.0000
    35 C19     10.1542   2.1190  -0.0022   C.ar      1 RES1   0.0000
    36 H17     10.0570   2.8523  -0.5993   H         1 RES1   0.0000
    37 C20     10.9370   1.0561  -0.4054   C.ar      1 RES1   0.0000
    38 H18     11.3581   1.0561  -1.2587   H         1 RES1   0.0000
    39 C21     11.0910  -0.0051   0.4634   C.ar      1 RES1   0.0000
    40 H19     11.5983  -0.7688   0.2094   H         1 RES1   0.0000
    41 C22     10.4943   0.0608   1.7042   C.ar      1 RES1   0.0000
    42 H20     10.5957  -0.6590   2.3146   H         1 RES1   0.0000
    43 C23      9.7410   1.1795   2.0718   C.ar      1 RES1   0.0000
    44 C24      9.1959   1.3670   3.4841   C.3       1 RES1   0.0000
    45 C25      9.5994   0.1876   4.3663   C.3       1 RES1   0.0000
    46 H21      9.2399   0.3160   5.2685   H         1 RES1   0.0000
    47 H22     10.5772   0.1301   4.4108   H         1 RES1   0.0000
    48 H23      9.2411  -0.6421   3.9876   H         1 RES1   0.0000
    49 C26      9.8107   2.6715   4.0054   C.ar      1 RES1   0.0000
    50 C27     10.6661   2.6699   5.1014   C.ar      1 RES1   0.0000
    51 H24     10.8134   1.8672   5.5871   H         1 RES1   0.0000
    52 C28     11.3034   3.8375   5.4846   C.ar      1 RES1   0.0000
    53 H25     11.9005   3.8409   6.2242   H         1 RES1   0.0000
    54 C29     11.0549   4.9950   4.7740   C.ar      1 RES1   0.0000
    55 H26     11.4693   5.8145   5.0190   H         1 RES1   0.0000
    56 C30     10.1842   4.9325   3.6980   C.ar      1 RES1   0.0000
    57 H27     10.0291   5.7267   3.1990   H         1 RES1   0.0000
    58 C31      9.9591   5.7486   0.0646   C.1       1 RES1   0.0000
    59 C32     10.6040   6.7186  -0.8020   C.3       1 RES1   0.0000
    60 H28     10.6559   7.5820  -0.3408   H         1 RES1   0.0000
    61 H29     10.0825   6.8200  -1.6262   H         1 RES1   0.0000
    62 H30     11.5074   6.4110  -1.0225   H         1 RES1   0.0000
    63 N1       7.1260   5.2248   2.2397   N.ar      1 RES1   0.0000
    64 N2       7.0989   3.5874   0.1114   N.ar      1 RES1   0.0000
    65 N3       7.1536   2.4620   2.6603   N.ar      1 RES1   0.0000
    66 N4       9.5237   2.1832   1.1771   N.ar      1 RES1   0.0000
    67 N5       9.5442   3.8054   3.3157   N.ar      1 RES1   0.0000
    68 N6       9.4221   4.9680   0.7247   N.1       1 RES1   0.0000
    69 Fe1      8.3281   3.7180   1.7024   Fe        1 RES1   2.0000
    70 C33      6.4903   3.7074   6.4670   C.3       2 RES2   0.0000
    71 O1       6.8951   6.0545   7.3946   O.2       2 RES2   0.0000
    72 O2       4.6071   5.3110   7.1888   O.2       2 RES2   0.0000
    73 O3       6.0385   4.3647   8.8787   O.3       2 RES2  -1.0000
    74 F1       5.7035   2.6225   6.5506   F         2 RES2   0.0000
    75 F2       6.4616   4.1163   5.2081   F         2 RES2   0.0000
    76 F3       7.7261   3.3069   6.7277   F         2 RES2   0.0000
    77 S1       5.9432   5.0088   7.5996   S.o2      2 RES2   0.0000
    78 C34      6.1410   7.2965  -1.6530   C.3       3 RES3   0.0000
    79 O4       8.1931   8.7801  -1.9684   O.2       3 RES3   0.0000
    80 O5       6.6440   8.5993  -3.8196   O.3       3 RES3  -1.0000
    81 O6       8.0696   6.7236  -3.2402   O.2       3 RES3   0.0000
    82 F4       5.4740   8.2985  -1.0824   F         3 RES3   0.0000
    83 F5       5.2417   6.5293  -2.2667   F         3 RES3   0.0000
    84 F6       6.6987   6.5901  -0.6668   F         3 RES3   0.0000
    85 S2       7.4065   7.9195  -2.8067   S.o2      3 RES3   0.0000
@<TRIPOS>BOND
     1     1     2    1
     2     3     1   ar
     3     4     3    1
     4     5     3   ar
     5     6     5    1
     6     7     5   ar
     7     8     7    1
     8     9     7   ar
     9    10     9    1
    10    11    10    1
    11    12    11    1
    12    13    11    1
    13    14    11    1
    14    15    10    1
    15    16    15   ar
    16    17    16    1
    17    18    16   ar
    18    19    18    1
    19    20    18   ar
    20    21    20    1
    21    22    20   ar
    22    23    22    1
    23    24    10    1
    24    25    24   ar
    25    26    25    1
    26    27    25   ar
    27    28    27   ar
    28    29    28    1
    29    30    28   ar
    30    31    27    1
    31    32    31    1
    32    33    31    1
    33    34    31    1
    34    35    36    1
    35    37    35   ar
    36    38    37    1
    37    39    37   ar
    38    40    39    1
    39    41    39   ar
    40    42    41    1
    41    43    41   ar
    42    44    30    1
    43    45    44    1
    44    46    45    1
    45    47    45    1
    46    48    45    1
    47    49    44    1
    48    50    49   ar
    49    51    50    1
    50    52    50   ar
    51    53    52    1
    52    54    52   ar
    53    55    54    1
    54    56    54   ar
    55    57    56    1
    56    58    59    1
    57    59    60    1
    58    61    59    1
    59    62    59    1
    60    63     1   ar
    61    64    15   ar
    62    65    24   ar
    63    66    35   ar
    64    67    49   ar
    65    68    58    3
    66    69    63    1
    67     9    63   ar
    68    22    64   ar
    69    30    65   ar
    70    43    44    1
    71    43    66   ar
    72    56    67   ar
    73    64    69    1
    74    65    69    1
    75    66    69    1
    76    67    69    1
    77    68    69    1
    78    70    74    1
    79    71    77    2
    80    72    77    2
    81    73    77    1
    82    75    70    1
    83    76    70    1
    84    77    70    1
    85    78    82    1
    86    79    85    2
    87    80    85    1
    88    81    85    2
    89    83    78    1
    90    84    78    1
    91    85    78    1
@<TRIPOS>SUBSTRUCTURE
     1 RES1        1 GROUP             0 ****  ****    0  
     2 RES2       70 GROUP             0 ****  ****    0  
     3 RES3       78 GROUP             0 ****  ****    0  
@<TRIPOS>CRYSIN
    9.1512   16.8978   22.2872   90.0000   91.7320   90.0000   231     1
