@<TRIPOS>MOLECULE
ONEWAH
    80    84     5     0     0
SMALL
USER_CHARGES
****
Generated from the CSD

@<TRIPOS>ATOM
     1 C1       5.9808   5.6194   4.9379   C.ar      1 RES1   0.0000
     2 H1       6.3341   5.6113   4.0560   H         1 RES1   0.0000
     3 C2       6.4359   6.5729   5.8199   C.ar      1 RES1   0.0000
     4 H2       7.0753   7.2203   5.5465   H         1 RES1   0.0000
     5 C3       5.9476   6.5702   7.1026   C.ar      1 RES1   0.0000
     6 H3       6.2078   7.2433   7.7211   H         1 RES1   0.0000
     7 C4       5.0671   5.5679   7.4811   C.ar      1 RES1   0.0000
     8 H4       4.7449   5.5300   8.3729   H         1 RES1   0.0000
     9 C5       4.6550   4.6199   6.5546   C.ar      1 RES1   0.0000
    10 C6       3.8269   3.3860   6.9603   C.3       1 RES1   0.0000
    11 C7       3.5921   3.3860   8.4805   C.3       1 RES1   0.0000
    12 H5       4.4558   3.3860   8.9444   H         1 RES1   0.0000
    13 H6       3.0861   4.1865   8.7341   H         1 RES1   0.0000
    14 C8       2.5117   3.3860   6.1984   C.ar      1 RES1   0.0000
    15 C9       1.3020   3.3860   6.8713   C.ar      1 RES1   0.0000
    16 H7       1.2873   3.3860   7.8212   H         1 RES1   0.0000
    17 C10      0.1115   3.3860   6.1588   C.ar      1 RES1   0.0000
    18 C11      0.1878   3.3860   4.7796   C.ar      1 RES1   0.0000
    19 H8      -0.6080   3.3860   4.2613   H         1 RES1   0.0000
    20 C12      1.4263   3.3860   4.1487   C.ar      1 RES1   0.0000
    21 C13     -1.1900   3.3860   6.8948   C.3       1 RES1   0.0000
    22 H9      -1.0198   3.3860   7.8596   H         1 RES1   0.0000
    23 H10     -1.7022   4.1865   6.6536   H         1 RES1   0.0000
    24 C14      1.5549   3.3860   2.6248   C.3       1 RES1   0.0000
    25 C15      0.1726   3.3860   1.9544   C.3       1 RES1   0.0000
    26 H11      0.2816   3.3860   0.9809   H         1 RES1   0.0000
    27 H12     -0.3234   2.5855   2.2277   H         1 RES1   0.0000
    28 C16      2.3461   4.6415   2.2203   C.ar      1 RES1   0.0000
    29 C17      1.7782   5.6478   1.4460   C.ar      1 RES1   0.0000
    30 H13      0.8731   5.5801   1.1652   H         1 RES1   0.0000
    31 C18      2.5385   6.7517   1.0848   C.ar      1 RES1   0.0000
    32 H14      2.1511   7.4627   0.5888   H         1 RES1   0.0000
    33 C19      3.8691   6.7977   1.4559   C.ar      1 RES1   0.0000
    34 H15      4.4212   7.5278   1.2011   H         1 RES1   0.0000
    35 C20      4.3752   5.7616   2.2055   C.ar      1 RES1   0.0000
    36 H16      5.2979   5.7765   2.4306   H         1 RES1   0.0000
    37 N1       5.0535   4.6941   5.2694   N.ar      1 RES1   0.0000
    38 N2       2.5810   3.3860   4.8526   N.ar      1 RES1   0.0000
    39 N3       3.6271   4.7221   2.6372   N.ar      1 RES1   0.0000
    40 O1       5.9820   3.3860   3.0911   O.3       1 RES1   0.0000
    41 H17      6.4246   2.6641   3.0293   H         1 RES1   0.0000
    42 Fe1      4.3626   3.3860   3.9157   Fe        1 RES1   2.0000
    43 H6C      3.0861   2.5855   8.7341   H         1 RES1   0.0000
    44 H10C    -1.7022   2.5855   6.6536   H         1 RES1   0.0000
    45 H12C    -0.3234   4.1865   2.2277   H         1 RES1   0.0000
    46 C1C      5.9808   1.1526   4.9379   C.ar      1 RES1   0.0000
    47 H1C      6.3341   1.1607   4.0560   H         1 RES1   0.0000
    48 C2C      6.4359   0.1991   5.8199   C.ar      1 RES1   0.0000
    49 H2C      7.0753  -0.4483   5.5465   H         1 RES1   0.0000
    50 C3C      5.9476   0.2018   7.1026   C.ar      1 RES1   0.0000
    51 H3C      6.2078  -0.4713   7.7211   H         1 RES1   0.0000
    52 C4C      5.0671   1.2041   7.4811   C.ar      1 RES1   0.0000
    53 H4C      4.7449   1.2420   8.3729   H         1 RES1   0.0000
    54 C5C      4.6550   2.1521   6.5546   C.ar      1 RES1   0.0000
    55 C16C     2.3461   2.1305   2.2203   C.ar      1 RES1   0.0000
    56 C17C     1.7782   1.1242   1.4460   C.ar      1 RES1   0.0000
    57 H13C     0.8731   1.1919   1.1652   H         1 RES1   0.0000
    58 C18C     2.5385   0.0203   1.0848   C.ar      1 RES1   0.0000
    59 H14C     2.1511  -0.6907   0.5888   H         1 RES1   0.0000
    60 C19C     3.8691  -0.0257   1.4559   C.ar      1 RES1   0.0000
    61 H15C     4.4212  -0.7558   1.2011   H         1 RES1   0.0000
    62 C20C     4.3752   1.0104   2.2055   C.ar      1 RES1   0.0000
    63 H16C     5.2979   0.9955   2.4306   H         1 RES1   0.0000
    64 N1C      5.0535   2.0779   5.2694   N.ar      1 RES1   0.0000
    65 N3C      3.6271   2.0499   2.6372   N.ar      1 RES1   0.0000
    66 H17C     6.4246   4.1079   3.0293   H         1 RES1   0.0000
    67 B1       9.1567   0.6935   9.9315   B         2 RES2  -1.0000
    68 F1      10.3261   1.4105   9.7138   F         2 RES2   0.0000
    69 F2       8.3810   1.3521  10.8838   F         2 RES2   0.0000
    70 F3       9.5067  -0.5564  10.4243   F         2 RES2   0.0000
    71 F4       8.4588   0.5512   8.7695   F         2 RES2   0.0000
    72 O2       6.4500   3.3860  10.5821   O.3       3 RES3   0.0000
    73 H21      6.7723   3.9034   9.9896   H         3 RES3   0.0000
    74 H21C     6.7723   2.8686   9.9896   H         3 RES3   0.0000
    75 O3       1.9154   3.3860  11.6669   O.3       4 RES4   0.0000
    76 H22      1.3063   3.9725  11.5754   H         4 RES4   0.0000
    77 H22C     1.3063   2.7995  11.5754   H         4 RES4   0.0000
    78 O4       4.5012   3.3860  12.6565   O.3       5 RES5   0.0000
    79 H23      5.0331   2.8199  12.3101   H         5 RES5   0.0000
    80 H23C     5.0331   3.9521  12.3101   H         5 RES5   0.0000
@<TRIPOS>BOND
     1     1     2    1
     2     3     1   ar
     3     4     3    1
     4     5     3   ar
     5     6     5    1
     6     7     5   ar
     7     8     7    1
     8     9     7   ar
     9    10     9    1
    10    11    10    1
    11    12    11    1
    12    13    11    1
    13    14    10    1
    14    15    14   ar
    15    16    15    1
    16    17    15   ar
    17    18    17   ar
    18    19    18    1
    19    20    18   ar
    20    21    17    1
    21    22    21    1
    22    23    21    1
    23    24    20    1
    24    25    24    1
    25    26    25    1
    26    27    25    1
    27    28    24    1
    28    29    28   ar
    29    30    29    1
    30    31    29   ar
    31    32    31    1
    32    33    31   ar
    33    34    33    1
    34    35    33   ar
    35    36    35    1
    36    37     1   ar
    37    38    14   ar
    38    39    28   ar
    39    40    41    1
    40    42    37    1
    41    43    11    1
    42    44    21    1
    43    45    25    1
    44    46    47    1
    45    48    46   ar
    46    49    48    1
    47    50    48   ar
    48    51    50    1
    49    52    50   ar
    50    53    52    1
    51    54    10    1
    52    55    24    1
    53    56    55   ar
    54    57    56    1
    55    58    56   ar
    56    59    58    1
    57    60    58   ar
    58    61    60    1
    59    62    60   ar
    60    63    62    1
    61    64    42    1
    62    65    42    1
    63    66    40    1
    64     9    37   ar
    65    20    38   ar
    66    35    39   ar
    67    38    42    1
    68    39    42    1
    69    40    42    1
    70    46    64   ar
    71    52    54   ar
    72    54    64   ar
    73    55    65   ar
    74    62    65   ar
    75    67    68    1
    76    69    67    1
    77    70    67    1
    78    71    67    1
    79    72    73    1
    80    74    72    1
    81    75    76    1
    82    77    75    1
    83    78    79    1
    84    80    78    1
@<TRIPOS>SUBSTRUCTURE
     1 RES1        1 GROUP             0 ****  ****    0  
     2 RES2       67 GROUP             0 ****  ****    0  
     3 RES3       72 GROUP             0 ****  ****    0  
     4 RES4       75 GROUP             0 ****  ****    0  
     5 RES5       78 GROUP             0 ****  ****    0  
@<TRIPOS>CRYSIN
    9.1870   13.5440   12.4320   90.0000   95.7470   90.0000    11     1
