@<TRIPOS>MOLECULE
ONOXUM
    95   103     1     0     0
SMALL
NO_CHARGES
****
Generated from the CSD

@<TRIPOS>ATOM
     1 Fe1      8.7885   8.1057  23.5690   Fe        1 RES1   0.0000
     2 Cl1      7.5266   8.0517  25.5621   Cl        1 RES1   0.0000
     3 P1       9.9541   9.8287  24.4510   P.3       1 RES1   0.0000
     4 P2       7.0445   8.8839  22.3491   P.3       1 RES1   0.0000
     5 O1      10.4606   8.0910  21.2355   O.2       1 RES1   0.0000
     6 N1       8.0353   6.3489  23.0910   N.2       1 RES1   0.0000
     7 N2      10.0649   6.9331  24.6352   N.3       1 RES1   0.0000
     8 C1       8.5829   5.2171  23.8470   C.3       1 RES1   0.0000
     9 H1       8.1140   5.1767  24.7300   H         1 RES1   0.0000
    10 C2      10.0560   5.5384  24.1070   C.3       1 RES1   0.0000
    11 H2      10.5415   5.5280  23.2321   H         1 RES1   0.0000
    12 C3      11.3862   7.5068  24.8627   C.3       1 RES1   0.0000
    13 H3      11.8806   7.5758  24.0068   H         1 RES1   0.0000
    14 H4      11.9050   6.9331  25.4803   H         1 RES1   0.0000
    15 C4      11.1889   8.9054  25.4776   C.3       1 RES1   0.0000
    16 H5      12.0502   9.3933  25.4911   H         1 RES1   0.0000
    17 H6      10.8619   8.8234  26.4066   H         1 RES1   0.0000
    18 C5       6.8648   6.2735  22.4683   C.2       1 RES1   0.0000
    19 C6       6.2263   7.3676  21.9997   C.2       1 RES1   0.0000
    20 C7       9.7845   8.1157  22.1568   C.1       1 RES1   0.0000
    21 C8      10.6978   4.5353  25.0171   C.ar      1 RES1   0.0000
    22 C9      11.5658   3.5869  24.4943   C.ar      1 RES1   0.0000
    23 H7      11.7753   3.6116  23.5680   H         1 RES1   0.0000
    24 C10     10.9872   3.4919  27.1705   C.ar      1 RES1   0.0000
    25 H8      10.7921   3.4633  28.0995   H         1 RES1   0.0000
    26 C11     11.8396   2.5669  26.6179   C.ar      1 RES1   0.0000
    27 H9      12.2297   1.8930  27.1623   H         1 RES1   0.0000
    28 C12     12.1256   2.6202  25.2744   C.ar      1 RES1   0.0000
    29 H10     12.7153   1.9827  24.8898   H         1 RES1   0.0000
    30 C13     10.4052   4.4807  26.3606   C.ar      1 RES1   0.0000
    31 H11      9.8077   5.1143  26.7425   H         1 RES1   0.0000
    32 C14      8.4022   3.8744  23.1562   C.ar      1 RES1   0.0000
    33 C15      8.8267   3.6949  21.8588   C.ar      1 RES1   0.0000
    34 H12      9.2347   4.4169  21.3983   H         1 RES1   0.0000
    35 C16      8.6682   2.4693  21.2141   C.ar      1 RES1   0.0000
    36 H13      8.9797   2.3548  20.3230   H         1 RES1   0.0000
    37 C17      8.0541   1.4194  21.8778   C.ar      1 RES1   0.0000
    38 H14      7.9134   0.5894  21.4390   H         1 RES1   0.0000
    39 C18      7.6573   1.5924  23.1644   C.ar      1 RES1   0.0000
    40 H15      7.2594   0.8678  23.6330   H         1 RES1   0.0000
    41 C19      7.8214   2.8024  23.8036   C.ar      1 RES1   0.0000
    42 H16      7.5309   2.9000  24.7029   H         1 RES1   0.0000
    43 C20      9.2956  11.0742  25.5995   C.ar      1 RES1   0.0000
    44 C21     10.1358  11.7195  26.5014   C.ar      1 RES1   0.0000
    45 H17     11.0326  11.4229  26.6071   H         1 RES1   0.0000
    46 C22      9.6781  12.7837  27.2463   C.ar      1 RES1   0.0000
    47 H18     10.2478  13.1948  27.8828   H         1 RES1   0.0000
    48 C23      8.3967  13.2547  27.0648   C.ar      1 RES1   0.0000
    49 H19      8.1007  14.0249  27.5388   H         1 RES1   0.0000
    50 C24      7.5420  12.6029  26.1954   C.ar      1 RES1   0.0000
    51 H20      6.6486  12.9099  26.0924   H         1 RES1   0.0000
    52 C25      7.9766  11.5126  25.4757   C.ar      1 RES1   0.0000
    53 H21      7.3780  11.0573  24.8952   H         1 RES1   0.0000
    54 C26     11.0082  10.8856  23.3946   C.ar      1 RES1   0.0000
    55 C27     12.1998  10.4133  22.8553   C.ar      1 RES1   0.0000
    56 H22     12.4714   9.5182  23.0262   H         1 RES1   0.0000
    57 C28     12.9913  11.2264  22.0755   C.ar      1 RES1   0.0000
    58 H23     13.8138  10.8921  21.7369   H         1 RES1   0.0000
    59 C29     12.6133  12.5183  21.7775   C.ar      1 RES1   0.0000
    60 H24     13.1620  13.0686  21.2304   H         1 RES1   0.0000
    61 C30     11.4161  13.0036  22.2922   C.ar      1 RES1   0.0000
    62 H25     11.1390  13.8896  22.0917   H         1 RES1   0.0000
    63 C31     10.6258  12.1996  23.1021   C.ar      1 RES1   0.0000
    64 H26      9.8166  12.5443  23.4596   H         1 RES1   0.0000
    65 C32      7.3735   9.7172  20.7564   C.ar      1 RES1   0.0000
    66 C33      8.3490  10.7008  20.6399   C.ar      1 RES1   0.0000
    67 H27      8.9154  10.8921  21.3794   H         1 RES1   0.0000
    68 C34      8.5031  11.4151  19.4400   C.ar      1 RES1   0.0000
    69 H28      9.1715  12.0864  19.3723   H         1 RES1   0.0000
    70 C35      7.6917  11.1458  18.3592   C.ar      1 RES1   0.0000
    71 C36      6.7473  10.1375  18.4649   C.ar      1 RES1   0.0000
    72 H29      6.2041   9.9215  17.7173   H         1 RES1   0.0000
    73 C37      6.5843   9.4427  19.6485   C.ar      1 RES1   0.0000
    74 H30      5.9203   8.7662  19.7054   H         1 RES1   0.0000
    75 C38      7.7804  11.9485  17.0807   C.3       1 RES1   0.0000
    76 H31      8.4864  12.6237  17.1674   H         1 RES1   0.0000
    77 H32      6.9224  12.3921  16.9128   H         1 RES1   0.0000
    78 H33      7.9899  11.3513  16.3332   H         1 RES1   0.0000
    79 C39      5.8062  10.0126  23.0967   C.ar      1 RES1   0.0000
    80 C40      5.6998  11.3422  22.7500   C.ar      1 RES1   0.0000
    81 H34      6.2230  11.6883  22.0376   H         1 RES1   0.0000
    82 C41      4.8274  12.1814  23.4434   C.ar      1 RES1   0.0000
    83 H35      4.7675  13.0960  23.1969   H         1 RES1   0.0000
    84 C42      4.0526  11.7130  24.4808   C.ar      1 RES1   0.0000
    85 C43      4.1457  10.3690  24.8085   C.ar      1 RES1   0.0000
    86 H36      3.6169  10.0243  25.5182   H         1 RES1   0.0000
    87 C44      4.9925   9.5221  24.1205   C.ar      1 RES1   0.0000
    88 H37      5.0214   8.5997  24.3426   H         1 RES1   0.0000
    89 C45      3.0838  12.6042  25.1769   C.3       1 RES1   0.0000
    90 H38      2.6182  12.0981  25.8757   H         1 RES1   0.0000
    91 H39      2.4320  12.9450  24.5322   H         1 RES1   0.0000
    92 H40      3.5648  13.3549  25.5832   H         1 RES1   0.0000
    93 H41      9.6659   6.9084  25.3448   H         1 RES1   0.0000
    94 H42      6.4956   5.3862  22.3762   H         1 RES1   0.0000
    95 H43      5.4980   7.3117  21.5067   H         1 RES1   0.0000
@<TRIPOS>BOND
     1     1     2    1
     2     3     1    1
     3     4     1    1
     4     5    20    3
     5     6     1    1
     6     7     1    1
     7     8     6    1
     8     9     8    1
     9    10     7    1
    10    11    10    1
    11    12     7    1
    12    13    12    1
    13    14    12    1
    14    15     3    1
    15    16    15    1
    16    17    15    1
    17    18     6    1
    18    19     4    1
    19    20     1    1
    20    21    10    1
    21    22    21   ar
    22    23    22    1
    23    24    25    1
    24    26    24   ar
    25    27    26    1
    26    28    22   ar
    27    29    28    1
    28    30    21   ar
    29    31    30    1
    30    32     8    1
    31    33    32   ar
    32    34    33    1
    33    35    33   ar
    34    36    35    1
    35    37    35   ar
    36    38    37    1
    37    39    37   ar
    38    40    39    1
    39    41    32   ar
    40    42    41    1
    41    43     3    1
    42    44    43   ar
    43    45    44    1
    44    46    44   ar
    45    47    46    1
    46    48    46   ar
    47    49    48    1
    48    50    48   ar
    49    51    50    1
    50    52    43   ar
    51    53    52    1
    52    54     3    1
    53    55    54   ar
    54    56    55    1
    55    57    55   ar
    56    58    57    1
    57    59    57   ar
    58    60    59    1
    59    61    59   ar
    60    62    61    1
    61    63    54   ar
    62    64    63    1
    63    65     4    1
    64    66    65   ar
    65    67    66    1
    66    68    66   ar
    67    69    68    1
    68    70    68   ar
    69    71    70   ar
    70    72    71    1
    71    73    65   ar
    72    74    73    1
    73    75    70    1
    74    76    75    1
    75    77    75    1
    76    78    75    1
    77    79     4    1
    78    80    79   ar
    79    81    80    1
    80    82    80   ar
    81    83    82    1
    82    84    82   ar
    83    85    84   ar
    84    86    85    1
    85    87    79   ar
    86    88    87    1
    87    89    84    1
    88    90    89    1
    89    91    89    1
    90    92    89    1
    91    93     7    1
    92    94    18    1
    93    95    19    1
    94     8    10    1
    95    12    15    1
    96    18    19    2
    97    24    30   ar
    98    26    28   ar
    99    39    41   ar
   100    50    52   ar
   101    61    63   ar
   102    71    73   ar
   103    85    87   ar
@<TRIPOS>SUBSTRUCTURE
     1 RES1        1 GROUP             0 ****  ****    0  
@<TRIPOS>CRYSIN
   11.0847   13.0101   27.0865   90.0000   90.0000   90.0000    19     1
