@<TRIPOS>MOLECULE
OPEMII
    90    97     4     0     0
SMALL
USER_CHARGES
****
Generated from the CSD

@<TRIPOS>ATOM
     1 I1      11.2088   8.9741   5.3132   I         1 RES1   0.0000
     2 I2       6.4679  10.7689   8.7010   I         1 RES1   0.0000
     3 I3       9.9681   6.2915  10.5953   I         1 RES1   0.0000
     4 F1       7.7010   8.4523  10.4120   F         1 RES1   0.0000
     5 F2      11.3581   7.0738   7.8509   F         1 RES1   0.0000
     6 F3       8.6856  10.6289   6.3732   F         1 RES1   0.0000
     7 C1       8.1390   9.5661   8.4144   C.ar      1 RES1   0.0000
     8 C2      10.0606   8.8595   7.0705   C.ar      1 RES1   0.0000
     9 C3       8.4741   8.6037   9.3301   C.ar      1 RES1   0.0000
    10 C4       9.5579   7.7347   9.1625   C.ar      1 RES1   0.0000
    11 C5      10.3206   7.8926   8.0172   C.ar      1 RES1   0.0000
    12 C6       8.9687   9.6894   7.2917   C.ar      1 RES1   0.0000
    13 Fe1      3.3853   6.9496  11.1730   Fe        2 RES2   1.0000
    14 O1       2.1021   7.5669  12.4462   O.3       2 RES2   0.0000
    15 O2       2.3506   5.5206  10.5205   O.3       2 RES2   0.0000
    16 N1       4.3613   5.6666  12.4603   N.2       2 RES2   0.0000
    17 N2       2.6767   8.3008   9.7908   N.2       2 RES2   0.0000
    18 O3      -1.8755  11.3942  12.3983   O.3       2 RES2   0.0000
    19 N3       4.8105   8.2176  12.0152   N.ar      2 RES2   0.0000
    20 O4       1.4815   0.3271  12.1490   O.3       2 RES2   0.0000
    21 N4       4.7454   6.6755   9.5893   N.ar      2 RES2   0.0000
    22 C7       5.4916   6.2218  13.1323   C.ar      2 RES2   0.0000
    23 C8       4.4505   7.4176   8.4708   C.ar      2 RES2   0.0000
    24 C9       3.3446   8.2858   8.5328   C.ar      2 RES2   0.0000
    25 C10      5.6751   7.6169  12.8759   C.ar      2 RES2   0.0000
    26 C11      1.6898   9.1243   9.9993   C.2       2 RES2   0.0000
    27 H1       1.4486   9.6851   9.2845   H         2 RES2   0.0000
    28 C12      0.9402   9.2595  11.2051   C.ar      2 RES2   0.0000
    29 C13      3.9921   4.4524  12.7139   C.2       2 RES2   0.0000
    30 H2       4.4596   3.9936  13.3886   H         2 RES2   0.0000
    31 C14      2.9320   3.7473  12.0574   C.ar      2 RES2   0.0000
    32 C15      2.1627   4.3060  11.0037   C.ar      2 RES2   0.0000
    33 C16      6.7261   8.3221  13.5070   C.ar      2 RES2   0.0000
    34 C17      1.1782   8.4993  12.3617   C.ar      2 RES2   0.0000
    35 C18     -0.0982  10.2426  11.1911   C.ar      2 RES2   0.0000
    36 H3      -0.2612  10.7372  10.4077   H         2 RES2   0.0000
    37 C19      6.3631   5.5622  13.9508   C.ar      2 RES2   0.0000
    38 H4       6.2627   4.6396  14.0997   H         2 RES2   0.0000
    39 C20      5.2033   7.2972   7.2593   C.ar      2 RES2   0.0000
    40 C21      5.7778   5.8484   9.5541   C.ar      2 RES2   0.0000
    41 H5       5.9844   5.3418  10.3188   H         2 RES2   0.0000
    42 C22      7.5974   7.6047  14.3607   C.ar      2 RES2   0.0000
    43 H6       8.3048   8.0551  14.7850   H         2 RES2   0.0000
    44 C23     -0.8610  10.4715  12.3138   C.ar      2 RES2   0.0000
    45 C24      4.9308   9.5242  11.7912   C.ar      2 RES2   0.0000
    46 H7       4.3300   9.9423  11.2025   H         2 RES2   0.0000
    47 C25      1.1764   3.4904  10.4177   C.ar      2 RES2   0.0000
    48 H8       0.6432   3.8367   9.7247   H         2 RES2   0.0000
    49 C26      2.7052   2.4045  12.4702   C.ar      2 RES2   0.0000
    50 H9       3.2127   2.0360  13.1711   H         2 RES2   0.0000
    51 C27      7.4229   6.2744  14.5763   C.ar      2 RES2   0.0000
    52 H10      8.0130   5.8178  15.1487   H         2 RES2   0.0000
    53 C28      6.8227   9.7157  13.2394   C.ar      2 RES2   0.0000
    54 H11      7.5023  10.2293  13.6369   H         2 RES2   0.0000
    55 C29      3.0070   9.0166   7.4241   C.ar      2 RES2   0.0000
    56 H12      2.2677   9.5964   7.4609   H         2 RES2   0.0000
    57 C30      5.9287  10.2965  12.4096   C.ar      2 RES2   0.0000
    58 H13      5.9739  11.2203  12.2441   H         2 RES2   0.0000
    59 C31     -0.6095   9.7183  13.4521   C.ar      2 RES2   0.0000
    60 H14     -1.1296   9.8710  14.2206   H         2 RES2   0.0000
    61 C32      0.3558   8.7733  13.4972   C.ar      2 RES2   0.0000
    62 H15      0.4877   8.2874  14.2912   H         2 RES2   0.0000
    63 C33      1.7522   1.6506  11.8489   C.ar      2 RES2   0.0000
    64 C34      0.9790   2.2050  10.8361   C.ar      2 RES2   0.0000
    65 H16      0.3087   1.6853  10.4308   H         2 RES2   0.0000
    66 C35      6.2978   6.4068   7.2874   C.ar      2 RES2   0.0000
    67 H17      6.8338   6.3012   6.5230   H         2 RES2   0.0000
    68 C36      4.8264   8.0899   6.1633   C.ar      2 RES2   0.0000
    69 H18      5.3283   8.0529   5.3688   H         2 RES2   0.0000
    70 C37      3.7451   8.9131   6.2365   C.ar      2 RES2   0.0000
    71 H19      3.4898   9.4153   5.4849   H         2 RES2   0.0000
    72 C38      6.5782   5.7064   8.4017   C.ar      2 RES2   0.0000
    73 H20      7.3125   5.1201   8.4115   H         2 RES2   0.0000
    74 C39      2.4450  -0.3618  12.9266   C.3       2 RES2   0.0000
    75 H21      3.3015  -0.3433  12.4709   H         2 RES2   0.0000
    76 H22      2.1647  -1.2828  13.0489   H         2 RES2   0.0000
    77 H23      2.5303   0.0674  13.7921   H         2 RES2   0.0000
    78 C40     -2.0869  12.2140  11.3009   C.3       2 RES2   0.0000
    79 H24     -2.3469  11.6737  10.5387   H         2 RES2   0.0000
    80 H25     -1.2703  12.6942  11.0941   H         2 RES2   0.0000
    81 H26     -2.7929  12.8486  11.5029   H         2 RES2   0.0000
    82 S1       7.0913  15.7904  11.4493   S.2       3 RES3  -1.0000
    83 C41      6.1335  14.4940  11.1826   C.1       3 RES3   0.0000
    84 N5       5.4454  13.5841  11.0375   N.1       3 RES3   0.0000
    85 O5       3.8144  11.7856   9.7231   O.3       4 RES4   0.0000
    86 H27      4.3188  12.3357  10.0867   H         4 RES4   0.0000
    87 C42      2.8280  12.4581   9.0174   C.3       4 RES4   0.0000
    88 H28      2.6557  11.9967   8.1824   H         4 RES4   0.0000
    89 H29      3.1240  13.3635   8.8318   H         4 RES4   0.0000
    90 H30      2.0153  12.4862   9.5460   H         4 RES4   0.0000
@<TRIPOS>BOND
     1     1     8    1
     2     2     7    1
     3     3    10    1
     4     4     9    1
     5     5    11    1
     6     6    12    1
     7     7     9   ar
     8     8    11   ar
     9     9    10   ar
    10    10    11   ar
    11    12     7   ar
    12     8    12   ar
    13    13    14    1
    14    14    34    1
    15    15    13    1
    16    16    13    1
    17    17    13    1
    18    18    44    1
    19    19    13    1
    20    20    63    1
    21    21    13    1
    22    22    16    1
    23    23    21   ar
    24    24    17    1
    25    25    19   ar
    26    26    17    2
    27    27    26    1
    28    28    26    1
    29    29    16    2
    30    30    29    1
    31    31    29    1
    32    32    15    1
    33    33    25   ar
    34    34    28   ar
    35    35    28   ar
    36    36    35    1
    37    37    22   ar
    38    38    37    1
    39    39    23   ar
    40    40    21   ar
    41    41    40    1
    42    42    33   ar
    43    43    42    1
    44    44    35   ar
    45    45    19   ar
    46    46    45    1
    47    47    32   ar
    48    48    47    1
    49    49    31   ar
    50    50    49    1
    51    51    37   ar
    52    52    51    1
    53    53    33   ar
    54    54    53    1
    55    55    24   ar
    56    56    55    1
    57    57    45   ar
    58    58    57    1
    59    59    44   ar
    60    60    59    1
    61    61    34   ar
    62    62    61    1
    63    63    49   ar
    64    64    47   ar
    65    65    64    1
    66    66    39   ar
    67    67    66    1
    68    68    39   ar
    69    69    68    1
    70    70    55   ar
    71    71    70    1
    72    72    40   ar
    73    73    72    1
    74    74    20    1
    75    75    74    1
    76    76    74    1
    77    77    74    1
    78    78    18    1
    79    79    78    1
    80    80    78    1
    81    81    78    1
    82    22    25   ar
    83    23    24   ar
    84    31    32   ar
    85    42    51   ar
    86    53    57   ar
    87    59    61   ar
    88    63    64   ar
    89    66    72   ar
    90    68    70   ar
    91    82    83    1
    92    83    84    3
    93    85    86    1
    94    87    85    1
    95    88    87    1
    96    89    87    1
    97    90    87    1
@<TRIPOS>SUBSTRUCTURE
     1 RES1        1 GROUP             0 ****  ****    0  
     2 RES2       13 GROUP             0 ****  ****    0  
     3 RES3       82 GROUP             0 ****  ****    0  
     4 RES4       85 GROUP             0 ****  ****    0  
@<TRIPOS>CRYSIN
   11.4071   12.9004   14.3826   95.7100  100.0510   90.4360     2     1
