@<TRIPOS>MOLECULE
OPESOU
    84    92     3     0     0
SMALL
USER_CHARGES
****
Generated from the CSD

@<TRIPOS>ATOM
     1 I1      14.6471  10.4017   8.3953   I         1 RES1   0.0000
     2 I2       9.7182  12.3596   5.4113   I         1 RES1   0.0000
     3 I3      12.6793   7.5545   3.4473   I         1 RES1   0.0000
     4 F1      14.3925   8.3604   6.0023   F         1 RES1   0.0000
     5 F2      12.1071  12.1658   7.5202   F         1 RES1   0.0000
     6 F3      10.5010   9.7710   3.8274   F         1 RES1   0.0000
     7 C1      12.4526   9.0437   4.8652   C.ar      1 RES1   0.0000
     8 C2      12.2323  11.1350   6.6592   C.ar      1 RES1   0.0000
     9 C3      13.3602   9.2207   5.8867   C.ar      1 RES1   0.0000
    10 C4      13.2595  10.2392   6.8116   C.ar      1 RES1   0.0000
    11 C5      11.2662  10.9964   5.6895   C.ar      1 RES1   0.0000
    12 C6      11.4116   9.9291   4.7727   C.ar      1 RES1   0.0000
    13 Fe1      6.3871   8.2374   2.8627   Fe        2 RES2   1.0000
    14 O1       5.2173   6.9922   3.5690   O.3       2 RES2   0.0000
    15 O2       5.1784   8.7633   1.5315   O.3       2 RES2   0.0000
    16 N1       7.2100   6.9707   1.6267   N.2       2 RES2   0.0000
    17 N2       5.7159   9.5514   4.1593   N.2       2 RES2   0.0000
    18 O3       0.8911  12.2014   1.6770   O.3       2 RES2   0.0000
    19 N3       7.7528   9.4530   2.0810   N.ar      2 RES2   0.0000
    20 N4       7.6779   7.8513   4.3334   N.ar      2 RES2   0.0000
    21 O4       4.0814   1.8178   2.0592   O.3       2 RES2   0.0000
    22 C7       4.6577  10.2522   4.0083   C.2       2 RES2   0.0000
    23 H1       4.3936  10.7860   4.7359   H         2 RES2   0.0000
    24 C8       4.9484   5.7945   3.0875   C.ar      2 RES2   0.0000
    25 C9       7.5181   8.6781   5.4147   C.ar      2 RES2   0.0000
    26 C10      8.3484   7.4501   0.9548   C.ar      2 RES2   0.0000
    27 C11      4.1607   9.5610   1.6662   C.ar      2 RES2   0.0000
    28 C12      6.4914   9.6292   5.3521   C.ar      2 RES2   0.0000
    29 C13      8.6150   8.8330   1.2037   C.ar      2 RES2   0.0000
    30 C14      1.9544  11.3481   1.7573   C.ar      2 RES2   0.0000
    31 C15      6.7566   5.7804   1.3561   C.2       2 RES2   0.0000
    32 H2       7.1721   5.2994   0.6635   H         2 RES2   0.0000
    33 C16      5.6772   5.1653   2.0361   C.ar      2 RES2   0.0000
    34 C17      9.6696   9.4882   0.5685   C.ar      2 RES2   0.0000
    35 C18      8.3519   8.5894   6.5667   C.ar      2 RES2   0.0000
    36 C19      8.6225   6.9286   4.3728   C.ar      2 RES2   0.0000
    37 H3       8.7385   6.3577   3.6359   H         2 RES2   0.0000
    38 C20      3.8480  10.3029   2.8508   C.ar      2 RES2   0.0000
    39 C21      3.2888   9.7440   0.5658   C.ar      2 RES2   0.0000
    40 H4       3.4501   9.2638  -0.2260   H         2 RES2   0.0000
    41 C22      7.9265  10.7585   2.3054   C.ar      2 RES2   0.0000
    42 H5       7.3546  11.1981   2.9075   H         2 RES2   0.0000
    43 C23      2.7601  11.1896   2.8753   C.ar      2 RES2   0.0000
    44 H6       2.5752  11.6795   3.6555   H         2 RES2   0.0000
    45 C24      5.3770   3.8424   1.6634   C.ar      2 RES2   0.0000
    46 H7       5.8557   3.4453   0.9591   H         2 RES2   0.0000
    47 C25     10.5055   8.7549  -0.2679   C.ar      2 RES2   0.0000
    48 H8      11.2228   9.1747  -0.7075   H         2 RES2   0.0000
    49 C26      9.1974   6.7601   0.1387   C.ar      2 RES2   0.0000
    50 H9       9.0566   5.8459  -0.0305   H         2 RES2   0.0000
    51 C27      3.9038   5.0457   3.6873   C.ar      2 RES2   0.0000
    52 H10      3.3752   5.4421   4.3559   H         2 RES2   0.0000
    53 C28      4.4013   3.1170   2.3041   C.ar      2 RES2   0.0000
    54 C29      2.2214  10.5952   0.6161   C.ar      2 RES2   0.0000
    55 H11      1.6571  10.6738  -0.1317   H         2 RES2   0.0000
    56 C30      9.3576   7.5970   6.5627   C.ar      2 RES2   0.0000
    57 H12      9.9423   7.5099   7.2935   H         2 RES2   0.0000
    58 C31      7.1277  10.4233   7.5338   C.ar      2 RES2   0.0000
    59 H13      6.9945  11.0287   8.2404   H         2 RES2   0.0000
    60 C32      9.4676   6.7817   5.5045   C.ar      2 RES2   0.0000
    61 H14     10.1155   6.1002   5.5110   H         2 RES2   0.0000
    62 C33      3.6510   3.7515   3.3051   C.ar      2 RES2   0.0000
    63 H15      2.9565   3.2780   3.7250   H         2 RES2   0.0000
    64 C34      0.7429  13.1473   2.7040   C.3       2 RES2   0.0000
    65 H16      0.0083  13.7438   2.4904   H         2 RES2   0.0000
    66 H17      1.5614  13.6613   2.7903   H         2 RES2   0.0000
    67 H18      0.5576  12.6917   3.5394   H         2 RES2   0.0000
    68 C35     10.2746   7.4254  -0.4420   C.ar      2 RES2   0.0000
    69 H19     10.8699   6.9342  -0.9791   H         2 RES2   0.0000
    70 C36      6.2947  10.4785   6.4035   C.ar      2 RES2   0.0000
    71 H20      5.5956  11.1068   6.3711   H         2 RES2   0.0000
    72 C37      8.1290   9.4996   7.6181   C.ar      2 RES2   0.0000
    73 H21      8.6733   9.4697   8.3838   H         2 RES2   0.0000
    74 C38      9.8196  10.8758   0.8256   C.ar      2 RES2   0.0000
    75 H22     10.5141  11.3651   0.4244   H         2 RES2   0.0000
    76 C39      5.0122   1.0820   1.2758   C.3       2 RES2   0.0000
    77 H23      5.0482   1.4550   0.3807   H         2 RES2   0.0000
    78 H24      4.7324   0.1542   1.2276   H         2 RES2   0.0000
    79 H25      5.8908   1.1338   1.6830   H         2 RES2   0.0000
    80 C40      8.9318  11.4885   1.6716   C.ar      2 RES2   0.0000
    81 H26      9.0011  12.4136   1.8272   H         2 RES2   0.0000
    82 S1      16.5859  10.0385  10.9507   S.2       3 RES3  -1.0000
    83 C41     17.6387  11.1830  10.6934   C.1       3 RES3   0.0000
    84 N5      18.4747  12.0483  10.5030   N.1       3 RES3   0.0000
@<TRIPOS>BOND
     1     1    10    1
     2     2    11    1
     3     3     7    1
     4     4     9    1
     5     5     8    1
     6     6    12    1
     7     7     9   ar
     8     8    10   ar
     9     9    10   ar
    10    11     8   ar
    11    12     7   ar
    12    11    12   ar
    13    13    14    1
    14    14    24    1
    15    15    13    1
    16    16    13    1
    17    17    13    1
    18    18    30    1
    19    19    13    1
    20    20    13    1
    21    21    53    1
    22    22    17    2
    23    23    22    1
    24    24    33   ar
    25    25    20   ar
    26    26    16    1
    27    27    15    1
    28    28    17    1
    29    29    19   ar
    30    30    43   ar
    31    31    16    2
    32    32    31    1
    33    33    31    1
    34    34    29   ar
    35    35    25   ar
    36    36    20   ar
    37    37    36    1
    38    38    22    1
    39    39    27   ar
    40    40    39    1
    41    41    19   ar
    42    42    41    1
    43    43    38   ar
    44    44    43    1
    45    45    33   ar
    46    46    45    1
    47    47    34   ar
    48    48    47    1
    49    49    26   ar
    50    50    49    1
    51    51    24   ar
    52    52    51    1
    53    53    45   ar
    54    54    30   ar
    55    55    54    1
    56    56    35   ar
    57    57    56    1
    58    58    59    1
    59    60    36   ar
    60    61    60    1
    61    62    51   ar
    62    63    62    1
    63    64    18    1
    64    65    64    1
    65    66    64    1
    66    67    64    1
    67    68    47   ar
    68    69    68    1
    69    70    28   ar
    70    71    70    1
    71    72    35   ar
    72    73    72    1
    73    74    34   ar
    74    75    74    1
    75    76    21    1
    76    77    76    1
    77    78    76    1
    78    79    76    1
    79    80    41   ar
    80    81    80    1
    81    25    28   ar
    82    26    29   ar
    83    27    38   ar
    84    39    54   ar
    85    49    68   ar
    86    53    62   ar
    87    56    60   ar
    88    58    70   ar
    89    58    72   ar
    90    74    80   ar
    91    82    83    1
    92    83    84    3
@<TRIPOS>SUBSTRUCTURE
     1 RES1        1 GROUP             0 ****  ****    0  
     2 RES2       13 GROUP             0 ****  ****    0  
     3 RES3       82 GROUP             0 ****  ****    0  
@<TRIPOS>CRYSIN
   11.7204   12.4318   14.0215   83.3330   77.6040   89.3810     2     1
