@<TRIPOS>MOLECULE
OPEVUD23
    90    97     4     0     0
SMALL
USER_CHARGES
****
Generated from the CSD

@<TRIPOS>ATOM
     1 I1      -2.3746   2.5519   8.8264   I         1 RES1   0.0000
     2 I2       2.3156   0.7222   5.3988   I         1 RES1   0.0000
     3 I3      -1.1854   5.1927   3.5186   I         1 RES1   0.0000
     4 F1      -2.5429   4.4441   6.2873   F         1 RES1   0.0000
     5 F2       0.1313   0.8971   7.7445   F         1 RES1   0.0000
     6 F3       1.0700   3.0188   3.6846   F         1 RES1   0.0000
     7 C1       0.6657   1.9283   5.6990   C.ar      1 RES1   0.0000
     8 C2       0.3213   2.8896   4.7835   C.ar      1 RES1   0.0000
     9 C3      -0.7626   3.7632   4.9443   C.ar      1 RES1   0.0000
    10 C4      -1.2346   2.6600   7.0674   C.ar      1 RES1   0.0000
    11 C5      -0.1504   1.8309   6.8304   C.ar      1 RES1   0.0000
    12 C6      -1.5042   3.6116   6.0954   C.ar      1 RES1   0.0000
    13 Fe1      5.4410   4.5515   2.8997   Fe        2 RES2   1.0000
    14 O1       6.7335   3.8752   1.6646   O.3       2 RES2   0.0000
    15 O2       6.4504   6.0292   3.5069   O.3       2 RES2   0.0000
    16 N1       4.4074   5.8576   1.6067   N.2       2 RES2   0.0000
    17 O3      10.6480   0.0064   1.7224   O.3       2 RES2   0.0000
    18 N2       6.1342   3.1551   4.3138   N.2       2 RES2   0.0000
    19 N3       3.9624   3.2913   2.0370   N.ar      2 RES2   0.0000
    20 O4       7.2178  11.2322   1.9213   O.3       2 RES2   0.0000
    21 N4       4.0757   4.7919   4.5437   N.ar      2 RES2   0.0000
    22 C7       4.3740   4.0568   5.6525   C.ar      2 RES2   0.0000
    23 C8       3.2943   5.2984   0.9324   C.ar      2 RES2   0.0000
    24 C9       3.0917   3.8999   1.1906   C.ar      2 RES2   0.0000
    25 C10      7.8492   2.1569   2.9003   C.ar      2 RES2   0.0000
    26 C11      5.4787   3.1836   5.5749   C.ar      2 RES2   0.0000
    27 C12      7.6443   2.9335   1.7436   C.ar      2 RES2   0.0000
    28 C13      7.1042   2.3092   4.0993   C.2       2 RES2   0.0000
    29 H1       7.3302   1.7474   4.8045   H         2 RES2   0.0000
    30 C14      6.5973   7.2529   3.0498   C.ar      2 RES2   0.0000
    31 C15      5.8050   7.7994   2.0243   C.ar      2 RES2   0.0000
    32 C16      4.7489   7.0847   1.3782   C.2       2 RES2   0.0000
    33 H2       4.2617   7.5443   0.7337   H         2 RES2   0.0000
    34 C17      8.8691   1.1662   2.9116   C.ar      2 RES2   0.0000
    35 H3       9.0146   0.6676   3.6822   H         2 RES2   0.0000
    36 C18      9.6385   0.9376   1.8056   C.ar      2 RES2   0.0000
    37 C19      2.0450   3.2057   0.5614   C.ar      2 RES2   0.0000
    38 C20      2.4002   5.9543   0.1199   C.ar      2 RES2   0.0000
    39 H4       2.4899   6.8680  -0.0268   H         2 RES2   0.0000
    40 C21      3.6156   4.1732   6.8586   C.ar      2 RES2   0.0000
    41 C22      7.5848   8.0694   3.6324   C.ar      2 RES2   0.0000
    42 H5       8.1251   7.7270   4.3078   H         2 RES2   0.0000
    43 C23      6.0045   9.1522   1.6166   C.ar      2 RES2   0.0000
    44 H6       5.4807   9.5125   0.9384   H         2 RES2   0.0000
    45 C24      8.4605   2.6480   0.6207   C.ar      2 RES2   0.0000
    46 H7       8.3389   3.1336  -0.1642   H         2 RES2   0.0000
    47 C25      6.9607   9.9210   2.2190   C.ar      2 RES2   0.0000
    48 C26      1.1644   3.9213  -0.2737   C.ar      2 RES2   0.0000
    49 H8       0.4514   3.4828  -0.6793   H         2 RES2   0.0000
    50 C27      3.8344   1.9787   2.2599   C.ar      2 RES2   0.0000
    51 H9       4.4356   1.5555   2.8296   H         2 RES2   0.0000
    52 C28      7.7596   9.3646   3.2135   C.ar      2 RES2   0.0000
    53 H10      8.4273   9.8823   3.6021   H         2 RES2   0.0000
    54 C29      1.9363   1.8259   0.8281   C.ar      2 RES2   0.0000
    55 H11      1.2565   1.3287   0.4336   H         2 RES2   0.0000
    56 C30      3.0423   5.6217   4.5874   C.ar      2 RES2   0.0000
    57 H12      2.8339   6.1269   3.8345   H         2 RES2   0.0000
    58 C31      5.8259   2.4446   6.6837   C.ar      2 RES2   0.0000
    59 H13      6.5511   1.8642   6.6437   H         2 RES2   0.0000
    60 C32      2.8167   1.2217   1.6575   C.ar      2 RES2   0.0000
    61 H14      2.7501   0.3100   1.8267   H         2 RES2   0.0000
    62 C33      9.4132   1.6841   0.6630   C.ar      2 RES2   0.0000
    63 H15      9.9286   1.5219  -0.0938   H         2 RES2   0.0000
    64 C34      5.0857   2.5631   7.8827   C.ar      2 RES2   0.0000
    65 H16      5.3499   2.0815   8.6332   H         2 RES2   0.0000
    66 C35      2.5488   5.0483   6.8558   C.ar      2 RES2   0.0000
    67 H17      2.0336   5.1486   7.6236   H         2 RES2   0.0000
    68 C36      1.3538   5.2490  -0.4909   C.ar      2 RES2   0.0000
    69 H18      0.7733   5.7013  -1.0590   H         2 RES2   0.0000
    70 C37      2.2447   5.7590   5.7555   C.ar      2 RES2   0.0000
    71 H19      1.5167   6.3366   5.7588   H         2 RES2   0.0000
    72 C38      4.0053   3.3611   7.9561   C.ar      2 RES2   0.0000
    73 H20      3.5050   3.3809   8.7398   H         2 RES2   0.0000
    74 C39     10.8653  -0.8107   2.8171   C.3       2 RES2   0.0000
    75 H21     11.5620  -1.4392   2.6133   H         2 RES2   0.0000
    76 H22     10.0579  -1.2850   3.0275   H         2 RES2   0.0000
    77 H23     11.1275  -0.2748   3.5689   H         2 RES2   0.0000
    78 C40      6.2514  11.9336   1.1483   C.3       2 RES2   0.0000
    79 H24      6.1591  11.5109   0.2912   H         2 RES2   0.0000
    80 H25      6.5365  12.8423   1.0277   H         2 RES2   0.0000
    81 H26      5.4070  11.9206   1.6042   H         2 RES2   0.0000
    82 S1       1.7813  -4.3983   2.6335   S.2       3 RES3  -1.0000
    83 C41      2.6740  -3.0534   2.8961   C.1       3 RES3   0.0000
    84 N5       3.2873  -2.1121   3.0583   N.1       3 RES3   0.0000
    85 O5       4.9620  -0.3180   4.3646   O.3       4 RES4   0.0000
    86 H27      4.7726  -0.7551   3.6972   H         4 RES4   0.0000
    87 C42      5.8939  -1.0023   5.1122   C.3       4 RES4   0.0000
    88 H28      6.7722  -0.8265   4.7663   H         4 RES4   0.0000
    89 H29      5.7133  -1.9436   5.0638   H         4 RES4   0.0000
    90 H30      5.8456  -0.7128   6.0257   H         4 RES4   0.0000
@<TRIPOS>BOND
     1     1    10    1
     2     2     7    1
     3     3     9    1
     4     4    12    1
     5     5    11    1
     6     6     8    1
     7     7     8   ar
     8     8     9   ar
     9     9    12   ar
    10    10    11   ar
    11    11     7   ar
    12    12    10   ar
    13    13    14    1
    14    14    27    1
    15    15    13    1
    16    16    13    1
    17    17    36    1
    18    18    13    1
    19    19    13    1
    20    20    47    1
    21    21    13    1
    22    22    21   ar
    23    23    16    1
    24    24    19   ar
    25    25    27   ar
    26    26    18    1
    27    27    45   ar
    28    28    18    2
    29    29    28    1
    30    30    15    1
    31    31    30   ar
    32    32    16    2
    33    33    32    1
    34    34    25   ar
    35    35    34    1
    36    36    34   ar
    37    37    24   ar
    38    38    23   ar
    39    39    38    1
    40    40    22   ar
    41    41    30   ar
    42    42    41    1
    43    43    31   ar
    44    44    43    1
    45    45    46    1
    46    47    43   ar
    47    48    37   ar
    48    49    48    1
    49    50    19   ar
    50    51    50    1
    51    52    41   ar
    52    53    52    1
    53    54    37   ar
    54    55    54    1
    55    56    21   ar
    56    57    56    1
    57    58    26   ar
    58    59    58    1
    59    60    50   ar
    60    61    60    1
    61    62    36   ar
    62    63    62    1
    63    64    58   ar
    64    65    64    1
    65    66    40   ar
    66    67    66    1
    67    68    38   ar
    68    69    68    1
    69    70    56   ar
    70    71    70    1
    71    72    40   ar
    72    73    72    1
    73    74    17    1
    74    75    74    1
    75    76    74    1
    76    77    74    1
    77    78    20    1
    78    79    78    1
    79    80    78    1
    80    81    78    1
    81    22    26   ar
    82    23    24   ar
    83    25    28    1
    84    31    32    1
    85    45    62   ar
    86    47    52   ar
    87    48    68   ar
    88    54    60   ar
    89    64    72   ar
    90    66    70   ar
    91    82    83    1
    92    83    84    3
    93    85    86    1
    94    87    85    1
    95    88    87    1
    96    89    87    1
    97    90    87    1
@<TRIPOS>SUBSTRUCTURE
     1 RES1        1 GROUP             0 ****  ****    0  
     2 RES2       13 GROUP             0 ****  ****    0  
     3 RES3       82 GROUP             0 ****  ****    0  
     4 RES4       85 GROUP             0 ****  ****    0  
@<TRIPOS>CRYSIN
   11.3813   13.0372   14.3915   95.7810   99.7570   90.5780     2     1
