@<TRIPOS>MOLECULE
OPEVUD32
    90    97     4     0     0
SMALL
USER_CHARGES
****
Generated from the CSD

@<TRIPOS>ATOM
     1 I1      14.0448  10.2311   8.6652   I         1 RES1   0.0000
     2 I2       9.1932  12.0014   5.4241   I         1 RES1   0.0000
     3 I3      12.6374   7.5109   3.4374   I         1 RES1   0.0000
     4 F1      10.3684   9.6526   3.7059   F         1 RES1   0.0000
     5 F2      14.1318   8.3137   6.1325   F         1 RES1   0.0000
     6 F3      11.5075  11.9055   7.6593   F         1 RES1   0.0000
     7 C1      11.1607   9.8127   4.7477   C.ar      1 RES1   0.0000
     8 C2      12.8575  10.1226   6.9339   C.ar      1 RES1   0.0000
     9 C3      10.8835  10.8051   5.6728   C.ar      1 RES1   0.0000
    10 C4      12.2618   8.9656   4.8658   C.ar      1 RES1   0.0000
    11 C5      13.0754   9.1397   5.9765   C.ar      1 RES1   0.0000
    12 C6      11.7549  10.9407   6.7469   C.ar      1 RES1   0.0000
    13 Fe1      6.1832   8.1906   2.9560   Fe        2 RES2   1.0000
    14 O1       4.9705   8.6723   1.5985   O.3       2 RES2   0.0000
    15 O2       5.0486   6.8885   3.6680   O.3       2 RES2   0.0000
    16 O3       3.9091   1.7795   1.9064   O.3       2 RES2   0.0000
    17 O4       0.7958  12.2999   1.6112   O.3       2 RES2   0.0000
    18 N1       5.4514   9.4294   4.2599   N.2       2 RES2   0.0000
    19 N2       7.4799   9.4750   2.1876   N.ar      2 RES2   0.0000
    20 N3       7.4837   7.8261   4.4117   N.ar      2 RES2   0.0000
    21 N4       7.0141   6.9711   1.6829   N.2       2 RES2   0.0000
    22 C7       4.3999  10.1824   4.0869   C.2       2 RES2   0.0000
    23 H1       4.0999  10.6964   4.8283   H         2 RES2   0.0000
    24 C8       6.1220   9.4268   5.5153   C.ar      2 RES2   0.0000
    25 C9       8.1467   7.5147   1.0193   C.ar      2 RES2   0.0000
    26 C10      3.9906   9.5461   1.7082   C.ar      2 RES2   0.0000
    27 C11      3.6631  10.2922   2.8652   C.ar      2 RES2   0.0000
    28 C12      2.5909  11.2241   2.8610   C.ar      2 RES2   0.0000
    29 H2       2.3898  11.7182   3.6465   H         2 RES2   0.0000
    30 C13      8.3448   8.8914   1.2920   C.ar      2 RES2   0.0000
    31 C14      7.2323   8.5428   5.5617   C.ar      2 RES2   0.0000
    32 C15      9.0274   6.8464   0.1940   C.ar      2 RES2   0.0000
    33 H3       8.9268   5.9145   0.0368   H         2 RES2   0.0000
    34 C16      3.1811   9.7737   0.5525   C.ar      2 RES2   0.0000
    35 H4       3.3615   9.2913  -0.2456   H         2 RES2   0.0000
    36 C17      7.5979  10.7708   2.4280   C.ar      2 RES2   0.0000
    37 H5       7.0067  11.1759   3.0512   H         2 RES2   0.0000
    38 C18      6.5616   5.7976   1.3722   C.2       2 RES2   0.0000
    39 H6       6.9797   5.3393   0.6530   H         2 RES2   0.0000
    40 C19      5.1835   3.8245   1.5887   C.ar      2 RES2   0.0000
    41 H7       5.6477   3.4591   0.8451   H         2 RES2   0.0000
    42 C20      8.5141   6.9856   4.4145   C.ar      2 RES2   0.0000
    43 H8       8.7069   6.4908   3.6268   H         2 RES2   0.0000
    44 C21      1.8424  11.4132   1.7222   C.ar      2 RES2   0.0000
    45 C22      5.4861   5.1485   2.0329   C.ar      2 RES2   0.0000
    46 C23      2.1431  10.6794   0.5764   C.ar      2 RES2   0.0000
    47 H9       1.6212  10.8064  -0.2071   H         2 RES2   0.0000
    48 C24      4.2287   3.0806   2.2283   C.ar      2 RES2   0.0000
    49 C25     10.2524   8.9085  -0.2067   C.ar      2 RES2   0.0000
    50 H10     10.9579   9.3696  -0.6459   H         2 RES2   0.0000
    51 C26      8.0068   8.4139   6.7272   C.ar      2 RES2   0.0000
    52 C27      4.7905   5.7074   3.1309   C.ar      2 RES2   0.0000
    53 C28      3.7724   4.9183   3.7298   C.ar      2 RES2   0.0000
    54 H11      3.2680   5.2739   4.4516   H         2 RES2   0.0000
    55 C29      6.5841  10.0446   7.7901   C.ar      2 RES2   0.0000
    56 H12      6.3623  10.5668   8.5522   H         2 RES2   0.0000
    57 C30      5.8199  10.1690   6.6302   C.ar      2 RES2   0.0000
    58 H13      5.0855  10.7717   6.6102   H         2 RES2   0.0000
    59 C31      3.5057   3.6464   3.2800   C.ar      2 RES2   0.0000
    60 H14      2.8146   3.1424   3.6936   H         2 RES2   0.0000
    61 C32      8.5717  11.5739   1.7911   C.ar      2 RES2   0.0000
    62 H15      8.6064  12.5076   1.9629   H         2 RES2   0.0000
    63 C33     10.0799   7.5646  -0.4119   C.ar      2 RES2   0.0000
    64 H16     10.6867   7.1032  -0.9796   H         2 RES2   0.0000
    65 C34      9.3786   9.6110   0.6608   C.ar      2 RES2   0.0000
    66 C35      7.6590   9.1744   7.8505   C.ar      2 RES2   0.0000
    67 H17      8.1603   9.0943   8.6533   H         2 RES2   0.0000
    68 C36      9.3303   6.8075   5.5505   C.ar      2 RES2   0.0000
    69 H18     10.0572   6.1963   5.5173   H         2 RES2   0.0000
    70 C37      9.0869   7.4949   6.6822   C.ar      2 RES2   0.0000
    71 H19      9.6362   7.3656   7.4460   H         2 RES2   0.0000
    72 C38      4.8853   1.0614   1.1514   C.3       2 RES2   0.0000
    73 H20      4.9452   1.4421   0.2498   H         2 RES2   0.0000
    74 H21      4.6229   0.1190   1.0904   H         2 RES2   0.0000
    75 H22      5.7565   1.1304   1.5936   H         2 RES2   0.0000
    76 C39      9.4652  10.9992   0.9237   C.ar      2 RES2   0.0000
    77 H23     10.1347  11.5270   0.5048   H         2 RES2   0.0000
    78 C40      0.5593  13.1573   2.7120   C.3       2 RES2   0.0000
    79 H24     -0.1807  13.7641   2.5016   H         2 RES2   0.0000
    80 H25      1.3674  13.6808   2.8984   H         2 RES2   0.0000
    81 H26      0.3291  12.6221   3.5001   H         2 RES2   0.0000
    82 S1      10.0735  16.6826   2.6463   S.2       3 RES3  -1.0000
    83 C41      8.9060  15.5926   2.8905   C.1       3 RES3   0.0000
    84 N5       8.0550  14.8158   3.0241   N.1       3 RES3   0.0000
    85 O5       6.5424  13.0001   4.4525   O.3       4 RES4   0.0000
    86 H27      7.0251  13.6155   4.1468   H         4 RES4   0.0000
    87 C42      5.3310  13.5389   4.9150   C.3       4 RES4   0.0000
    88 H28      4.6157  13.3266   4.2802   H         4 RES4   0.0000
    89 H29      5.4173  14.5122   4.9963   H         4 RES4   0.0000
    90 H30      5.1160  13.1560   5.7907   H         4 RES4   0.0000
@<TRIPOS>BOND
     1     1     8    1
     2     2     9    1
     3     3    10    1
     4     4     7    1
     5     5    11    1
     6     6    12    1
     7     7     9   ar
     8     8    11   ar
     9     9    12   ar
    10    10     7   ar
    11    11    10   ar
    12    12     8   ar
    13    13    14    1
    14    14    26    1
    15    15    13    1
    16    16    48    1
    17    17    44    1
    18    18    13    1
    19    19    13    1
    20    20    13    1
    21    21    13    1
    22    22    18    2
    23    23    22    1
    24    24    18    1
    25    25    21    1
    26    26    27   ar
    27    27    22    1
    28    28    27   ar
    29    29    28    1
    30    30    19   ar
    31    31    20   ar
    32    32    25   ar
    33    33    32    1
    34    34    26   ar
    35    35    34    1
    36    36    19   ar
    37    37    36    1
    38    38    21    2
    39    39    38    1
    40    40    41    1
    41    42    20   ar
    42    43    42    1
    43    44    28   ar
    44    45    38    1
    45    46    34   ar
    46    47    46    1
    47    48    40   ar
    48    49    50    1
    49    51    31   ar
    50    52    15    1
    51    53    52   ar
    52    54    53    1
    53    55    56    1
    54    57    24   ar
    55    58    57    1
    56    59    48   ar
    57    60    59    1
    58    61    36   ar
    59    62    61    1
    60    63    32   ar
    61    64    63    1
    62    65    30   ar
    63    66    51   ar
    64    67    66    1
    65    68    42   ar
    66    69    68    1
    67    70    51   ar
    68    71    70    1
    69    72    16    1
    70    73    72    1
    71    74    72    1
    72    75    72    1
    73    76    61   ar
    74    77    76    1
    75    78    17    1
    76    79    78    1
    77    80    78    1
    78    81    78    1
    79    24    31   ar
    80    25    30   ar
    81    40    45   ar
    82    44    46   ar
    83    45    52   ar
    84    49    63   ar
    85    49    65   ar
    86    53    59   ar
    87    55    57   ar
    88    55    66   ar
    89    65    76   ar
    90    68    70   ar
    91    82    83    1
    92    83    84    3
    93    85    86    1
    94    87    85    1
    95    88    87    1
    96    89    87    1
    97    90    87    1
@<TRIPOS>SUBSTRUCTURE
     1 RES1        1 GROUP             0 ****  ****    0  
     2 RES2       13 GROUP             0 ****  ****    0  
     3 RES3       82 GROUP             0 ****  ****    0  
     4 RES4       85 GROUP             0 ****  ****    0  
@<TRIPOS>CRYSIN
   11.5476   12.5307   14.3774   84.6820   79.1820   89.9870     2     1
