@<TRIPOS>MOLECULE
OPEVIR01
    84    92     3     0     0
SMALL
USER_CHARGES
****
Generated from the CSD

@<TRIPOS>ATOM
     1 I1      14.7016  10.4838   8.3775   I         1 RES1   0.0000
     2 I2       9.7708  12.4428   5.3785   I         1 RES1   0.0000
     3 I3      12.7069   7.5954   3.4629   I         1 RES1   0.0000
     4 F1      12.1706  12.2507   7.4958   F         1 RES1   0.0000
     5 F2      14.4223   8.4157   5.9991   F         1 RES1   0.0000
     6 F3      10.5265   9.8346   3.8314   F         1 RES1   0.0000
     7 C1      13.3200  10.3180   6.7963   C.ar      1 RES1   0.0000
     8 C2      12.2679  11.2072   6.6428   C.ar      1 RES1   0.0000
     9 C3      12.4900   9.1014   4.8745   C.ar      1 RES1   0.0000
    10 C4      13.3964   9.2873   5.8850   C.ar      1 RES1   0.0000
    11 C5      11.3028  11.0719   5.6582   C.ar      1 RES1   0.0000
    12 C6      11.4457   9.9884   4.7944   C.ar      1 RES1   0.0000
    13 Fe1      6.3739   8.2904   2.8461   Fe        2 RES2   1.0000
    14 O1       5.1982   7.0111   3.5462   O.3       2 RES2   0.0000
    15 O2       5.1595   8.8438   1.5320   O.3       2 RES2   0.0000
    16 N1       5.7233   9.6340   4.1492   N.2       2 RES2   0.0000
    17 N2       7.2234   6.9964   1.6149   N.2       2 RES2   0.0000
    18 N3       7.6824   7.9261   4.3502   N.ar      2 RES2   0.0000
    19 O3       0.8432  12.2811   1.7099   O.3       2 RES2   0.0000
    20 N4       7.7834   9.5077   2.0427   N.ar      2 RES2   0.0000
    21 O4       4.1253   1.8193   2.0685   O.3       2 RES2   0.0000
    22 C7       4.6503  10.3475   4.0093   C.2       2 RES2   0.0000
    23 H1       4.3933  10.8841   4.7377   H         2 RES2   0.0000
    24 C8       6.7864   5.7997   1.3622   C.2       2 RES2   0.0000
    25 H2       7.2184   5.3109   0.6859   H         2 RES2   0.0000
    26 C9       7.5337   8.7712   5.4178   C.ar      2 RES2   0.0000
    27 C10      4.1226   9.6468   1.6719   C.ar      2 RES2   0.0000
    28 C11      5.6969   5.1750   2.0400   C.ar      2 RES2   0.0000
    29 C12      8.3806   7.4877   0.9399   C.ar      2 RES2   0.0000
    30 C13      6.4930   9.7329   5.3458   C.ar      2 RES2   0.0000
    31 C14      8.6309   8.8556   1.1830   C.ar      2 RES2   0.0000
    32 C15      3.2499   9.8262   0.5745   C.ar      2 RES2   0.0000
    33 H3       3.4102   9.3510  -0.2202   H         2 RES2   0.0000
    34 C16      3.8310  10.3912   2.8549   C.ar      2 RES2   0.0000
    35 C17      4.9541   5.8083   3.0722   C.ar      2 RES2   0.0000
    36 C18      2.7301  11.2740   2.8820   C.ar      2 RES2   0.0000
    37 H4       2.5520  11.7658   3.6628   H         2 RES2   0.0000
    38 C19      1.9134  11.4270   1.7833   C.ar      2 RES2   0.0000
    39 C20      9.7119   9.5110   0.5514   C.ar      2 RES2   0.0000
    40 C21      8.3633   8.7031   6.5668   C.ar      2 RES2   0.0000
    41 C22      7.9605  10.8032   2.2559   C.ar      2 RES2   0.0000
    42 H5       7.3809  11.2515   2.8439   H         2 RES2   0.0000
    43 C23      8.6225   6.9976   4.4086   C.ar      2 RES2   0.0000
    44 H6       8.7285   6.4093   3.6837   H         2 RES2   0.0000
    45 C24      9.2375   6.7764   0.1358   C.ar      2 RES2   0.0000
    46 H7       9.0886   5.8612  -0.0204   H         2 RES2   0.0000
    47 C25     10.5642   8.7535  -0.2825   C.ar      2 RES2   0.0000
    48 H8      11.2875   9.1670  -0.7168   H         2 RES2   0.0000
    49 C26     10.3371   7.4244  -0.4536   C.ar      2 RES2   0.0000
    50 H9      10.9314   6.9239  -0.9829   H         2 RES2   0.0000
    51 C27      5.4272   3.8413   1.6692   C.ar      2 RES2   0.0000
    52 H10      5.9226   3.4351   0.9821   H         2 RES2   0.0000
    53 C28      6.3234  10.6219   6.3644   C.ar      2 RES2   0.0000
    54 H11      5.6472  11.2731   6.3129   H         2 RES2   0.0000
    55 C29      9.4683   6.8633   5.5264   C.ar      2 RES2   0.0000
    56 H12     10.1250   6.1908   5.5332   H         2 RES2   0.0000
    57 C30      7.1602  10.5637   7.4917   C.ar      2 RES2   0.0000
    58 H13      7.0406  11.1838   8.1890   H         2 RES2   0.0000
    59 C31      4.4341   3.1305   2.3170   C.ar      2 RES2   0.0000
    60 C32      3.9076   5.0602   3.6603   C.ar      2 RES2   0.0000
    61 H14      3.3686   5.4616   4.3184   H         2 RES2   0.0000
    62 C33      9.8543  10.8935   0.8013   C.ar      2 RES2   0.0000
    63 H15     10.5494  11.3760   0.3924   H         2 RES2   0.0000
    64 C34      2.1855  10.6676   0.6411   C.ar      2 RES2   0.0000
    65 H16      1.6153  10.7425  -0.1026   H         2 RES2   0.0000
    66 C35      9.3504   7.6859   6.5844   C.ar      2 RES2   0.0000
    67 H17      9.9165   7.5871   7.3277   H         2 RES2   0.0000
    68 C36      8.9891  11.5279   1.6298   C.ar      2 RES2   0.0000
    69 H18      9.0763  12.4504   1.7854   H         2 RES2   0.0000
    70 C37      8.1352   9.6315   7.5908   C.ar      2 RES2   0.0000
    71 H19      8.6714   9.6060   8.3633   H         2 RES2   0.0000
    72 C38      3.6654   3.7771   3.2949   C.ar      2 RES2   0.0000
    73 H20      2.9634   3.3090   3.7089   H         2 RES2   0.0000
    74 C39      0.7425  13.2705   2.7218   C.3       2 RES2   0.0000
    75 H21     -0.0217  13.8396   2.5432   H         2 RES2   0.0000
    76 H22      1.5508  13.8070   2.7310   H         2 RES2   0.0000
    77 H23      0.6310  12.8401   3.5844   H         2 RES2   0.0000
    78 C40      5.0528   1.0846   1.3079   C.3       2 RES2   0.0000
    79 H24      5.1321   1.4790   0.4255   H         2 RES2   0.0000
    80 H25      4.7505   0.1671   1.2269   H         2 RES2   0.0000
    81 H26      5.9175   1.1026   1.7485   H         2 RES2   0.0000
    82 S1      16.6789  10.1522  10.9301   S.2       3 RES3  -1.0000
    83 C41     17.7346  11.3579  10.6576   C.1       3 RES3   0.0000
    84 N5      18.4976  12.2179  10.4593   N.1       3 RES3   0.0000
@<TRIPOS>BOND
     1     1     7    1
     2     2    11    1
     3     3     9    1
     4     4     8    1
     5     5    10    1
     6     6    12    1
     7     7     8   ar
     8     8    11   ar
     9     9    10   ar
    10    10     7   ar
    11    11    12   ar
    12    12     9   ar
    13    13    14    1
    14    14    35    1
    15    15    13    1
    16    16    13    1
    17    17    13    1
    18    18    13    1
    19    19    38    1
    20    20    13    1
    21    21    59    1
    22    22    16    2
    23    23    22    1
    24    24    17    2
    25    25    24    1
    26    26    18   ar
    27    27    15    1
    28    28    24    1
    29    29    17    1
    30    30    16    1
    31    31    20   ar
    32    32    27   ar
    33    33    32    1
    34    34    22    1
    35    35    28   ar
    36    36    34   ar
    37    37    36    1
    38    38    36   ar
    39    39    31   ar
    40    40    26   ar
    41    41    20   ar
    42    42    41    1
    43    43    18   ar
    44    44    43    1
    45    45    29   ar
    46    46    45    1
    47    47    39   ar
    48    48    47    1
    49    49    45   ar
    50    50    49    1
    51    51    28   ar
    52    52    51    1
    53    53    30   ar
    54    54    53    1
    55    55    43   ar
    56    56    55    1
    57    57    53   ar
    58    58    57    1
    59    59    51   ar
    60    60    35   ar
    61    61    60    1
    62    62    39   ar
    63    63    62    1
    64    64    32   ar
    65    65    64    1
    66    66    40   ar
    67    67    66    1
    68    68    41   ar
    69    69    68    1
    70    70    40   ar
    71    71    70    1
    72    72    59   ar
    73    73    72    1
    74    74    19    1
    75    75    74    1
    76    76    74    1
    77    77    74    1
    78    78    21    1
    79    79    78    1
    80    80    78    1
    81    81    78    1
    82    26    30   ar
    83    27    34   ar
    84    29    31   ar
    85    38    64   ar
    86    47    49   ar
    87    55    66   ar
    88    57    70   ar
    89    60    72   ar
    90    62    68   ar
    91    82    83    1
    92    83    84    3
@<TRIPOS>SUBSTRUCTURE
     1 RES1        1 GROUP             0 ****  ****    0  
     2 RES2       13 GROUP             0 ****  ****    0  
     3 RES3       82 GROUP             0 ****  ****    0  
@<TRIPOS>CRYSIN
   11.7827   12.4928   14.0077   83.0190   77.6740   89.4960     2     1
