@<TRIPOS>MOLECULE
OPEVIR29
    84    92     3     0     0
SMALL
USER_CHARGES
****
Generated from the CSD

@<TRIPOS>ATOM
     1 I1      14.6376  10.4065   8.3960   I         1 RES1   0.0000
     2 I2       9.7231  12.3773   5.4055   I         1 RES1   0.0000
     3 I3      12.6734   7.5741   3.4424   I         1 RES1   0.0000
     4 F1      14.3822   8.3749   6.0019   F         1 RES1   0.0000
     5 F2      12.0985  12.1780   7.5184   F         1 RES1   0.0000
     6 F3      10.5010   9.7928   3.8210   F         1 RES1   0.0000
     7 C1      13.3496   9.2354   5.8851   C.ar      1 RES1   0.0000
     8 C2      13.2674  10.2465   6.8023   C.ar      1 RES1   0.0000
     9 C3      11.2610  11.0148   5.6812   C.ar      1 RES1   0.0000
    10 C4      12.2240  11.1465   6.6501   C.ar      1 RES1   0.0000
    11 C5      12.4522   9.0603   4.8646   C.ar      1 RES1   0.0000
    12 C6      11.4057   9.9308   4.7695   C.ar      1 RES1   0.0000
    13 Fe1      6.3732   8.2530   2.8564   Fe        2 RES2   1.0000
    14 O1       5.2062   6.9910   3.5506   O.3       2 RES2   0.0000
    15 O2       5.1528   8.7902   1.5395   O.3       2 RES2   0.0000
    16 N1       5.7042   9.5758   4.1566   N.2       2 RES2   0.0000
    17 N2       7.2037   6.9740   1.6211   N.2       2 RES2   0.0000
    18 O3       0.8990  12.2376   1.6768   O.3       2 RES2   0.0000
    19 N3       7.7628   9.4626   2.0668   N.ar      2 RES2   0.0000
    20 N4       7.6597   7.8766   4.3428   N.ar      2 RES2   0.0000
    21 O4       4.0867   1.8219   2.0573   O.3       2 RES2   0.0000
    22 C7       4.6539  10.2884   4.0099   C.2       2 RES2   0.0000
    23 H1       4.3952  10.8256   4.7371   H         2 RES2   0.0000
    24 C8       7.5089   8.7056   5.4163   C.ar      2 RES2   0.0000
    25 C9       4.9389   5.8072   3.0805   C.ar      2 RES2   0.0000
    26 C10      8.3526   7.4523   0.9457   C.ar      2 RES2   0.0000
    27 C11      4.1396   9.5945   1.6646   C.ar      2 RES2   0.0000
    28 C12      5.6813   5.1731   2.0233   C.ar      2 RES2   0.0000
    29 C13      3.8463  10.3405   2.8467   C.ar      2 RES2   0.0000
    30 C14      6.7618   5.7862   1.3602   C.2       2 RES2   0.0000
    31 H2       7.1917   5.2977   0.6821   H         2 RES2   0.0000
    32 C15      9.6772   9.5009   0.5639   C.ar      2 RES2   0.0000
    33 C16      8.3424   8.6188   6.5604   C.ar      2 RES2   0.0000
    34 C17      6.4742   9.6537   5.3551   C.ar      2 RES2   0.0000
    35 C18      3.2745   9.7842   0.5693   C.ar      2 RES2   0.0000
    36 H3       3.4386   9.3078  -0.2237   H         2 RES2   0.0000
    37 C19      1.9370  11.3910   1.7638   C.ar      2 RES2   0.0000
    38 C20      7.9246  10.7574   2.2951   C.ar      2 RES2   0.0000
    39 H4       7.3420  11.1936   2.8893   H         2 RES2   0.0000
    40 C21      8.6156   6.9556   4.3904   C.ar      2 RES2   0.0000
    41 H5       8.7332   6.3812   3.6549   H         2 RES2   0.0000
    42 C22      8.6168   8.8334   1.1985   C.ar      2 RES2   0.0000
    43 C23      5.3831   3.8469   1.6659   C.ar      2 RES2   0.0000
    44 H6       5.8644   3.4439   0.9663   H         2 RES2   0.0000
    45 C24      2.7670  11.2299   2.8793   C.ar      2 RES2   0.0000
    46 H7       2.5971  11.7262   3.6604   H         2 RES2   0.0000
    47 C25     10.5257   8.7592  -0.2650   C.ar      2 RES2   0.0000
    48 H8      11.2548   9.1724  -0.6906   H         2 RES2   0.0000
    49 C26      9.2121   6.7778   0.1372   C.ar      2 RES2   0.0000
    50 H9       9.0777   5.8613  -0.0246   H         2 RES2   0.0000
    51 C27      2.2143  10.6280   0.6169   C.ar      2 RES2   0.0000
    52 H10      1.6526  10.7046  -0.1327   H         2 RES2   0.0000
    53 C28      3.8811   5.0488   3.6620   C.ar      2 RES2   0.0000
    54 H11      3.3292   5.4495   4.3096   H         2 RES2   0.0000
    55 C29      9.3496   7.6363   6.5618   C.ar      2 RES2   0.0000
    56 H12      9.9383   7.5572   7.2905   H         2 RES2   0.0000
    57 C30      3.6508   3.7398   3.2924   C.ar      2 RES2   0.0000
    58 H13      2.9669   3.2546   3.7163   H         2 RES2   0.0000
    59 C31      4.4132   3.1251   2.3046   C.ar      2 RES2   0.0000
    60 C32     10.2824   7.4270  -0.4511   C.ar      2 RES2   0.0000
    61 H14     10.8647   6.9332  -0.9988   H         2 RES2   0.0000
    62 C33      9.4552   6.8144   5.5060   C.ar      2 RES2   0.0000
    63 H15     10.1025   6.1323   5.5147   H         2 RES2   0.0000
    64 C34      8.9481  11.4995   1.6700   C.ar      2 RES2   0.0000
    65 H16      9.0263  12.4207   1.8382   H         2 RES2   0.0000
    66 C35      7.1098  10.4428   7.5265   C.ar      2 RES2   0.0000
    67 H17      6.9623  11.0377   8.2385   H         2 RES2   0.0000
    68 C36      6.2897  10.5027   6.3973   C.ar      2 RES2   0.0000
    69 H18      5.6001  11.1409   6.3584   H         2 RES2   0.0000
    70 C37      0.7611  13.1917   2.7013   C.3       2 RES2   0.0000
    71 H19      0.0519  13.8122   2.4723   H         2 RES2   0.0000
    72 H20      1.5943  13.6769   2.8064   H         2 RES2   0.0000
    73 H21      0.5416  12.7431   3.5336   H         2 RES2   0.0000
    74 C38      9.8145  10.8936   0.8302   C.ar      2 RES2   0.0000
    75 H22     10.5034  11.3877   0.4246   H         2 RES2   0.0000
    76 C39      8.1158   9.5384   7.6094   C.ar      2 RES2   0.0000
    77 H23      8.6669   9.5218   8.3701   H         2 RES2   0.0000
    78 C40      5.0187   1.0737   1.2787   C.3       2 RES2   0.0000
    79 H24      5.0648   1.4441   0.3833   H         2 RES2   0.0000
    80 H25      4.7306   0.1481   1.2305   H         2 RES2   0.0000
    81 H26      5.8952   1.1176   1.6920   H         2 RES2   0.0000
    82 S1      16.5807  10.0511  10.9425   S.2       3 RES3  -1.0000
    83 C41     17.6261  11.2071  10.6912   C.1       3 RES3   0.0000
    84 N5      18.4217  12.0895  10.4956   N.1       3 RES3   0.0000
@<TRIPOS>BOND
     1     1     8    1
     2     2     9    1
     3     3    11    1
     4     4     7    1
     5     5    10    1
     6     6    12    1
     7     7     8   ar
     8     8    10   ar
     9     9    10   ar
    10    11     7   ar
    11    12     9   ar
    12    11    12   ar
    13    13    14    1
    14    14    25    1
    15    15    13    1
    16    16    13    1
    17    17    13    1
    18    18    37    1
    19    19    13    1
    20    20    13    1
    21    21    59    1
    22    22    16    2
    23    23    22    1
    24    24    20   ar
    25    25    28   ar
    26    26    17    1
    27    27    15    1
    28    28    30    1
    29    29    22    1
    30    30    17    2
    31    31    30    1
    32    32    42   ar
    33    33    24   ar
    34    34    16    1
    35    35    27   ar
    36    36    35    1
    37    37    45   ar
    38    38    19   ar
    39    39    38    1
    40    40    20   ar
    41    41    40    1
    42    42    19   ar
    43    43    28   ar
    44    44    43    1
    45    45    29   ar
    46    46    45    1
    47    47    32   ar
    48    48    47    1
    49    49    26   ar
    50    50    49    1
    51    51    35   ar
    52    52    51    1
    53    53    25   ar
    54    54    53    1
    55    55    33   ar
    56    56    55    1
    57    57    53   ar
    58    58    57    1
    59    59    43   ar
    60    60    47   ar
    61    61    60    1
    62    62    40   ar
    63    63    62    1
    64    64    38   ar
    65    65    64    1
    66    66    67    1
    67    68    34   ar
    68    69    68    1
    69    70    18    1
    70    71    70    1
    71    72    70    1
    72    73    70    1
    73    74    32   ar
    74    75    74    1
    75    76    33   ar
    76    77    76    1
    77    78    21    1
    78    79    78    1
    79    80    78    1
    80    81    78    1
    81    24    34   ar
    82    26    42   ar
    83    27    29   ar
    84    37    51   ar
    85    49    60   ar
    86    55    62   ar
    87    57    59   ar
    88    64    74   ar
    89    66    68   ar
    90    66    76   ar
    91    82    83    1
    92    83    84    3
@<TRIPOS>SUBSTRUCTURE
     1 RES1        1 GROUP             0 ****  ****    0  
     2 RES2       13 GROUP             0 ****  ****    0  
     3 RES3       82 GROUP             0 ****  ****    0  
@<TRIPOS>CRYSIN
   11.7153   12.4554   14.0046   83.2900   77.6860   89.3490     2     1
