@<TRIPOS>MOLECULE
OPEVUD39
    90    97     4     0     0
SMALL
USER_CHARGES
****
Generated from the CSD

@<TRIPOS>ATOM
     1 I1       2.3360   0.5517   5.4087   I         1 RES1   0.0000
     2 I2      -2.4773   2.3222   8.6906   I         1 RES1   0.0000
     3 I3      -1.1201   5.0472   3.4531   I         1 RES1   0.0000
     4 F1       1.1514   2.8932   3.6933   F         1 RES1   0.0000
     5 F2       0.0579   0.6560   7.6641   F         1 RES1   0.0000
     6 F3      -2.5831   4.2419   6.1645   F         1 RES1   0.0000
     7 C1       0.6577   1.7531   5.6731   C.ar      1 RES1   0.0000
     8 C2       0.3662   2.7390   4.7607   C.ar      1 RES1   0.0000
     9 C3      -1.2948   2.4382   6.9474   C.ar      1 RES1   0.0000
    10 C4      -0.7321   3.5979   4.8832   C.ar      1 RES1   0.0000
    11 C5      -0.2044   1.6131   6.7503   C.ar      1 RES1   0.0000
    12 C6      -1.5261   3.4309   5.9913   C.ar      1 RES1   0.0000
    13 Fe1      5.3657   4.3693   2.9481   Fe        2 RES2   1.0000
    14 O1       6.4851   5.6853   3.6581   O.3       2 RES2   0.0000
    15 O2       6.5783   3.8790   1.6038   O.3       2 RES2   0.0000
    16 O3       7.5690  10.8146   1.9290   O.3       2 RES2   0.0000
    17 O4      10.7441   0.2194   1.6179   O.3       2 RES2   0.0000
    18 N1       6.0900   3.1221   4.2678   N.2       2 RES2   0.0000
    19 N2       4.5151   5.5947   1.6742   N.2       2 RES2   0.0000
    20 N3       4.0607   3.0867   2.1698   N.ar      2 RES2   0.0000
    21 N4       4.0567   4.7165   4.4199   N.ar      2 RES2   0.0000
    22 C7       7.1343   2.3539   4.0820   C.2       2 RES2   0.0000
    23 H1       7.4253   1.8265   4.8165   H         2 RES2   0.0000
    24 C8       3.3889   5.0507   1.0096   C.ar      2 RES2   0.0000
    25 C9       7.8701   2.2466   2.8654   C.ar      2 RES2   0.0000
    26 C10      3.1983   3.6669   1.2701   C.ar      2 RES2   0.0000
    27 C11      4.3248   3.9976   5.5675   C.ar      2 RES2   0.0000
    28 C12      6.7229   6.8730   3.1329   C.ar      2 RES2   0.0000
    29 C13      4.9594   6.7731   1.3743   C.2       2 RES2   0.0000
    30 H2       4.5411   7.2295   0.6532   H         2 RES2   0.0000
    31 C14      5.4320   3.1219   5.5140   C.ar      2 RES2   0.0000
    32 C15      7.5482   2.9929   1.7094   C.ar      2 RES2   0.0000
    33 C16      6.0233   7.4344   2.0375   C.ar      2 RES2   0.0000
    34 C17      6.3122   8.7661   1.5996   C.ar      2 RES2   0.0000
    35 H3       5.8458   9.1346   0.8580   H         2 RES2   0.0000
    36 C18      8.9326   1.3097   2.8598   C.ar      2 RES2   0.0000
    37 H4       9.1215   0.8086   3.6437   H         2 RES2   0.0000
    38 C19      7.7344   7.6650   3.7356   C.ar      2 RES2   0.0000
    39 H5       8.2390   7.3115   4.4591   H         2 RES2   0.0000
    40 C20      2.1560   2.9476   0.6463   C.ar      2 RES2   0.0000
    41 C21      1.2927   3.6487  -0.2140   C.ar      2 RES2   0.0000
    42 H6       0.5904   3.1870  -0.6559   H         2 RES2   0.0000
    43 C22      7.2512   9.5004   2.2388   C.ar      2 RES2   0.0000
    44 C23      2.5198   5.7186   0.1802   C.ar      2 RES2   0.0000
    45 H7       2.6307   6.6479   0.0162   H         2 RES2   0.0000
    46 C24      9.6928   1.1184   1.7291   C.ar      2 RES2   0.0000
    47 C25      7.9913   8.9425   3.2850   C.ar      2 RES2   0.0000
    48 H8       8.6839   9.4517   3.6904   H         2 RES2   0.0000
    49 C26      8.3727   2.7598   0.5562   C.ar      2 RES2   0.0000
    50 H9       8.2022   3.2460  -0.2417   H         2 RES2   0.0000
    51 C27      3.0258   5.5528   4.4241   C.ar      2 RES2   0.0000
    52 H10      2.8353   6.0498   3.6371   H         2 RES2   0.0000
    53 C28      3.5486   4.1310   6.7348   C.ar      2 RES2   0.0000
    54 C29      3.9407   1.7837   2.4036   C.ar      2 RES2   0.0000
    55 H11      4.5319   1.3706   3.0220   H         2 RES2   0.0000
    56 C30      5.7490   2.3816   6.6348   C.ar      2 RES2   0.0000
    57 H12      6.4904   1.7888   6.6196   H         2 RES2   0.0000
    58 C31      9.3880   1.8615   0.5801   C.ar      2 RES2   0.0000
    59 H13      9.9071   1.7316  -0.2054   H         2 RES2   0.0000
    60 C32      2.9664   0.9980   1.7629   C.ar      2 RES2   0.0000
    61 H14      2.9270   0.0645   1.9317   H         2 RES2   0.0000
    62 C33      2.0842   1.5651   0.9068   C.ar      2 RES2   0.0000
    63 H15      1.4201   1.0325   0.4848   H         2 RES2   0.0000
    64 C34      2.4527   5.0355   6.6855   C.ar      2 RES2   0.0000
    65 H16      1.8971   5.1507   7.4463   H         2 RES2   0.0000
    66 C35      4.9782   2.5047   7.7922   C.ar      2 RES2   0.0000
    67 H17      5.1947   1.9794   8.5540   H         2 RES2   0.0000
    68 C36      3.9063   3.3757   7.8542   C.ar      2 RES2   0.0000
    69 H18      3.4112   3.4602   8.6610   H         2 RES2   0.0000
    70 C37      1.4608   5.0110  -0.4224   C.ar      2 RES2   0.0000
    71 H19      0.8501   5.4743  -0.9831   H         2 RES2   0.0000
    72 C38      2.2038   5.7285   5.5590   C.ar      2 RES2   0.0000
    73 H20      1.4754   6.3376   5.5273   H         2 RES2   0.0000
    74 C39      6.6056  11.5157   1.1588   C.3       2 RES2   0.0000
    75 H21      6.6058  11.1695   0.2419   H         2 RES2   0.0000
    76 H22      6.8293  12.4705   1.1467   H         2 RES2   0.0000
    77 H23      5.7181  11.3935   1.5545   H         2 RES2   0.0000
    78 C40     10.9650  -0.6254   2.7119   C.3       2 RES2   0.0000
    79 H24     11.6567  -1.2817   2.4831   H         2 RES2   0.0000
    80 H25     10.1338  -1.0921   2.9368   H         2 RES2   0.0000
    81 H26     11.2607  -0.0941   3.4800   H         2 RES2   0.0000
    82 S1       1.5151  -4.1845   2.6459   S.2       3 RES3  -1.0000
    83 C41      2.6416  -3.0639   2.9077   C.1       3 RES3   0.0000
    84 N5       3.4652  -2.2646   3.0470   N.1       3 RES3   0.0000
    85 O5       5.0064  -0.4459   4.4298   O.3       4 RES4   0.0000
    86 H27      4.4999  -1.0525   4.1464   H         4 RES4   0.0000
    87 C42      6.1542  -1.0136   4.9676   C.3       4 RES4   0.0000
    88 H28      6.8975  -0.9058   4.3384   H         4 RES4   0.0000
    89 H29      5.9999  -1.9679   5.1305   H         4 RES4   0.0000
    90 H30      6.3733  -0.5691   5.8125   H         4 RES4   0.0000
@<TRIPOS>BOND
     1     1     7    1
     2     2     9    1
     3     3    10    1
     4     4     8    1
     5     5    11    1
     6     6    12    1
     7     7     8   ar
     8     8    10   ar
     9     9    11   ar
    10    10    12   ar
    11    11     7   ar
    12    12     9   ar
    13    13    14    1
    14    14    28    1
    15    15    13    1
    16    16    43    1
    17    17    46    1
    18    18    13    1
    19    19    13    1
    20    20    13    1
    21    21    13    1
    22    22    18    2
    23    23    22    1
    24    24    19    1
    25    25    22    1
    26    26    20   ar
    27    27    21   ar
    28    28    33   ar
    29    29    19    2
    30    30    29    1
    31    31    18    1
    32    32    15    1
    33    33    29    1
    34    34    33   ar
    35    35    34    1
    36    36    25   ar
    37    37    36    1
    38    38    28   ar
    39    39    38    1
    40    40    26   ar
    41    41    40   ar
    42    42    41    1
    43    43    34   ar
    44    44    24   ar
    45    45    44    1
    46    46    36   ar
    47    47    38   ar
    48    48    47    1
    49    49    32   ar
    50    50    49    1
    51    51    21   ar
    52    52    51    1
    53    53    27   ar
    54    54    20   ar
    55    55    54    1
    56    56    31   ar
    57    57    56    1
    58    58    46   ar
    59    59    58    1
    60    60    54   ar
    61    61    60    1
    62    62    40   ar
    63    63    62    1
    64    64    53   ar
    65    65    64    1
    66    66    56   ar
    67    67    66    1
    68    68    53   ar
    69    69    68    1
    70    70    41   ar
    71    71    70    1
    72    72    51   ar
    73    73    72    1
    74    74    16    1
    75    75    74    1
    76    76    74    1
    77    77    74    1
    78    78    17    1
    79    79    78    1
    80    80    78    1
    81    81    78    1
    82    24    26   ar
    83    25    32   ar
    84    27    31   ar
    85    43    47   ar
    86    44    70   ar
    87    49    58   ar
    88    60    62   ar
    89    64    72   ar
    90    66    68   ar
    91    82    83    1
    92    83    84    3
    93    85    86    1
    94    87    85    1
    95    88    87    1
    96    89    87    1
    97    90    87    1
@<TRIPOS>SUBSTRUCTURE
     1 RES1        1 GROUP             0 ****  ****    0  
     2 RES2       13 GROUP             0 ****  ****    0  
     3 RES3       82 GROUP             0 ****  ****    0  
     4 RES4       85 GROUP             0 ****  ****    0  
@<TRIPOS>CRYSIN
   11.5331   12.6013   14.3953   95.4270  100.6560   90.1680     2     1
