@<TRIPOS>MOLECULE
OPEVIR33
    84    92     3     0     0
SMALL
USER_CHARGES
****
Generated from the CSD

@<TRIPOS>ATOM
     1 I1      14.6977  10.4093   8.3592   I         1 RES1   0.0000
     2 I2      12.7176   7.5126   3.4430   I         1 RES1   0.0000
     3 I3       9.7395  12.3216   5.3894   I         1 RES1   0.0000
     4 F1      14.4303   8.3438   5.9863   F         1 RES1   0.0000
     5 F2      12.1438  12.1519   7.4859   F         1 RES1   0.0000
     6 F3      10.5207   9.7159   3.8176   F         1 RES1   0.0000
     7 C1      13.4067   9.1981   5.8696   C.ar      1 RES1   0.0000
     8 C2      12.2499  11.1166   6.6418   C.ar      1 RES1   0.0000
     9 C3      11.2919  10.9721   5.6660   C.ar      1 RES1   0.0000
    10 C4      13.3196  10.2324   6.7775   C.ar      1 RES1   0.0000
    11 C5      12.4938   9.0175   4.8612   C.ar      1 RES1   0.0000
    12 C6      11.4423   9.8941   4.7757   C.ar      1 RES1   0.0000
    13 Fe1      6.4286   8.2064   2.8611   Fe        2 RES2   1.0000
    14 O1       5.2460   6.9737   3.5815   O.3       2 RES2   0.0000
    15 O2       5.2221   8.7037   1.5200   O.3       2 RES2   0.0000
    16 O3       0.9022  12.1198   1.6720   O.3       2 RES2   0.0000
    17 N1       5.7551   9.5010   4.1501   N.2       2 RES2   0.0000
    18 N2       7.7742   9.4183   2.0832   N.ar      2 RES2   0.0000
    19 O4       4.0761   1.7970   2.0560   O.3       2 RES2   0.0000
    20 N3       7.2367   6.9471   1.6313   N.2       2 RES2   0.0000
    21 N4       7.7199   7.8174   4.3129   N.ar      2 RES2   0.0000
    22 C7       4.6851  10.2074   3.9967   C.2       2 RES2   0.0000
    23 H1       4.4168  10.7511   4.7274   H         2 RES2   0.0000
    24 C8       4.1867   9.5009   1.6584   C.ar      2 RES2   0.0000
    25 C9       4.9565   5.7746   3.0929   C.ar      2 RES2   0.0000
    26 C10      8.3748   7.4228   0.9581   C.ar      2 RES2   0.0000
    27 C11      5.6817   5.1581   2.0289   C.ar      2 RES2   0.0000
    28 C12      3.3216   9.6762   0.5551   C.ar      2 RES2   0.0000
    29 H2       3.4908   9.1902  -0.2435   H         2 RES2   0.0000
    30 C13      2.7712  11.1196   2.8595   C.ar      2 RES2   0.0000
    31 H3       2.5819  11.6137   3.6479   H         2 RES2   0.0000
    32 C14      8.6253   8.8007   1.2051   C.ar      2 RES2   0.0000
    33 C15      6.7668   5.7671   1.3531   C.2       2 RES2   0.0000
    34 H4       7.1793   5.2802   0.6485   H         2 RES2   0.0000
    35 C16      7.5753   8.6506   5.4000   C.ar      2 RES2   0.0000
    36 C17      3.8812  10.2402   2.8391   C.ar      2 RES2   0.0000
    37 C18      9.6900   9.4623   0.5659   C.ar      2 RES2   0.0000
    38 C19      1.9635  11.2717   1.7575   C.ar      2 RES2   0.0000
    39 C20      5.3670   3.8170   1.6557   C.ar      2 RES2   0.0000
    40 H5       5.8403   3.4099   0.9402   H         2 RES2   0.0000
    41 C21      8.6708   6.8966   4.3496   C.ar      2 RES2   0.0000
    42 H6       8.7877   6.3244   3.6006   H         2 RES2   0.0000
    43 C22      3.9173   5.0310   3.6982   C.ar      2 RES2   0.0000
    44 H7       3.3954   5.4296   4.3847   H         2 RES2   0.0000
    45 C23      2.2570  10.5174   0.5971   C.ar      2 RES2   0.0000
    46 H8       1.6975  10.6008  -0.1662   H         2 RES2   0.0000
    47 C24      6.5329   9.5842   5.3362   C.ar      2 RES2   0.0000
    48 C25      7.9509  10.7200   2.3030   C.ar      2 RES2   0.0000
    49 H9       7.3660  11.1613   2.9076   H         2 RES2   0.0000
    50 C26      8.3910   8.5514   6.5400   C.ar      2 RES2   0.0000
    51 C27     10.5349   8.7199  -0.2701   C.ar      2 RES2   0.0000
    52 H10     11.2639   9.1429  -0.7086   H         2 RES2   0.0000
    53 C28      4.4010   3.1118   2.3030   C.ar      2 RES2   0.0000
    54 C29      3.6504   3.7449   3.3100   C.ar      2 RES2   0.0000
    55 H11      2.9424   3.2704   3.7304   H         2 RES2   0.0000
    56 C30      9.5167   6.7369   5.4706   C.ar      2 RES2   0.0000
    57 H12     10.1693   6.0469   5.4749   H         2 RES2   0.0000
    58 C31      6.3397  10.4516   6.3880   C.ar      2 RES2   0.0000
    59 H13      5.6342  11.0863   6.3523   H         2 RES2   0.0000
    60 C32      8.1775   9.4597   7.5931   C.ar      2 RES2   0.0000
    61 H14      8.7272   9.4212   8.3666   H         2 RES2   0.0000
    62 C33      9.2201   6.7249   0.1425   C.ar      2 RES2   0.0000
    63 H15      9.0738   5.8007  -0.0212   H         2 RES2   0.0000
    64 C34      0.7671  13.0893   2.6993   C.3       2 RES2   0.0000
    65 H16      0.0288  13.6958   2.4813   H         2 RES2   0.0000
    66 H17      1.5987  13.6012   2.7768   H         2 RES2   0.0000
    67 H18      0.5796  12.6396   3.5499   H         2 RES2   0.0000
    68 C35      7.1790  10.4034   7.5103   C.ar      2 RES2   0.0000
    69 H19      7.0579  11.0260   8.2179   H         2 RES2   0.0000
    70 C36      9.4053   7.5648   6.5441   C.ar      2 RES2   0.0000
    71 H20      9.9974   7.4827   7.2823   H         2 RES2   0.0000
    72 C37      9.8344  10.8547   0.8306   C.ar      2 RES2   0.0000
    73 H21     10.5304  11.3541   0.4208   H         2 RES2   0.0000
    74 C38     10.3088   7.3869  -0.4519   C.ar      2 RES2   0.0000
    75 H22     10.9056   6.8903  -0.9988   H         2 RES2   0.0000
    76 C39      8.9530  11.4608   1.6842   C.ar      2 RES2   0.0000
    77 H23      9.0263  12.3928   1.8560   H         2 RES2   0.0000
    78 C40      5.0077   1.0681   1.2608   C.3       2 RES2   0.0000
    79 H24      5.0730   1.4800   0.3737   H         2 RES2   0.0000
    80 H25      4.7027   0.1409   1.1678   H         2 RES2   0.0000
    81 H26      5.8871   1.0807   1.6923   H         2 RES2   0.0000
    82 S1      16.6376  10.0473  10.9177   S.2       3 RES3  -1.0000
    83 C41     17.7562  11.1927  10.6507   C.1       3 RES3   0.0000
    84 N5      18.5831  12.0265  10.4661   N.1       3 RES3   0.0000
@<TRIPOS>BOND
     1     1    10    1
     2     2    11    1
     3     3     9    1
     4     4     7    1
     5     5     8    1
     6     6    12    1
     7     7    10   ar
     8     8     9   ar
     9     9    12   ar
    10    10     8   ar
    11    11     7   ar
    12    12    11   ar
    13    13    14    1
    14    14    25    1
    15    15    13    1
    16    16    38    1
    17    17    13    1
    18    18    13    1
    19    19    53    1
    20    20    13    1
    21    21    13    1
    22    22    17    2
    23    23    22    1
    24    24    15    1
    25    25    27   ar
    26    26    20    1
    27    27    33    1
    28    28    24   ar
    29    29    28    1
    30    30    31    1
    31    32    18   ar
    32    33    20    2
    33    34    33    1
    34    35    21   ar
    35    36    22    1
    36    37    32   ar
    37    38    30   ar
    38    39    27   ar
    39    40    39    1
    40    41    21   ar
    41    42    41    1
    42    43    25   ar
    43    44    43    1
    44    45    28   ar
    45    46    45    1
    46    47    17    1
    47    48    18   ar
    48    49    48    1
    49    50    35   ar
    50    51    37   ar
    51    52    51    1
    52    53    39   ar
    53    54    43   ar
    54    55    54    1
    55    56    41   ar
    56    57    56    1
    57    58    47   ar
    58    59    58    1
    59    60    50   ar
    60    61    60    1
    61    62    26   ar
    62    63    62    1
    63    64    16    1
    64    65    64    1
    65    66    64    1
    66    67    64    1
    67    68    58   ar
    68    69    68    1
    69    70    50   ar
    70    71    70    1
    71    72    37   ar
    72    73    72    1
    73    74    51   ar
    74    75    74    1
    75    76    48   ar
    76    77    76    1
    77    78    19    1
    78    79    78    1
    79    80    78    1
    80    81    78    1
    81    24    36   ar
    82    26    32   ar
    83    30    36   ar
    84    35    47   ar
    85    38    45   ar
    86    53    54   ar
    87    56    70   ar
    88    60    68   ar
    89    62    74   ar
    90    72    76   ar
    91    82    83    1
    92    83    84    3
@<TRIPOS>SUBSTRUCTURE
     1 RES1        1 GROUP             0 ****  ****    0  
     2 RES2       13 GROUP             0 ****  ****    0  
     3 RES3       82 GROUP             0 ****  ****    0  
@<TRIPOS>CRYSIN
   11.7351   12.3700   14.0057   83.1570   77.4100   89.2930     2     1
