@<TRIPOS>MOLECULE
OPEVUD03
    90    97     4     0     0
SMALL
USER_CHARGES
****
Generated from the CSD

@<TRIPOS>ATOM
     1 I1      11.2049   8.9650   5.3186   I         1 RES1   0.0000
     2 I2       6.4643  10.7597   8.6990   I         1 RES1   0.0000
     3 I3       9.9649   6.2836  10.5996   I         1 RES1   0.0000
     4 F1       7.7006   8.4458  10.4141   F         1 RES1   0.0000
     5 F2       8.6824  10.6236   6.3761   F         1 RES1   0.0000
     6 F3      11.3532   7.0602   7.8592   F         1 RES1   0.0000
     7 C1       8.1351   9.5638   8.4127   C.ar      1 RES1   0.0000
     8 C2       8.4646   8.5893   9.3268   C.ar      1 RES1   0.0000
     9 C3      10.0577   8.8591   7.0690   C.ar      1 RES1   0.0000
    10 C4       9.5556   7.7266   9.1746   C.ar      1 RES1   0.0000
    11 C5       8.9615   9.6723   7.2901   C.ar      1 RES1   0.0000
    12 C6      10.3139   7.8825   8.0296   C.ar      1 RES1   0.0000
    13 Fe1      3.3929   6.9442  11.1682   Fe        2 RES2   1.0000
    14 O1       2.1180   7.5460  12.4479   O.3       2 RES2   0.0000
    15 O2       2.3479   5.5229  10.5099   O.3       2 RES2   0.0000
    16 N1       4.3569   5.6680  12.4507   N.2       2 RES2   0.0000
    17 N2       2.6832   8.2876   9.7958   N.2       2 RES2   0.0000
    18 N3       4.8035   8.2149  12.0028   N.ar      2 RES2   0.0000
    19 O3      -1.8709  11.3684  12.4099   O.3       2 RES2   0.0000
    20 N4       4.7478   6.6622   9.5958   N.ar      2 RES2   0.0000
    21 O4       1.4761   0.3350  12.1493   O.3       2 RES2   0.0000
    22 C7       5.6712   7.6096  12.8704   C.ar      2 RES2   0.0000
    23 C8       5.4778   6.2283  13.1296   C.ar      2 RES2   0.0000
    24 C9       4.4476   7.4072   8.4704   C.ar      2 RES2   0.0000
    25 C10      3.9793   4.4591  12.7113   C.2       2 RES2   0.0000
    26 H1       4.4404   4.0012  13.3908   H         2 RES2   0.0000
    27 C11      2.1633   4.3151  10.9986   C.ar      2 RES2   0.0000
    28 C12      2.9230   3.7589  12.0535   C.ar      2 RES2   0.0000
    29 C13      3.3457   8.2684   8.5366   C.ar      2 RES2   0.0000
    30 C14      6.7216   8.3246  13.4972   C.ar      2 RES2   0.0000
    31 C15      0.9439   9.2442  11.2070   C.ar      2 RES2   0.0000
    32 C16      1.6963   9.1091   9.9986   C.2       2 RES2   0.0000
    33 H2       1.4540   9.6683   9.2826   H         2 RES2   0.0000
    34 C17      1.1893   8.4836  12.3591   C.ar      2 RES2   0.0000
    35 C18     -0.0868  10.2190  11.1958   C.ar      2 RES2   0.0000
    36 H3      -0.2472  10.7204  10.4166   H         2 RES2   0.0000
    37 C19      6.3644   5.5640  13.9451   C.ar      2 RES2   0.0000
    38 H4       6.2704   4.6402  14.0907   H         2 RES2   0.0000
    39 C20      7.5866   7.6105  14.3591   C.ar      2 RES2   0.0000
    40 H5       8.2865   8.0614  14.7951   H         2 RES2   0.0000
    41 C21      5.7817   5.8426   9.5634   C.ar      2 RES2   0.0000
    42 H6       5.9906   5.3456  10.3338   H         2 RES2   0.0000
    43 C22      4.9331   9.5257  11.7789   C.ar      2 RES2   0.0000
    44 H7       4.3400   9.9478  11.1845   H         2 RES2   0.0000
    45 C23      2.6885   2.4104  12.4704   C.ar      2 RES2   0.0000
    46 H8       3.1890   2.0456  13.1775   H         2 RES2   0.0000
    47 C24      5.2091   7.2824   7.2620   C.ar      2 RES2   0.0000
    48 C25      7.4140   6.2721  14.5634   C.ar      2 RES2   0.0000
    49 H9       8.0084   5.8129  15.1278   H         2 RES2   0.0000
    50 C26      3.0102   9.0108   7.4239   C.ar      2 RES2   0.0000
    51 H10      2.2770   9.5986   7.4579   H         2 RES2   0.0000
    52 C27      1.1757   3.4979  10.4014   C.ar      2 RES2   0.0000
    53 H11      0.6511   3.8425   9.7018   H         2 RES2   0.0000
    54 C28      6.8140   9.7153  13.2352   C.ar      2 RES2   0.0000
    55 H12      7.4901  10.2296  13.6387   H         2 RES2   0.0000
    56 C29     -0.8554  10.4362  12.3197   C.ar      2 RES2   0.0000
    57 C30      1.7451   1.6526  11.8465   C.ar      2 RES2   0.0000
    58 C31      5.9283  10.2922  12.4056   C.ar      2 RES2   0.0000
    59 H13      5.9758  11.2164  12.2430   H         2 RES2   0.0000
    60 C32      0.3713   8.7466  13.5014   C.ar      2 RES2   0.0000
    61 H14      0.5121   8.2602  14.2933   H         2 RES2   0.0000
    62 C33      0.9700   2.2103  10.8268   C.ar      2 RES2   0.0000
    63 H15      0.2957   1.6943  10.4249   H         2 RES2   0.0000
    64 C34      6.3101   6.3863   7.2972   C.ar      2 RES2   0.0000
    65 H16      6.8522   6.2808   6.5363   H         2 RES2   0.0000
    66 C35      3.7526   8.8958   6.2451   C.ar      2 RES2   0.0000
    67 H17      3.5015   9.3973   5.4903   H         2 RES2   0.0000
    68 C36     -0.6050   9.6895  13.4620   C.ar      2 RES2   0.0000
    69 H18     -1.1267   9.8398  14.2291   H         2 RES2   0.0000
    70 C37      4.8318   8.0702   6.1704   C.ar      2 RES2   0.0000
    71 H19      5.3307   8.0284   5.3739   H         2 RES2   0.0000
    72 C38      6.5800   5.6881   8.4183   C.ar      2 RES2   0.0000
    73 H20      7.3069   5.0922   8.4329   H         2 RES2   0.0000
    74 C39      2.4322  -0.3603  12.9282   C.3       2 RES2   0.0000
    75 H21      3.2936  -0.3318  12.4840   H         2 RES2   0.0000
    76 H22      2.1533  -1.2832  13.0352   H         2 RES2   0.0000
    77 H23      2.5046   0.0582  13.8010   H         2 RES2   0.0000
    78 C40     -2.0830  12.1846  11.3056   C.3       2 RES2   0.0000
    79 H24     -2.3675  11.6428  10.5529   H         2 RES2   0.0000
    80 H25     -1.2594  12.6445  11.0799   H         2 RES2   0.0000
    81 H26     -2.7709  12.8365  11.5128   H         2 RES2   0.0000
    82 S1       7.1047  15.7687  11.4470   S.2       3 RES3  -1.0000
    83 C41      6.1473  14.4938  11.1789   C.1       3 RES3   0.0000
    84 N5       5.4497  13.5785  11.0366   N.1       3 RES3   0.0000
    85 O5       3.8061  11.7754   9.7169   O.3       4 RES4   0.0000
    86 H27      4.2812  12.3299  10.1122   H         4 RES4   0.0000
    87 C42      2.8272  12.4325   9.0099   C.3       4 RES4   0.0000
    88 H28      2.6705  11.9719   8.1709   H         4 RES4   0.0000
    89 H29      3.1127  13.3420   8.8313   H         4 RES4   0.0000
    90 H30      2.0078  12.4467   9.5290   H         4 RES4   0.0000
@<TRIPOS>BOND
     1     1     9    1
     2     2     7    1
     3     3    10    1
     4     4     8    1
     5     5    11    1
     6     6    12    1
     7     7     8   ar
     8     8    10   ar
     9     9    11   ar
    10    10    12   ar
    11    11     7   ar
    12    12     9   ar
    13    13    14    1
    14    14    34    1
    15    15    13    1
    16    16    13    1
    17    17    13    1
    18    18    13    1
    19    19    56    1
    20    20    13    1
    21    21    57    1
    22    22    18   ar
    23    23    16    1
    24    24    20   ar
    25    25    16    2
    26    26    25    1
    27    27    15    1
    28    28    25    1
    29    29    17    1
    30    30    22   ar
    31    31    32    1
    32    32    17    2
    33    33    32    1
    34    34    31   ar
    35    35    31   ar
    36    36    35    1
    37    37    23   ar
    38    38    37    1
    39    39    30   ar
    40    40    39    1
    41    41    20   ar
    42    42    41    1
    43    43    18   ar
    44    44    43    1
    45    45    28   ar
    46    46    45    1
    47    47    24   ar
    48    48    37   ar
    49    49    48    1
    50    50    29   ar
    51    51    50    1
    52    52    27   ar
    53    53    52    1
    54    54    30   ar
    55    55    54    1
    56    56    35   ar
    57    57    45   ar
    58    58    43   ar
    59    59    58    1
    60    60    34   ar
    61    61    60    1
    62    62    52   ar
    63    63    62    1
    64    64    47   ar
    65    65    64    1
    66    66    50   ar
    67    67    66    1
    68    68    56   ar
    69    69    68    1
    70    70    47   ar
    71    71    70    1
    72    72    41   ar
    73    73    72    1
    74    74    21    1
    75    75    74    1
    76    76    74    1
    77    77    74    1
    78    78    19    1
    79    79    78    1
    80    80    78    1
    81    81    78    1
    82    22    23   ar
    83    24    29   ar
    84    27    28   ar
    85    39    48   ar
    86    54    58   ar
    87    57    62   ar
    88    60    68   ar
    89    64    72   ar
    90    66    70   ar
    91    82    83    1
    92    83    84    3
    93    85    86    1
    94    87    85    1
    95    88    87    1
    96    89    87    1
    97    90    87    1
@<TRIPOS>SUBSTRUCTURE
     1 RES1        1 GROUP             0 ****  ****    0  
     2 RES2       13 GROUP             0 ****  ****    0  
     3 RES3       82 GROUP             0 ****  ****    0  
     4 RES4       85 GROUP             0 ****  ****    0  
@<TRIPOS>CRYSIN
   11.4061   12.8788   14.3792   95.6800  100.0600   90.4290     2     1
