@<TRIPOS>MOLECULE
OPEVUD29
    90    97     4     0     0
SMALL
USER_CHARGES
****
Generated from the CSD

@<TRIPOS>ATOM
     1 I1      11.2929   8.9360   5.3700   I         1 RES1   0.0000
     2 I2       6.4994  10.7170   8.6847   I         1 RES1   0.0000
     3 I3       9.9590   6.2237  10.6203   I         1 RES1   0.0000
     4 F1       7.6918   8.3732  10.3944   F         1 RES1   0.0000
     5 F2      11.4036   7.0191   7.8983   F         1 RES1   0.0000
     6 F3       8.7662  10.6070   6.4065   F         1 RES1   0.0000
     7 C1       8.1698   9.5160   8.4152   C.ar      1 RES1   0.0000
     8 C2       9.5676   7.6760   9.1970   C.ar      1 RES1   0.0000
     9 C3       8.4821   8.5295   9.3337   C.ar      1 RES1   0.0000
    10 C4      10.1252   8.8176   7.0996   C.ar      1 RES1   0.0000
    11 C5       9.0324   9.6510   7.3250   C.ar      1 RES1   0.0000
    12 C6      10.3598   7.8406   8.0645   C.ar      1 RES1   0.0000
    13 Fe1      3.4451   6.8971  11.1463   Fe        2 RES2   1.0000
    14 O1       2.3534   5.5536  10.4493   O.3       2 RES2   0.0000
    15 O2       2.2197   7.4186  12.4750   O.3       2 RES2   0.0000
    16 O3       1.3189   0.4008  12.1453   O.3       2 RES2   0.0000
    17 N1       4.3306   5.6494  12.4200   N.2       2 RES2   0.0000
    18 O4      -1.9002  11.1170  12.4552   O.3       2 RES2   0.0000
    19 N2       2.7199   8.1715   9.8126   N.2       2 RES2   0.0000
    20 N3       4.7657   6.5603   9.6478   N.ar      2 RES2   0.0000
    21 N4       4.7845   8.1759  11.9509   N.ar      2 RES2   0.0000
    22 C7       5.4471   6.1951  13.1060   C.ar      2 RES2   0.0000
    23 C8       4.4953   7.2922   8.5040   C.ar      2 RES2   0.0000
    24 C9       5.6445   7.5899  12.8243   C.ar      2 RES2   0.0000
    25 C10      0.9536   9.0639  11.2199   C.ar      2 RES2   0.0000
    26 C11      2.1227   4.3578  10.9663   C.ar      2 RES2   0.0000
    27 C12      2.8461   3.7909  12.0467   C.ar      2 RES2   0.0000
    28 C13      6.3309   5.5419  13.9146   C.ar      2 RES2   0.0000
    29 H1       6.2418   4.6074  14.0596   H         2 RES2   0.0000
    30 C14     -0.0887  10.0291  11.2156   C.ar      2 RES2   0.0000
    31 H2      -0.2576  10.5386  10.4318   H         2 RES2   0.0000
    32 C15      1.2548   8.3205  12.3778   C.ar      2 RES2   0.0000
    33 C16      3.9075   4.4567  12.7116   C.2       2 RES2   0.0000
    34 H3       4.3400   3.9974  13.4216   H         2 RES2   0.0000
    35 C17      1.6978   8.9555  10.0112   C.2       2 RES2   0.0000
    36 H4       1.4250   9.5048   9.2854   H         2 RES2   0.0000
    37 C18      3.3916   8.1652   8.5589   C.ar      2 RES2   0.0000
    38 C19      6.6840   8.3065  13.4638   C.ar      2 RES2   0.0000
    39 C20     -0.8591  10.2300  12.3482   C.ar      2 RES2   0.0000
    40 C21      1.1158   3.5564  10.3634   C.ar      2 RES2   0.0000
    41 H5       0.5963   3.9125   9.6517   H         2 RES2   0.0000
    42 C22      2.5665   2.4639  12.4778   C.ar      2 RES2   0.0000
    43 H6       3.0408   2.0961  13.2151   H         2 RES2   0.0000
    44 C23      4.9035   9.4810  11.7030   C.ar      2 RES2   0.0000
    45 H7       4.3126   9.8912  11.0828   H         2 RES2   0.0000
    46 C24      5.8043   5.7456   9.6323   C.ar      2 RES2   0.0000
    47 H8       6.0096   5.2625  10.4243   H         2 RES2   0.0000
    48 C25      5.2685   7.1542   7.3250   C.ar      2 RES2   0.0000
    49 C26      3.0727   8.9034   7.4405   C.ar      2 RES2   0.0000
    50 H9       2.3318   9.4984   7.4610   H         2 RES2   0.0000
    51 C27      7.5639   7.5992  14.3189   C.ar      2 RES2   0.0000
    52 H10      8.2819   8.0543  14.7414   H         2 RES2   0.0000
    53 C28     -0.5745   9.4762  13.4962   C.ar      2 RES2   0.0000
    54 H11     -1.0970   9.6088  14.2789   H         2 RES2   0.0000
    55 C29      1.6185   1.7146  11.8354   C.ar      2 RES2   0.0000
    56 C30      0.4355   8.5537  13.5188   C.ar      2 RES2   0.0000
    57 H12      0.5925   8.0566  14.3131   H         2 RES2   0.0000
    58 C31      7.3819   6.2577  14.5358   C.ar      2 RES2   0.0000
    59 H13      7.9757   5.7977  15.1183   H         2 RES2   0.0000
    60 C32      0.8852   2.2712  10.7959   C.ar      2 RES2   0.0000
    61 H14      0.2100   1.7530  10.3745   H         2 RES2   0.0000
    62 C33      6.7761   9.6901  13.1920   C.ar      2 RES2   0.0000
    63 H15      7.4562  10.2124  13.5991   H         2 RES2   0.0000
    64 C34      6.3599   6.2495   7.3728   C.ar      2 RES2   0.0000
    65 H16      6.9073   6.1295   6.6052   H         2 RES2   0.0000
    66 C35      5.8882  10.2671  12.3454   C.ar      2 RES2   0.0000
    67 H17      5.9280  11.2028  12.1829   H         2 RES2   0.0000
    68 C36      6.6250   5.5572   8.5012   C.ar      2 RES2   0.0000
    69 H18      7.3553   4.9503   8.5321   H         2 RES2   0.0000
    70 C37      4.9127   7.9312   6.2121   C.ar      2 RES2   0.0000
    71 H19      5.4217   7.8687   5.4124   H         2 RES2   0.0000
    72 C38      3.8414   8.7776   6.2671   C.ar      2 RES2   0.0000
    73 H20      3.6117   9.2906   5.5012   H         2 RES2   0.0000
    74 C39      2.2711  -0.2962  12.9215   C.3       2 RES2   0.0000
    75 H21      3.1519  -0.2264  12.4988   H         2 RES2   0.0000
    76 H22      2.0126  -1.2394  12.9853   H         2 RES2   0.0000
    77 H23      2.3079   0.0936  13.8202   H         2 RES2   0.0000
    78 C40     -2.1156  11.9787  11.3593   C.3       2 RES2   0.0000
    79 H24     -2.3615  11.4498  10.5714   H         2 RES2   0.0000
    80 H25     -1.2942  12.4800  11.1721   H         2 RES2   0.0000
    81 H26     -2.8389  12.6041  11.5717   H         2 RES2   0.0000
    82 S1       7.2494  15.5400  11.4397   S.2       3 RES3  -1.0000
    83 C41      6.1850  14.3655  11.1748   C.1       3 RES3   0.0000
    84 N5       5.3940  13.5281  11.0410   N.1       3 RES3   0.0000
    85 O5       3.8089  11.7134   9.6802   O.3       4 RES4   0.0000
    86 H27      4.3516  12.3024   9.9350   H         4 RES4   0.0000
    87 C42      2.7223  12.3159   9.0900   C.3       4 RES4   0.0000
    88 H28      2.6022  11.9599   8.1854   H         4 RES4   0.0000
    89 H29      2.8711  13.2839   9.0430   H         4 RES4   0.0000
    90 H30      1.9198  12.1348   9.6223   H         4 RES4   0.0000
@<TRIPOS>BOND
     1     1    10    1
     2     2     7    1
     3     3     8    1
     4     4     9    1
     5     5    12    1
     6     6    11    1
     7     7     9   ar
     8     8     9   ar
     9    10    11   ar
    10    11     7   ar
    11    12     8   ar
    12    10    12   ar
    13    13    14    1
    14    14    26    1
    15    15    13    1
    16    16    55    1
    17    17    13    1
    18    18    39    1
    19    19    13    1
    20    20    13    1
    21    21    13    1
    22    22    17    1
    23    23    20   ar
    24    24    21   ar
    25    25    30   ar
    26    26    27   ar
    27    27    33    1
    28    28    22   ar
    29    29    28    1
    30    30    31    1
    31    32    15    1
    32    33    17    2
    33    34    33    1
    34    35    19    2
    35    36    35    1
    36    37    19    1
    37    38    24   ar
    38    39    30   ar
    39    40    26   ar
    40    41    40    1
    41    42    27   ar
    42    43    42    1
    43    44    21   ar
    44    45    44    1
    45    46    20   ar
    46    47    46    1
    47    48    23   ar
    48    49    37   ar
    49    50    49    1
    50    51    38   ar
    51    52    51    1
    52    53    39   ar
    53    54    53    1
    54    55    42   ar
    55    56    32   ar
    56    57    56    1
    57    58    28   ar
    58    59    58    1
    59    60    40   ar
    60    61    60    1
    61    62    38   ar
    62    63    62    1
    63    64    48   ar
    64    65    64    1
    65    66    44   ar
    66    67    66    1
    67    68    46   ar
    68    69    68    1
    69    70    48   ar
    70    71    70    1
    71    72    49   ar
    72    73    72    1
    73    74    16    1
    74    75    74    1
    75    76    74    1
    76    77    74    1
    77    78    18    1
    78    79    78    1
    79    80    78    1
    80    81    78    1
    81    22    24   ar
    82    23    37   ar
    83    25    32   ar
    84    25    35    1
    85    51    58   ar
    86    53    56   ar
    87    55    60   ar
    88    62    66   ar
    89    64    68   ar
    90    70    72   ar
    91    82    83    1
    92    83    84    3
    93    85    86    1
    94    87    85    1
    95    88    87    1
    96    89    87    1
    97    90    87    1
@<TRIPOS>SUBSTRUCTURE
     1 RES1        1 GROUP             0 ****  ****    0  
     2 RES2       13 GROUP             0 ****  ****    0  
     3 RES3       82 GROUP             0 ****  ****    0  
     4 RES4       85 GROUP             0 ****  ****    0  
@<TRIPOS>CRYSIN
   11.5017   12.6939   14.3968   95.4810  100.5310   90.1990     2     1
