@<TRIPOS>MOLECULE
OPEVIR06
    84    92     3     0     0
SMALL
USER_CHARGES
****
Generated from the CSD

@<TRIPOS>ATOM
     1 I1       0.0766   3.8795   5.2136   I         1 RES1   0.0000
     2 I2       4.8507   1.7380   8.3113   I         1 RES1   0.0000
     3 I3       1.8340   6.4834  10.3709   I         1 RES1   0.0000
     4 F1       0.2362   5.7993   7.7228   F         1 RES1   0.0000
     5 F2       2.5349   2.0387   6.1282   F         1 RES1   0.0000
     6 F3       3.9979   4.2265  10.0056   F         1 RES1   0.0000
     7 C1       2.1086   5.0148   8.9129   C.ar      1 RES1   0.0000
     8 C2       1.3725   3.9331   6.8762   C.ar      1 RES1   0.0000
     9 C3       1.2474   4.9267   7.8480   C.ar      1 RES1   0.0000
    10 C4       3.3023   3.1143   8.0704   C.ar      1 RES1   0.0000
    11 C5       2.4127   3.0482   7.0555   C.ar      1 RES1   0.0000
    12 C6       3.1322   4.1114   8.9894   C.ar      1 RES1   0.0000
    13 Fe1      8.2272   5.8873  11.0055   Fe        2 RES2   1.0000
    14 O1       9.2993   7.3337  10.4046   O.3       2 RES2   0.0000
    15 N1       8.8735   4.4498   9.6247   N.2       2 RES2   0.0000
    16 O2       9.4860   5.1984  12.2565   O.3       2 RES2   0.0000
    17 N2       7.2298   7.2032  12.2843   N.2       2 RES2   0.0000
    18 O3      13.5442   1.4648  12.1466   O.3       2 RES2   0.0000
    19 N3       6.7187   4.6536  11.8449   N.ar      2 RES2   0.0000
    20 N4       6.8879   6.1802   9.3564   N.ar      2 RES2   0.0000
    21 O4      10.1281  12.5405  11.9242   O.3       2 RES2   0.0000
    22 C7       9.8861   3.6516   9.8096   C.2       2 RES2   0.0000
    23 H1      10.1188   3.0964   9.0999   H         2 RES2   0.0000
    24 C8       7.6093   8.4310  12.5276   C.2       2 RES2   0.0000
    25 H2       7.1403   8.8982  13.1811   H         2 RES2   0.0000
    26 C9       6.0993   6.6836  12.9641   C.ar      2 RES2   0.0000
    27 C10     10.4492   4.2908  12.1591   C.ar      2 RES2   0.0000
    28 C11      8.6815   9.1196  11.8783   C.ar      2 RES2   0.0000
    29 C12     10.6728   3.5470  10.9969   C.ar      2 RES2   0.0000
    30 C13      9.4812   8.5428  10.8481   C.ar      2 RES2   0.0000
    31 C14      8.1513   4.3901   8.4027   C.ar      2 RES2   0.0000
    32 C15      5.8622   5.3039  12.7069   C.ar      2 RES2   0.0000
    33 C16      7.1021   5.3462   8.3012   C.ar      2 RES2   0.0000
    34 C17     12.5104   2.3889  12.0827   C.ar      2 RES2   0.0000
    35 C18     11.7191   2.6019  10.9594   C.ar      2 RES2   0.0000
    36 H3      11.8805   2.1195  10.1806   H         2 RES2   0.0000
    37 C19      6.5281   3.3742  11.6128   C.ar      2 RES2   0.0000
    38 H4       7.0935   2.9382  11.0173   H         2 RES2   0.0000
    39 C20     11.2850   4.0673  13.2560   C.ar      2 RES2   0.0000
    40 H5      11.1592   4.5612  14.0342   H         2 RES2   0.0000
    41 C21      4.7828   4.6325  13.3367   C.ar      2 RES2   0.0000
    42 C22      5.2356   7.3397  13.7830   C.ar      2 RES2   0.0000
    43 H6       5.3693   8.2434  13.9564   H         2 RES2   0.0000
    44 C23      8.8931  10.4738  12.2592   C.ar      2 RES2   0.0000
    45 H7       8.3681  10.8518  12.9275   H         2 RES2   0.0000
    46 C24      5.9279   7.0734   9.2924   C.ar      2 RES2   0.0000
    47 H8       5.7729   7.6333  10.0178   H         2 RES2   0.0000
    48 C25      6.3003   5.4206   7.1195   C.ar      2 RES2   0.0000
    49 C26     10.4891   9.3431  10.2823   C.ar      2 RES2   0.0000
    50 H9      11.0402   8.9841   9.6248   H         2 RES2   0.0000
    51 C27      3.9280   5.3616  14.1653   C.ar      2 RES2   0.0000
    52 H10      3.2077   4.9427  14.5783   H         2 RES2   0.0000
    53 C28     12.2842   3.1364  13.2074   C.ar      2 RES2   0.0000
    54 H11     12.8233   3.0084  13.9551   H         2 RES2   0.0000
    55 C29      5.4995   2.6399  12.2314   C.ar      2 RES2   0.0000
    56 H12      5.4149   1.7298  12.0605   H         2 RES2   0.0000
    57 C30      9.8564  11.2225  11.6545   C.ar      2 RES2   0.0000
    58 C31      7.6150   3.6128   6.1811   C.ar      2 RES2   0.0000
    59 H13      7.7931   3.0366   5.4726   H         2 RES2   0.0000
    60 C32      8.3748   3.5246   7.3544   C.ar      2 RES2   0.0000
    61 H14      9.0371   2.8760   7.4272   H         2 RES2   0.0000
    62 C33      4.6401   3.2412  13.0670   C.ar      2 RES2   0.0000
    63 H15      3.9552   2.7546  13.4656   H         2 RES2   0.0000
    64 C34      4.1542   6.6827  14.3669   C.ar      2 RES2   0.0000
    65 H16      3.5725   7.1646  14.9093   H         2 RES2   0.0000
    66 C35     10.6747  10.6308  10.6785   C.ar      2 RES2   0.0000
    67 H17     11.3592  11.1299  10.2950   H         2 RES2   0.0000
    68 C36      5.1177   7.1952   8.1205   C.ar      2 RES2   0.0000
    69 H18      4.4546   7.8460   8.0879   H         2 RES2   0.0000
    70 C37      6.6047   4.5417   6.0657   C.ar      2 RES2   0.0000
    71 H19      6.1154   4.5894   5.2769   H         2 RES2   0.0000
    72 C38      5.3024   6.3877   7.0736   C.ar      2 RES2   0.0000
    73 H20      4.7658   6.4702   6.3176   H         2 RES2   0.0000
    74 C39     13.7041   0.5755  11.0914   C.3       2 RES2   0.0000
    75 H21     13.8824   1.0645  10.2847   H         2 RES2   0.0000
    76 H22     12.9020   0.0597  10.9822   H         2 RES2   0.0000
    77 H23     14.4399  -0.0132  11.2774   H         2 RES2   0.0000
    78 C40      9.2098  13.2278  12.7583   C.3       2 RES2   0.0000
    79 H24      8.3567  13.2802  12.3203   H         2 RES2   0.0000
    80 H25      9.5354  14.1145  12.9305   H         2 RES2   0.0000
    81 H26      9.1145  12.7551  13.5882   H         2 RES2   0.0000
    82 S1      -1.8468   4.2366   2.6326   S.2       3 RES3  -1.0000
    83 C41     -2.7359   2.9524   2.9126   C.1       3 RES3   0.0000
    84 N5      -3.3951   1.9902   3.0905   N.1       3 RES3   0.0000
@<TRIPOS>BOND
     1     1     8    1
     2     2    10    1
     3     3     7    1
     4     4     9    1
     5     5    11    1
     6     6    12    1
     7     7     9   ar
     8     8     9   ar
     9    10    11   ar
    10    11     8   ar
    11    12     7   ar
    12    10    12   ar
    13    13    14    1
    14    14    30    1
    15    15    13    1
    16    16    13    1
    17    17    13    1
    18    18    34    1
    19    19    13    1
    20    20    13    1
    21    21    57    1
    22    22    15    2
    23    23    22    1
    24    24    17    2
    25    25    24    1
    26    26    17    1
    27    27    16    1
    28    28    24    1
    29    29    22    1
    30    30    28   ar
    31    31    15    1
    32    32    19   ar
    33    33    20   ar
    34    34    35   ar
    35    35    29   ar
    36    36    35    1
    37    37    19   ar
    38    38    37    1
    39    39    27   ar
    40    40    39    1
    41    41    32   ar
    42    42    26   ar
    43    43    42    1
    44    44    28   ar
    45    45    44    1
    46    46    20   ar
    47    47    46    1
    48    48    33   ar
    49    49    30   ar
    50    50    49    1
    51    51    41   ar
    52    52    51    1
    53    53    34   ar
    54    54    53    1
    55    55    37   ar
    56    56    55    1
    57    57    44   ar
    58    58    59    1
    59    60    31   ar
    60    61    60    1
    61    62    41   ar
    62    63    62    1
    63    64    42   ar
    64    65    64    1
    65    66    49   ar
    66    67    66    1
    67    68    46   ar
    68    69    68    1
    69    70    48   ar
    70    71    70    1
    71    72    48   ar
    72    73    72    1
    73    74    18    1
    74    75    74    1
    75    76    74    1
    76    77    74    1
    77    78    21    1
    78    79    78    1
    79    80    78    1
    80    81    78    1
    81    26    32   ar
    82    27    29   ar
    83    31    33   ar
    84    39    53   ar
    85    51    64   ar
    86    55    62   ar
    87    57    66   ar
    88    58    60   ar
    89    58    70   ar
    90    68    72   ar
    91    82    83    1
    92    83    84    3
@<TRIPOS>SUBSTRUCTURE
     1 RES1        1 GROUP             0 ****  ****    0  
     2 RES2       13 GROUP             0 ****  ****    0  
     3 RES3       82 GROUP             0 ****  ****    0  
@<TRIPOS>CRYSIN
   11.5340   12.8567   14.2396   84.0580   79.0410   89.8940     2     1
