@<TRIPOS>MOLECULE
OPEVIR08
    84    92     3     0     0
SMALL
USER_CHARGES
****
Generated from the CSD

@<TRIPOS>ATOM
     1 I1      11.6581   9.0236   5.2176   I         1 RES1   0.0000
     2 I2       6.9055  11.3356   8.2616   I         1 RES1   0.0000
     3 I3       9.7011   6.4917  10.3501   I         1 RES1   0.0000
     4 F1       9.2416  10.9397   6.0899   F         1 RES1   0.0000
     5 F2      11.3756   7.1167   7.7422   F         1 RES1   0.0000
     6 F3       7.6232   8.7930   9.9341   F         1 RES1   0.0000
     7 C1       8.3810   9.8974   8.0251   C.ar      1 RES1   0.0000
     8 C2       9.5158   7.9343   8.8685   C.ar      1 RES1   0.0000
     9 C3       9.3238   9.9420   7.0009   C.ar      1 RES1   0.0000
    10 C4      10.3924   8.0298   7.8402   C.ar      1 RES1   0.0000
    11 C5      10.3172   9.0244   6.8574   C.ar      1 RES1   0.0000
    12 C6       8.5075   8.8779   8.9085   C.ar      1 RES1   0.0000
    13 Fe1      3.3421   7.1317  10.9551   Fe        2 RES2   1.0000
    14 O1       2.0725   7.8778  12.1895   O.3       2 RES2   0.0000
    15 N1       2.7175   8.5908   9.5504   N.2       2 RES2   0.0000
    16 N2       4.3824   5.7748  12.2089   N.2       2 RES2   0.0000
    17 O2       2.2412   5.6872  10.3868   O.3       2 RES2   0.0000
    18 N3       4.8913   8.3321  11.8168   N.ar      2 RES2   0.0000
    19 O3      -2.0502  11.5013  11.9963   O.3       2 RES2   0.0000
    20 N4       4.6866   6.8263   9.2798   N.ar      2 RES2   0.0000
    21 C7       1.6670   9.3602   9.7133   C.2       2 RES2   0.0000
    22 H1       1.4232   9.8947   8.9919   H         2 RES2   0.0000
    23 C8       1.0923   8.7410  12.0639   C.ar      2 RES2   0.0000
    24 C9       5.7563   7.6899  12.6561   C.ar      2 RES2   0.0000
    25 O4       1.5380   0.4236  11.7395   O.3       2 RES2   0.0000
    26 C10      4.0283   4.5441  12.3980   C.2       2 RES2   0.0000
    27 H2       4.5218   4.0599  13.0206   H         2 RES2   0.0000
    28 C11      0.8623   9.4569  10.8907   C.ar      2 RES2   0.0000
    29 C12      2.1025   4.4361  10.7927   C.ar      2 RES2   0.0000
    30 C13      2.9580   3.8505  11.7506   C.ar      2 RES2   0.0000
    31 C14      5.5172   6.2999  12.8838   C.ar      2 RES2   0.0000
    32 C15     -1.0091  10.5985  11.9494   C.ar      2 RES2   0.0000
    33 C16      4.4985   7.6897   8.2239   C.ar      2 RES2   0.0000
    34 C17      0.2268   8.9719  13.1544   C.ar      2 RES2   0.0000
    35 H3       0.3578   8.4964  13.9431   H         2 RES2   0.0000
    36 C18      3.4641   8.6512   8.3426   C.ar      2 RES2   0.0000
    37 C19     -0.2026  10.4171  10.8423   C.ar      2 RES2   0.0000
    38 H4      -0.3488  10.9151  10.0700   H         2 RES2   0.0000
    39 C20      6.8408   8.3490  13.2855   C.ar      2 RES2   0.0000
    40 C21     -0.7919   9.8681  13.0867   C.ar      2 RES2   0.0000
    41 H5      -1.3489   9.9864  13.8226   H         2 RES2   0.0000
    42 C22      2.7821   2.4865  12.0681   C.ar      2 RES2   0.0000
    43 H6       3.3482   2.0828  12.6848   H         2 RES2   0.0000
    44 C23      5.0780   9.6284  11.6195   C.ar      2 RES2   0.0000
    45 H7       4.4978  10.0780  11.0482   H         2 RES2   0.0000
    46 C24      6.3959   5.6260  13.6775   C.ar      2 RES2   0.0000
    47 H8       6.2706   4.7158  13.8249   H         2 RES2   0.0000
    48 C25      1.7924   1.7517  11.4828   C.ar      2 RES2   0.0000
    49 C26      5.3119   7.6220   7.0672   C.ar      2 RES2   0.0000
    50 C27      1.0804   3.6660  10.2364   C.ar      2 RES2   0.0000
    51 H9       0.4882   4.0509   9.6319   H         2 RES2   0.0000
    52 C28      7.7129   7.5832  14.0792   C.ar      2 RES2   0.0000
    53 H10      8.4539   7.9852  14.4723   H         2 RES2   0.0000
    54 C29      5.6194   5.9046   9.1763   C.ar      2 RES2   0.0000
    55 H11      5.7396   5.3049   9.8774   H         2 RES2   0.0000
    56 C30      7.4785   6.2689  14.2752   C.ar      2 RES2   0.0000
    57 H12      8.0525   5.7804  14.8198   H         2 RES2   0.0000
    58 C31      3.2627   9.5386   7.3184   C.ar      2 RES2   0.0000
    59 H13      2.5891  10.1781   7.3764   H         2 RES2   0.0000
    60 C32      6.1118  10.3540  12.2309   C.ar      2 RES2   0.0000
    61 H14      6.1908  11.2689  12.0830   H         2 RES2   0.0000
    62 C33      6.9857   9.7236  13.0301   C.ar      2 RES2   0.0000
    63 H15      7.6886  10.1960  13.4141   H         2 RES2   0.0000
    64 C34      0.9421   2.3438  10.5759   C.ar      2 RES2   0.0000
    65 H16      0.2628   1.8397  10.1890   H         2 RES2   0.0000
    66 C35      4.0906   9.4726   6.1714   C.ar      2 RES2   0.0000
    67 H17      3.9571  10.0888   5.4873   H         2 RES2   0.0000
    68 C36      6.4478   5.7954   8.0334   C.ar      2 RES2   0.0000
    69 H18      7.1078   5.1409   7.9979   H         2 RES2   0.0000
    70 C37      5.0465   8.5660   6.0333   C.ar      2 RES2   0.0000
    71 H19      5.5516   8.5461   5.2519   H         2 RES2   0.0000
    72 C38      6.2843   6.6240   7.0147   C.ar      2 RES2   0.0000
    73 H20      6.8203   6.5399   6.2597   H         2 RES2   0.0000
    74 C39     -2.1583  12.4754  10.9721   C.3       2 RES2   0.0000
    75 H21     -2.4218  12.0497  10.1524   H         2 RES2   0.0000
    76 H22     -1.3102  12.9072  10.8500   H         2 RES2   0.0000
    77 H23     -2.8177  13.1278  11.2194   H         2 RES2   0.0000
    78 C40      2.4803  -0.2936  12.4490   C.3       2 RES2   0.0000
    79 H24      3.2747  -0.3902  11.9180   H         2 RES2   0.0000
    80 H25      2.1295  -1.1616  12.6604   H         2 RES2   0.0000
    81 H26      2.6933   0.1724  13.2608   H         2 RES2   0.0000
    82 S1      13.6127   8.6695   2.6702   S.2       3 RES3  -1.0000
    83 C41     14.4144   9.9913   2.9401   C.1       3 RES3   0.0000
    84 N5      14.9865  11.0100   3.0960   N.1       3 RES3   0.0000
@<TRIPOS>BOND
     1     1    11    1
     2     2     7    1
     3     3     8    1
     4     4     9    1
     5     5    10    1
     6     6    12    1
     7     7     9   ar
     8     8    10   ar
     9     9    11   ar
    10    10    11   ar
    11    12     7   ar
    12     8    12   ar
    13    13    14    1
    14    14    23    1
    15    15    13    1
    16    16    13    1
    17    17    13    1
    18    18    13    1
    19    19    32    1
    20    20    13    1
    21    21    15    2
    22    22    21    1
    23    23    28   ar
    24    24    18   ar
    25    25    48    1
    26    26    16    2
    27    27    26    1
    28    28    21    1
    29    29    17    1
    30    30    26    1
    31    31    16    1
    32    32    37   ar
    33    33    20   ar
    34    34    23   ar
    35    35    34    1
    36    36    15    1
    37    37    28   ar
    38    38    37    1
    39    39    24   ar
    40    40    32   ar
    41    41    40    1
    42    42    30   ar
    43    43    42    1
    44    44    18   ar
    45    45    44    1
    46    46    31   ar
    47    47    46    1
    48    48    42   ar
    49    49    33   ar
    50    50    29   ar
    51    51    50    1
    52    52    39   ar
    53    53    52    1
    54    54    20   ar
    55    55    54    1
    56    56    46   ar
    57    57    56    1
    58    58    36   ar
    59    59    58    1
    60    60    44   ar
    61    61    60    1
    62    62    39   ar
    63    63    62    1
    64    64    48   ar
    65    65    64    1
    66    66    58   ar
    67    67    66    1
    68    68    54   ar
    69    69    68    1
    70    70    49   ar
    71    71    70    1
    72    72    49   ar
    73    73    72    1
    74    74    19    1
    75    75    74    1
    76    76    74    1
    77    77    74    1
    78    78    25    1
    79    79    78    1
    80    80    78    1
    81    81    78    1
    82    24    31   ar
    83    29    30   ar
    84    33    36   ar
    85    34    40   ar
    86    50    64   ar
    87    52    56   ar
    88    60    62   ar
    89    66    70   ar
    90    68    72   ar
    91    82    83    1
    92    83    84    3
@<TRIPOS>SUBSTRUCTURE
     1 RES1        1 GROUP             0 ****  ****    0  
     2 RES2       13 GROUP             0 ****  ****    0  
     3 RES3       82 GROUP             0 ****  ****    0  
@<TRIPOS>CRYSIN
   11.7221   12.9457   14.1334   95.5810  101.0250   90.2490     2     1
