@<TRIPOS>MOLECULE
OPEVIR24
    84    92     3     0     0
SMALL
USER_CHARGES
****
Generated from the CSD

@<TRIPOS>ATOM
     1 I1       0.2493   3.5950   5.2210   I         1 RES1   0.0000
     2 I2       5.2344   1.7190   8.1894   I         1 RES1   0.0000
     3 I3       2.2667   6.5654  10.0775   I         1 RES1   0.0000
     4 F1       2.8099   1.8633   6.0977   F         1 RES1   0.0000
     5 F2       0.5361   5.7012   7.5652   F         1 RES1   0.0000
     6 F3       4.4701   4.3400   9.7167   F         1 RES1   0.0000
     7 C1       1.6460   3.7927   6.7823   C.ar      1 RES1   0.0000
     8 C2       2.7105   2.9167   6.9353   C.ar      1 RES1   0.0000
     9 C3       2.4916   5.0451   8.6830   C.ar      1 RES1   0.0000
    10 C4       1.5713   4.8398   7.6772   C.ar      1 RES1   0.0000
    11 C5       3.6879   3.0734   7.9086   C.ar      1 RES1   0.0000
    12 C6       3.5436   4.1650   8.7547   C.ar      1 RES1   0.0000
    13 Fe1      8.5894   5.8536  10.6871   Fe        2 RES2   1.0000
    14 O1       9.7868   7.0898   9.9562   O.3       2 RES2   0.0000
    15 O2       9.7984   5.3529  12.0276   O.3       2 RES2   0.0000
    16 O3      14.1723   1.9868  11.8562   O.3       2 RES2   0.0000
    17 N1       9.2545   4.5504   9.4086   N.2       2 RES2   0.0000
    18 O4      10.9628  12.2569  11.4650   O.3       2 RES2   0.0000
    19 N2       7.2920   6.2365   9.2353   N.ar      2 RES2   0.0000
    20 N3       7.2303   4.6369  11.4744   N.ar      2 RES2   0.0000
    21 N4       7.7950   7.1198  11.9171   N.2       2 RES2   0.0000
    22 C7      10.3380   3.8504   9.5467   C.2       2 RES2   0.0000
    23 H1      10.6033   3.3048   8.8160   H         2 RES2   0.0000
    24 C8      12.2742   2.9629  10.6811   C.ar      2 RES2   0.0000
    25 H2      12.4641   2.4660   9.8945   H         2 RES2   0.0000
    26 C9      10.8517   4.5682  11.8779   C.ar      2 RES2   0.0000
    27 C10      7.4364   5.4012   8.1604   C.ar      2 RES2   0.0000
    28 C11      9.3608   8.9171  11.5015   C.ar      2 RES2   0.0000
    29 C12     11.1546   3.8388  10.7028   C.ar      2 RES2   0.0000
    30 C13      8.2658   8.3056  12.1825   C.2       2 RES2   0.0000
    31 H3       7.8508   8.7984  12.8809   H         2 RES2   0.0000
    32 C14     11.7248   4.4070  12.9839   C.ar      2 RES2   0.0000
    33 H4      11.5536   4.8893  13.7847   H         2 RES2   0.0000
    34 C15      6.6393   6.6479  12.5886   C.ar      2 RES2   0.0000
    35 C16      6.3836   5.2756  12.3435   C.ar      2 RES2   0.0000
    36 C17      8.4791   4.4513   8.2268   C.ar      2 RES2   0.0000
    37 C18     13.0837   2.8251  11.7763   C.ar      2 RES2   0.0000
    38 C19      9.6619  10.2453  11.8765   C.ar      2 RES2   0.0000
    39 H5       9.1884  10.6537  12.5912   H         2 RES2   0.0000
    40 C20      7.0484   3.3411  11.2578   C.ar      2 RES2   0.0000
    41 H6       7.6314   2.8933  10.6561   H         2 RES2   0.0000
    42 C21     10.0673   8.2808  10.4469   C.ar      2 RES2   0.0000
    43 C22     12.8036   3.5771  12.9257   C.ar      2 RES2   0.0000
    44 H7      13.3772   3.5058  13.6793   H         2 RES2   0.0000
    45 C23      5.3074   4.6158  12.9744   C.ar      2 RES2   0.0000
    46 C24      8.6448   3.5478   7.1979   C.ar      2 RES2   0.0000
    47 H8       9.3266   2.8878   7.2465   H         2 RES2   0.0000
    48 C25     10.6399  10.9490  11.2118   C.ar      2 RES2   0.0000
    49 C26     11.1137   9.0185   9.8364   C.ar      2 RES2   0.0000
    50 H9      11.6365   8.6125   9.1551   H         2 RES2   0.0000
    51 C27      6.3474   7.1645   9.1907   C.ar      2 RES2   0.0000
    52 H10      6.2396   7.7481   9.9329   H         2 RES2   0.0000
    53 C28      4.4538   5.3813  13.8110   C.ar      2 RES2   0.0000
    54 H11      3.7189   4.9678  14.2475   H         2 RES2   0.0000
    55 C29      6.5952   5.4762   7.0179   C.ar      2 RES2   0.0000
    56 C30      7.7996   3.6110   6.0797   C.ar      2 RES2   0.0000
    57 H12      7.9150   2.9835   5.3760   H         2 RES2   0.0000
    58 C31      5.4977   7.3131   8.0738   C.ar      2 RES2   0.0000
    59 H13      4.8414   8.0010   8.0676   H         2 RES2   0.0000
    60 C32      5.7823   7.3599  13.3927   C.ar      2 RES2   0.0000
    61 H14      5.9279   8.2857  13.5453   H         2 RES2   0.0000
    62 C33     11.3817  10.3051  10.2141   C.ar      2 RES2   0.0000
    63 H15     12.0910  10.7733   9.7898   H         2 RES2   0.0000
    64 C34      4.6905   6.7076  13.9857   C.ar      2 RES2   0.0000
    65 H16      4.0960   7.2111  14.5289   H         2 RES2   0.0000
    66 C35      6.8186   4.5504   5.9782   C.ar      2 RES2   0.0000
    67 H17      6.2788   4.5817   5.1971   H         2 RES2   0.0000
    68 C36      6.0333   2.6086  11.8806   C.ar      2 RES2   0.0000
    69 H18      5.9501   1.6774  11.7147   H         2 RES2   0.0000
    70 C37      5.1651   3.2305  12.7240   C.ar      2 RES2   0.0000
    71 H19      4.4690   2.7381  13.1414   H         2 RES2   0.0000
    72 C38      5.6088   6.4860   7.0138   C.ar      2 RES2   0.0000
    73 H20      5.0269   6.5820   6.2687   H         2 RES2   0.0000
    74 C39     10.0460  12.9935  12.2488   C.3       2 RES2   0.0000
    75 H21      9.1557  12.9456  11.8403   H         2 RES2   0.0000
    76 H22     10.3337  13.9283  12.2960   H         2 RES2   0.0000
    77 H23     10.0111  12.6151  13.1519   H         2 RES2   0.0000
    78 C40     14.2749   0.9882  10.8571   C.3       2 RES2   0.0000
    79 H24     14.3765   1.4131   9.9796   H         2 RES2   0.0000
    80 H25     13.4632   0.4382  10.8608   H         2 RES2   0.0000
    81 H26     15.0536   0.4223  11.0384   H         2 RES2   0.0000
    82 S1      -1.7268   3.9321   2.6592   S.2       3 RES3  -1.0000
    83 N5      -3.6940   1.9738   3.1204   N.1       3 RES3   0.0000
    84 C41     -2.8742   2.7822   2.9214   C.1       3 RES3   0.0000
@<TRIPOS>BOND
     1     1     7    1
     2     2    11    1
     3     3     9    1
     4     4     8    1
     5     5    10    1
     6     6    12    1
     7     7     8   ar
     8     8    11   ar
     9     9    10   ar
    10    10     7   ar
    11    11    12   ar
    12    12     9   ar
    13    13    14    1
    14    14    42    1
    15    15    13    1
    16    16    37    1
    17    17    13    1
    18    18    48    1
    19    19    13    1
    20    20    13    1
    21    21    13    1
    22    22    17    2
    23    23    22    1
    24    24    25    1
    25    26    15    1
    26    27    19   ar
    27    28    30    1
    28    29    22    1
    29    30    21    2
    30    31    30    1
    31    32    26   ar
    32    33    32    1
    33    34    21    1
    34    35    20   ar
    35    36    17    1
    36    37    24   ar
    37    38    28   ar
    38    39    38    1
    39    40    20   ar
    40    41    40    1
    41    42    28   ar
    42    43    32   ar
    43    44    43    1
    44    45    35   ar
    45    46    36   ar
    46    47    46    1
    47    48    38   ar
    48    49    42   ar
    49    50    49    1
    50    51    19   ar
    51    52    51    1
    52    53    45   ar
    53    54    53    1
    54    55    27   ar
    55    56    46   ar
    56    57    56    1
    57    58    51   ar
    58    59    58    1
    59    60    34   ar
    60    61    60    1
    61    62    48   ar
    62    63    62    1
    63    64    53   ar
    64    65    64    1
    65    66    55   ar
    66    67    66    1
    67    68    40   ar
    68    69    68    1
    69    70    45   ar
    70    71    70    1
    71    72    55   ar
    72    73    72    1
    73    74    18    1
    74    75    74    1
    75    76    74    1
    76    77    74    1
    77    78    16    1
    78    79    78    1
    79    80    78    1
    80    81    78    1
    81    24    29   ar
    82    26    29   ar
    83    27    36   ar
    84    34    35   ar
    85    37    43   ar
    86    49    62   ar
    87    56    66   ar
    88    58    72   ar
    89    60    64   ar
    90    68    70   ar
    91    82    84    1
    92    83    84    3
@<TRIPOS>SUBSTRUCTURE
     1 RES1        1 GROUP             0 ****  ****    0  
     2 RES2       13 GROUP             0 ****  ****    0  
     3 RES3       82 GROUP             0 ****  ****    0  
@<TRIPOS>CRYSIN
   11.8326   12.3511   13.9910   82.7900   77.2470   89.2510     2     1
