@<TRIPOS>MOLECULE
OPEVIR11
    84    92     3     0     0
SMALL
USER_CHARGES
****
Generated from the CSD

@<TRIPOS>ATOM
     1 I1      11.6148   8.9569   5.1857   I         1 RES1   0.0000
     2 I2       6.8433  11.1955   8.2345   I         1 RES1   0.0000
     3 I3       9.6617   6.3470  10.2655   I         1 RES1   0.0000
     4 F1       9.1858  10.8377   6.0667   F         1 RES1   0.0000
     5 F2      11.3430   7.0089   7.6728   F         1 RES1   0.0000
     6 F3       7.5556   8.6356   9.8667   F         1 RES1   0.0000
     7 C1      10.2705   8.9121   6.8067   C.ar      1 RES1   0.0000
     8 C2      10.3515   7.9197   7.7783   C.ar      1 RES1   0.0000
     9 C3       9.4655   7.8058   8.8088   C.ar      1 RES1   0.0000
    10 C4       9.2608   9.8315   6.9629   C.ar      1 RES1   0.0000
    11 C5       8.3304   9.7684   7.9756   C.ar      1 RES1   0.0000
    12 C6       8.4502   8.7504   8.8636   C.ar      1 RES1   0.0000
    13 Fe1      3.3185   6.9973  10.8723   Fe        2 RES2   1.0000
    14 O1       2.0544   7.7219  12.1101   O.3       2 RES2   0.0000
    15 O2       2.2171   5.5748  10.2929   O.3       2 RES2   0.0000
    16 N1       4.3366   5.6456  12.1142   N.2       2 RES2   0.0000
    17 N2       2.7037   8.4552   9.4885   N.2       2 RES2   0.0000
    18 N3       4.8591   8.2003  11.7291   N.ar      2 RES2   0.0000
    19 O3      -2.0767  11.3402  11.9155   O.3       2 RES2   0.0000
    20 N4       4.6615   6.7001   9.2103   N.ar      2 RES2   0.0000
    21 O4       1.4837   0.3057  11.6482   O.3       2 RES2   0.0000
    22 C7       5.4763   6.1608  12.7980   C.ar      2 RES2   0.0000
    23 C8       0.8381   9.3189  10.8041   C.ar      2 RES2   0.0000
    24 C9       1.0640   8.5890  11.9881   C.ar      2 RES2   0.0000
    25 C10      2.9118   3.7240  11.6619   C.ar      2 RES2   0.0000
    26 C11      1.6543   9.2124   9.6461   C.2       2 RES2   0.0000
    27 H1       1.4130   9.7413   8.9194   H         2 RES2   0.0000
    28 C12      4.4837   7.5617   8.1757   C.ar      2 RES2   0.0000
    29 C13      3.9857   4.4127  12.3115   C.2       2 RES2   0.0000
    30 H2       4.4785   3.9293  12.9359   H         2 RES2   0.0000
    31 C14      5.7233   7.5390  12.5650   C.ar      2 RES2   0.0000
    32 C15      2.0597   4.3352  10.6958   C.ar      2 RES2   0.0000
    33 C16     -1.0254  10.4433  11.8606   C.ar      2 RES2   0.0000
    34 C17      3.4455   8.5277   8.2812   C.ar      2 RES2   0.0000
    35 C18      0.2113   8.8065  13.0707   C.ar      2 RES2   0.0000
    36 H3       0.3431   8.3287  13.8583   H         2 RES2   0.0000
    37 C19      2.7230   2.3749  11.9949   C.ar      2 RES2   0.0000
    38 H4       3.2774   1.9792  12.6285   H         2 RES2   0.0000
    39 C20      6.7978   8.2008  13.1885   C.ar      2 RES2   0.0000
    40 C21     -0.2248  10.2582  10.7643   C.ar      2 RES2   0.0000
    41 H5      -0.3782  10.7512   9.9911   H         2 RES2   0.0000
    42 C22      6.3548   5.4660  13.5860   C.ar      2 RES2   0.0000
    43 H6       6.2291   4.5555  13.7267   H         2 RES2   0.0000
    44 C23      5.0474   9.5004  11.5400   C.ar      2 RES2   0.0000
    45 H7       4.4609   9.9540  10.9796   H         2 RES2   0.0000
    46 C24      1.7277   1.6223  11.4016   C.ar      2 RES2   0.0000
    47 C25     -0.8067   9.7016  12.9994   C.ar      2 RES2   0.0000
    48 H8      -1.3670   9.8150  13.7329   H         2 RES2   0.0000
    49 C26      1.0354   3.5428  10.1490   C.ar      2 RES2   0.0000
    50 H9       0.4423   3.9217   9.5404   H         2 RES2   0.0000
    51 C27      5.5931   5.7801   9.1185   C.ar      2 RES2   0.0000
    52 H10      5.7098   5.1868   9.8248   H         2 RES2   0.0000
    53 C28      7.6702   7.4474  13.9957   C.ar      2 RES2   0.0000
    54 H11      8.4008   7.8562  14.4008   H         2 RES2   0.0000
    55 C29      6.9486   9.5787  12.9350   C.ar      2 RES2   0.0000
    56 H12      7.6532  10.0478  13.3203   H         2 RES2   0.0000
    57 C30      7.4411   6.1183  14.1793   C.ar      2 RES2   0.0000
    58 H13      8.0233   5.6300  14.7158   H         2 RES2   0.0000
    59 C31      5.2918   7.5164   7.0109   C.ar      2 RES2   0.0000
    60 C32      3.2765   9.4116   7.2548   C.ar      2 RES2   0.0000
    61 H14      2.6122  10.0590   7.3163   H         2 RES2   0.0000
    62 C33      6.0754  10.2164  12.1388   C.ar      2 RES2   0.0000
    63 H15      6.1591  11.1307  11.9878   H         2 RES2   0.0000
    64 C34      0.8950   2.2365  10.4903   C.ar      2 RES2   0.0000
    65 H16      0.2138   1.7391  10.0971   H         2 RES2   0.0000
    66 C35      6.4156   5.6599   7.9934   C.ar      2 RES2   0.0000
    67 H17      7.0656   4.9958   7.9633   H         2 RES2   0.0000
    68 C36      5.0506   8.4331   5.9899   C.ar      2 RES2   0.0000
    69 H18      5.5639   8.4034   5.2147   H         2 RES2   0.0000
    70 C37      6.2704   6.5027   6.9533   C.ar      2 RES2   0.0000
    71 H19      6.8127   6.4167   6.2018   H         2 RES2   0.0000
    72 C38      4.0805   9.3641   6.1105   C.ar      2 RES2   0.0000
    73 H20      3.9456   9.9800   5.4266   H         2 RES2   0.0000
    74 C39     -2.1752  12.3177  10.8918   C.3       2 RES2   0.0000
    75 H21     -2.3026  11.8820  10.0452   H         2 RES2   0.0000
    76 H22     -1.3670  12.8357  10.8653   H         2 RES2   0.0000
    77 H23     -2.9201  12.8953  11.0696   H         2 RES2   0.0000
    78 C40      2.4227  -0.4066  12.3841   C.3       2 RES2   0.0000
    79 H24      3.2639  -0.4014  11.9202   H         2 RES2   0.0000
    80 H25      2.1242  -1.3127  12.4931   H         2 RES2   0.0000
    81 H26      2.5307   0.0008  13.2462   H         2 RES2   0.0000
    82 S1      13.5711   8.6135   2.6558   S.2       3 RES3  -1.0000
    83 C41     14.3943   9.9590   2.9134   C.1       3 RES3   0.0000
    84 N5      15.0112  10.9590   3.0861   N.1       3 RES3   0.0000
@<TRIPOS>BOND
     1     1     7    1
     2     2    11    1
     3     3     9    1
     4     4    10    1
     5     5     8    1
     6     6    12    1
     7     7     8   ar
     8     8     9   ar
     9     9    12   ar
    10    10     7   ar
    11    11    10   ar
    12    12    11   ar
    13    13    14    1
    14    14    24    1
    15    15    13    1
    16    16    13    1
    17    17    13    1
    18    18    13    1
    19    19    33    1
    20    20    13    1
    21    21    46    1
    22    22    16    1
    23    23    24   ar
    24    24    35   ar
    25    25    29    1
    26    26    17    2
    27    27    26    1
    28    28    20   ar
    29    29    16    2
    30    30    29    1
    31    31    18   ar
    32    32    15    1
    33    33    40   ar
    34    34    17    1
    35    35    36    1
    36    37    25   ar
    37    38    37    1
    38    39    31   ar
    39    40    23   ar
    40    41    40    1
    41    42    22   ar
    42    43    42    1
    43    44    18   ar
    44    45    44    1
    45    46    37   ar
    46    47    33   ar
    47    48    47    1
    48    49    32   ar
    49    50    49    1
    50    51    20   ar
    51    52    51    1
    52    53    39   ar
    53    54    53    1
    54    55    39   ar
    55    56    55    1
    56    57    42   ar
    57    58    57    1
    58    59    28   ar
    59    60    34   ar
    60    61    60    1
    61    62    44   ar
    62    63    62    1
    63    64    46   ar
    64    65    64    1
    65    66    51   ar
    66    67    66    1
    67    68    59   ar
    68    69    68    1
    69    70    59   ar
    70    71    70    1
    71    72    60   ar
    72    73    72    1
    73    74    19    1
    74    75    74    1
    75    76    74    1
    76    77    74    1
    77    78    21    1
    78    79    78    1
    79    80    78    1
    80    81    78    1
    81    22    31   ar
    82    23    26    1
    83    25    32   ar
    84    28    34   ar
    85    35    47   ar
    86    49    64   ar
    87    53    57   ar
    88    55    62   ar
    89    66    70   ar
    90    68    72   ar
    91    82    83    1
    92    83    84    3
@<TRIPOS>SUBSTRUCTURE
     1 RES1        1 GROUP             0 ****  ****    0  
     2 RES2       13 GROUP             0 ****  ****    0  
     3 RES3       82 GROUP             0 ****  ****    0  
@<TRIPOS>CRYSIN
   11.6601   12.8615   14.0508   96.0290  101.1930   90.0960     2     1
