@<TRIPOS>MOLECULE
OPEVUD33
    90    97     4     0     0
SMALL
USER_CHARGES
****
Generated from the CSD

@<TRIPOS>ATOM
     1 I1       0.2029   3.6361   5.3945   I         1 RES1   0.0000
     2 I2       5.0506   1.8664   8.6397   I         1 RES1   0.0000
     3 I3       1.6053   6.3569  10.6235   I         1 RES1   0.0000
     4 F1       3.8782   4.2118  10.3584   F         1 RES1   0.0000
     5 F2       2.7401   1.9620   6.4026   F         1 RES1   0.0000
     6 F3       0.1117   5.5553   7.9284   F         1 RES1   0.0000
     7 C1       3.0849   4.0501   9.3164   C.ar      1 RES1   0.0000
     8 C2       3.3669   3.0633   8.3896   C.ar      1 RES1   0.0000
     9 C3       1.3902   3.7481   7.1268   C.ar      1 RES1   0.0000
    10 C4       1.9770   4.9034   9.1940   C.ar      1 RES1   0.0000
    11 C5       2.4863   2.9198   7.3139   C.ar      1 RES1   0.0000
    12 C6       1.1690   4.7313   8.0817   C.ar      1 RES1   0.0000
    13 Fe1      8.0634   5.6772  11.1069   Fe        2 RES2   1.0000
    14 O1       9.2756   5.1926  12.4621   O.3       2 RES2   0.0000
    15 O2       9.2009   6.9781  10.3963   O.3       2 RES2   0.0000
    16 O3      10.3321  12.0911  12.1513   O.3       2 RES2   0.0000
    17 O4      13.4528   1.5688  12.4495   O.3       2 RES2   0.0000
    18 N1       8.7989   4.4395   9.8001   N.2       2 RES2   0.0000
    19 N2       6.7686   4.3959  11.8743   N.ar      2 RES2   0.0000
    20 N3       6.7628   6.0397   9.6496   N.ar      2 RES2   0.0000
    21 N4       7.2313   6.8956  12.3777   N.2       2 RES2   0.0000
    22 C7       6.1007   6.3494  13.0415   C.ar      2 RES2   0.0000
    23 C8       8.1285   4.4436   8.5500   C.ar      2 RES2   0.0000
    24 C9       9.8442   3.6846   9.9815   C.2       2 RES2   0.0000
    25 H1      10.1384   3.1623   9.2445   H         2 RES2   0.0000
    26 C10      7.0175   5.3278   8.5021   C.ar      2 RES2   0.0000
    27 C11     11.6514   2.6450  11.2035   C.ar      2 RES2   0.0000
    28 H2      11.8471   2.1497  10.4176   H         2 RES2   0.0000
    29 C12     10.2537   4.3204  12.3595   C.ar      2 RES2   0.0000
    30 C13      9.4567   8.1594  10.9293   C.ar      2 RES2   0.0000
    31 C14     12.4040   2.4516  12.3341   C.ar      2 RES2   0.0000
    32 C15      5.9014   4.9802  12.7729   C.ar      2 RES2   0.0000
    33 C16     10.5820   3.5796  11.1979   C.ar      2 RES2   0.0000
    34 C17      7.6868   8.0694  12.6871   C.2       2 RES2   0.0000
    35 H3       7.2720   8.5248  13.4103   H         2 RES2   0.0000
    36 C18     11.0661   4.0885  13.5070   C.ar      2 RES2   0.0000
    37 H4      10.8860   4.5686  14.3075   H         2 RES2   0.0000
    38 C19      9.0585  10.0434  12.4734   C.ar      2 RES2   0.0000
    39 H5       8.5944  10.4090  13.2175   H         2 RES2   0.0000
    40 C20      8.7545   8.7236  12.0262   C.ar      2 RES2   0.0000
    41 C21     12.1047   3.1914  13.4845   C.ar      2 RES2   0.0000
    42 H6      12.6304   3.0685  14.2667   H         2 RES2   0.0000
    43 C22     10.7363  10.2245  10.7774   C.ar      2 RES2   0.0000
    44 H7      11.4230  10.7300  10.3586   H         2 RES2   0.0000
    45 C23      3.9913   4.9594  14.2691   C.ar      2 RES2   0.0000
    46 H8       3.2804   4.5023  14.7027   H         2 RES2   0.0000
    47 C24      6.2452   5.4544   7.3406   C.ar      2 RES2   0.0000
    48 C25     10.0164  10.7889  11.8363   C.ar      2 RES2   0.0000
    49 C26      5.2226   7.0212  13.8712   C.ar      2 RES2   0.0000
    50 H9       5.3260   7.9516  14.0309   H         2 RES2   0.0000
    51 C27     10.4669   8.9511  10.3303   C.ar      2 RES2   0.0000
    52 H10     10.9678   8.5968   9.6048   H         2 RES2   0.0000
    53 C28      5.7286   6.8843   9.6468   C.ar      2 RES2   0.0000
    54 H11      5.5346   7.3800  10.4344   H         2 RES2   0.0000
    55 C29      6.6494   3.0981  11.6324   C.ar      2 RES2   0.0000
    56 H12      7.2376   2.6906  11.0076   H         2 RES2   0.0000
    57 C30      8.4288   3.6991   7.4292   C.ar      2 RES2   0.0000
    58 H13      9.1637   3.0978   7.4467   H         2 RES2   0.0000
    59 C31      6.5878   4.6903   6.2114   C.ar      2 RES2   0.0000
    60 H14      6.0822   4.7719   5.4114   H         2 RES2   0.0000
    61 C32      4.8676   4.2531  13.4057   C.ar      2 RES2   0.0000
    62 C33      5.6759   2.3003  12.2723   C.ar      2 RES2   0.0000
    63 H15      5.6405   1.3674  12.0990   H         2 RES2   0.0000
    64 C34      4.9192   7.0620   8.5092   C.ar      2 RES2   0.0000
    65 H16      4.1952   7.6760   8.5375   H         2 RES2   0.0000
    66 C35      7.6611   3.8207   6.2676   C.ar      2 RES2   0.0000
    67 H17      7.8810   3.2979   5.5058   H         2 RES2   0.0000
    68 C36      4.1699   6.3053  14.4773   C.ar      2 RES2   0.0000
    69 H18      3.5663   6.7679  15.0461   H         2 RES2   0.0000
    70 C37      5.1625   6.3694   7.3800   C.ar      2 RES2   0.0000
    71 H19      4.6121   6.4927   6.6146   H         2 RES2   0.0000
    72 C38      4.7860   2.8650  13.1371   C.ar      2 RES2   0.0000
    73 H20      4.1186   2.3337  13.5555   H         2 RES2   0.0000
    74 C39      9.3616  12.8054  12.9149   C.3       2 RES2   0.0000
    75 H21      8.4806  12.7110  12.4966   H         2 RES2   0.0000
    76 H22      9.6067  13.7541  12.9494   H         2 RES2   0.0000
    77 H23      9.3310  12.4438  13.8257   H         2 RES2   0.0000
    78 C40     13.6821   0.7122  11.3498   C.3       2 RES2   0.0000
    79 H24     13.9517   1.2442  10.5722   H         2 RES2   0.0000
    80 H25     12.8598   0.2217  11.1408   H         2 RES2   0.0000
    81 H26     14.3936   0.0769  11.5739   H         2 RES2   0.0000
    82 S1       4.1756  -2.8177  11.4153   S.2       3 RES3  -1.0000
    83 C41      5.3417  -1.7293  11.1684   C.1       3 RES3   0.0000
    84 N5       6.1882  -0.9485  11.0348   N.1       3 RES3   0.0000
    85 O5       7.7069   0.8623   9.6173   O.3       4 RES4   0.0000
    86 H27      7.1239   0.8245   9.0132   H         4 RES4   0.0000
    87 C42      8.9038   0.3234   9.1434   C.3       4 RES4   0.0000
    88 H28      9.1053   0.7019   8.2619   H         4 RES4   0.0000
    89 H29      8.8169  -0.6497   9.0689   H         4 RES4   0.0000
    90 H30      9.6284   0.5407   9.7657   H         4 RES4   0.0000
@<TRIPOS>BOND
     1     1     9    1
     2     2     8    1
     3     3    10    1
     4     4     7    1
     5     5    11    1
     6     6    12    1
     7     7     8   ar
     8     8    11   ar
     9     9    11   ar
    10    10     7   ar
    11    12     9   ar
    12    10    12   ar
    13    13    14    1
    14    14    29    1
    15    15    13    1
    16    16    48    1
    17    17    31    1
    18    18    13    1
    19    19    13    1
    20    20    13    1
    21    21    13    1
    22    22    21    1
    23    23    18    1
    24    24    18    2
    25    25    24    1
    26    26    20   ar
    27    27    28    1
    28    29    33   ar
    29    30    15    1
    30    31    27   ar
    31    32    19   ar
    32    33    24    1
    33    34    21    2
    34    35    34    1
    35    36    29   ar
    36    37    36    1
    37    38    39    1
    38    40    30   ar
    39    41    31   ar
    40    42    41    1
    41    43    44    1
    42    45    46    1
    43    47    26   ar
    44    48    38   ar
    45    49    22   ar
    46    50    49    1
    47    51    30   ar
    48    52    51    1
    49    53    20   ar
    50    54    53    1
    51    55    19   ar
    52    56    55    1
    53    57    23   ar
    54    58    57    1
    55    59    47   ar
    56    60    59    1
    57    61    32   ar
    58    62    55   ar
    59    63    62    1
    60    64    53   ar
    61    65    64    1
    62    66    57   ar
    63    67    66    1
    64    68    45   ar
    65    69    68    1
    66    70    47   ar
    67    71    70    1
    68    72    61   ar
    69    73    72    1
    70    74    16    1
    71    75    74    1
    72    76    74    1
    73    77    74    1
    74    78    17    1
    75    79    78    1
    76    80    78    1
    77    81    78    1
    78    22    32   ar
    79    23    26   ar
    80    27    33   ar
    81    34    40    1
    82    36    41   ar
    83    38    40   ar
    84    43    48   ar
    85    43    51   ar
    86    45    61   ar
    87    49    68   ar
    88    59    66   ar
    89    62    72   ar
    90    64    70   ar
    91    82    83    1
    92    83    84    3
    93    85    86    1
    94    87    85    1
    95    88    87    1
    96    89    87    1
    97    90    87    1
@<TRIPOS>SUBSTRUCTURE
     1 RES1        1 GROUP             0 ****  ****    0  
     2 RES2       13 GROUP             0 ****  ****    0  
     3 RES3       82 GROUP             0 ****  ****    0  
     4 RES4       85 GROUP             0 ****  ****    0  
@<TRIPOS>CRYSIN
   11.5498   12.5349   14.3805   84.6690   79.1990   89.9970     2     1
