@<TRIPOS>MOLECULE
OPEVUD36
    90    97     4     0     0
SMALL
USER_CHARGES
****
Generated from the CSD

@<TRIPOS>ATOM
     1 I1       6.5128  10.6697   8.6556   I         1 RES1   0.0000
     2 I2      11.3477   8.8991   5.3957   I         1 RES1   0.0000
     3 I3       9.9617   6.1770  10.6280   I         1 RES1   0.0000
     4 F1       7.6928   8.3236  10.3709   F         1 RES1   0.0000
     5 F2      11.4434   6.9811   7.9263   F         1 RES1   0.0000
     6 F3       8.8109  10.5697   6.4106   F         1 RES1   0.0000
     7 C1       8.4800   8.4763   9.3266   C.ar      1 RES1   0.0000
     8 C2       8.1926   9.4707   8.4076   C.ar      1 RES1   0.0000
     9 C3      10.1588   8.7844   7.1325   C.ar      1 RES1   0.0000
    10 C4       9.0638   9.6098   7.3225   C.ar      1 RES1   0.0000
    11 C5       9.5803   7.6348   9.1999   C.ar      1 RES1   0.0000
    12 C6      10.3864   7.7992   8.0867   C.ar      1 RES1   0.0000
    13 Fe1      3.4899   6.8558  11.1204   Fe        2 RES2   1.0000
    14 O1       2.3608   5.5518  10.4103   O.3       2 RES2   0.0000
    15 O2       2.2767   7.3412  12.4749   O.3       2 RES2   0.0000
    16 O3       1.2406   0.4335  12.1554   O.3       2 RES2   0.0000
    17 O4      -1.8966  10.9776  12.4650   O.3       2 RES2   0.0000
    18 N1       4.7893   8.1414  11.8922   N.ar      2 RES2   0.0000
    19 N2       2.7588   8.0971   9.8122   N.2       2 RES2   0.0000
    20 N3       4.7955   6.4998   9.6602   N.ar      2 RES2   0.0000
    21 N4       4.3272   5.6345  12.3904   N.2       2 RES2   0.0000
    22 C7       5.4597   6.1785  13.0533   C.ar      2 RES2   0.0000
    23 C8       3.4216   8.0934   8.5540   C.ar      2 RES2   0.0000
    24 C9       1.7110   8.8546   9.9909   C.2       2 RES2   0.0000
    25 H1       1.4123   9.3721   9.2513   H         2 RES2   0.0000
    26 C10     -0.0965   9.8923  11.2139   C.ar      2 RES2   0.0000
    27 H2      -0.2978  10.3855  10.4266   H         2 RES2   0.0000
    28 C11      5.6535   7.5613  12.7845   C.ar      2 RES2   0.0000
    29 C12      4.5347   7.2175   8.5117   C.ar      2 RES2   0.0000
    30 C13      1.2981   8.2162  12.3693   C.ar      2 RES2   0.0000
    31 C14      0.9805   8.9650  11.2097   C.ar      2 RES2   0.0000
    32 C15      2.1066   4.3648  10.9409   C.ar      2 RES2   0.0000
    33 C16      3.8771   4.4637  12.7001   C.2       2 RES2   0.0000
    34 H3       4.2905   4.0091  13.4252   H         2 RES2   0.0000
    35 C17      5.8312   5.6575   9.6602   C.ar      2 RES2   0.0000
    36 H4       6.0271   5.1650  10.4484   H         2 RES2   0.0000
    37 C18      2.5016   2.4838  12.4791   C.ar      2 RES2   0.0000
    38 H5       2.9615   2.1205  13.2271   H         2 RES2   0.0000
    39 C19      0.4840   8.4483  13.5234   C.ar      2 RES2   0.0000
    40 H6       0.6648   7.9694  14.3236   H         2 RES2   0.0000
    41 C20      6.3366   5.5151  13.8851   C.ar      2 RES2   0.0000
    42 H7       6.2312   4.5846  14.0480   H         2 RES2   0.0000
    43 C21      1.0934   3.5753  10.3371   C.ar      2 RES2   0.0000
    44 H8       0.5887   3.9313   9.6162   H         2 RES2   0.0000
    45 C22      2.8032   3.8033  12.0330   C.ar      2 RES2   0.0000
    46 C23     -0.8462  10.0814  12.3454   C.ar      2 RES2   0.0000
    47 C24      5.3092   7.0848   7.3408   C.ar      2 RES2   0.0000
    48 C25      1.5555   1.7405  11.8388   C.ar      2 RES2   0.0000
    49 C26      4.9110   9.4425  11.6502   C.ar      2 RES2   0.0000
    50 H9       4.3237   9.8508  11.0253   H         2 RES2   0.0000
    51 C27      0.8332   2.3022  10.7846   C.ar      2 RES2   0.0000
    52 H10      0.1482   1.7938  10.3666   H         2 RES2   0.0000
    53 C28      7.5601   7.5745  14.2848   C.ar      2 RES2   0.0000
    54 H11      8.2655   8.0338  14.7259   H         2 RES2   0.0000
    55 C29      3.1178   8.8325   7.4436   C.ar      2 RES2   0.0000
    56 H12      2.3817   9.4335   7.4624   H         2 RES2   0.0000
    57 C30      6.6922   8.2802  13.4178   C.ar      2 RES2   0.0000
    58 C31     -0.5489   9.3460  13.4966   C.ar      2 RES2   0.0000
    59 H13     -1.0752   9.4721  14.2775   H         2 RES2   0.0000
    60 C32      3.8857   8.7082   6.2769   C.ar      2 RES2   0.0000
    61 H14      3.6617   9.2268   5.5134   H         2 RES2   0.0000
    62 C33      5.8816  10.2324  12.2891   C.ar      2 RES2   0.0000
    63 H15      5.9163  11.1661  12.1202   H         2 RES2   0.0000
    64 C34      7.3862   6.2253  14.4916   C.ar      2 RES2   0.0000
    65 H16      7.9912   5.7626  15.0586   H         2 RES2   0.0000
    66 C35      4.9610   7.8462   6.2206   C.ar      2 RES2   0.0000
    67 H17      5.4656   7.7686   5.4199   H         2 RES2   0.0000
    68 C36      6.3951   6.1685   7.3929   C.ar      2 RES2   0.0000
    69 H18      6.9478   6.0418   6.6316   H         2 RES2   0.0000
    70 C37      6.6369   5.4812   8.5258   C.ar      2 RES2   0.0000
    71 H19      7.3636   4.8696   8.5562   H         2 RES2   0.0000
    72 C38      2.2110  -0.2813  12.9210   C.3       2 RES2   0.0000
    73 H20      3.0952  -0.1698  12.5133   H         2 RES2   0.0000
    74 H21      1.9771  -1.2331  12.9378   H         2 RES2   0.0000
    75 H22      2.2265   0.0675  13.8362   H         2 RES2   0.0000
    76 C39      6.7718   9.6694  13.1476   C.ar      2 RES2   0.0000
    77 H23      7.4396  10.2009  13.5639   H         2 RES2   0.0000
    78 C40     -2.1280  11.8340  11.3617   C.3       2 RES2   0.0000
    79 H24     -2.3803  11.2984  10.5804   H         2 RES2   0.0000
    80 H25     -1.3126  12.3385  11.1629   H         2 RES2   0.0000
    81 H26     -2.8535  12.4561  11.5788   H         2 RES2   0.0000
    82 S1       7.3740  15.3677  11.4274   S.2       3 RES3  -1.0000
    83 C41      6.2190  14.2684  11.1745   C.1       3 RES3   0.0000
    84 N5       5.3821  13.4923  11.0337   N.1       3 RES3   0.0000
    85 O5       3.8536  11.6687   9.6278   O.3       4 RES4   0.0000
    86 H27      4.3221  12.2762   9.9698   H         4 RES4   0.0000
    87 C42      2.6700  12.2183   9.1324   C.3       4 RES4   0.0000
    88 H28      2.4799  11.8404   8.2478   H         4 RES4   0.0000
    89 H29      2.7670  13.1905   9.0576   H         4 RES4   0.0000
    90 H30      1.9315  12.0095   9.7417   H         4 RES4   0.0000
@<TRIPOS>BOND
     1     1     8    1
     2     2     9    1
     3     3    11    1
     4     4     7    1
     5     5    12    1
     6     6    10    1
     7     7     8   ar
     8     8    10   ar
     9     9    10   ar
    10    11     7   ar
    11    12     9   ar
    12    11    12   ar
    13    13    14    1
    14    14    32    1
    15    15    13    1
    16    16    48    1
    17    17    46    1
    18    18    13    1
    19    19    13    1
    20    20    13    1
    21    21    13    1
    22    22    21    1
    23    23    19    1
    24    24    19    2
    25    25    24    1
    26    26    27    1
    27    28    18   ar
    28    29    20   ar
    29    30    15    1
    30    31    24    1
    31    32    43   ar
    32    33    21    2
    33    34    33    1
    34    35    20   ar
    35    36    35    1
    36    37    38    1
    37    39    30   ar
    38    40    39    1
    39    41    22   ar
    40    42    41    1
    41    43    44    1
    42    45    32   ar
    43    46    26   ar
    44    47    29   ar
    45    48    37   ar
    46    49    18   ar
    47    50    49    1
    48    51    43   ar
    49    52    51    1
    50    53    54    1
    51    55    23   ar
    52    56    55    1
    53    57    28   ar
    54    58    39   ar
    55    59    58    1
    56    60    55   ar
    57    61    60    1
    58    62    49   ar
    59    63    62    1
    60    64    41   ar
    61    65    64    1
    62    66    47   ar
    63    67    66    1
    64    68    47   ar
    65    69    68    1
    66    70    35   ar
    67    71    70    1
    68    72    16    1
    69    73    72    1
    70    74    72    1
    71    75    72    1
    72    76    57   ar
    73    77    76    1
    74    78    17    1
    75    79    78    1
    76    80    78    1
    77    81    78    1
    78    22    28   ar
    79    23    29   ar
    80    26    31   ar
    81    30    31   ar
    82    33    45    1
    83    37    45   ar
    84    46    58   ar
    85    48    51   ar
    86    53    57   ar
    87    53    64   ar
    88    60    66   ar
    89    62    76   ar
    90    68    70   ar
    91    82    83    1
    92    83    84    3
    93    85    86    1
    94    87    85    1
    95    88    87    1
    96    89    87    1
    97    90    87    1
@<TRIPOS>SUBSTRUCTURE
     1 RES1        1 GROUP             0 ****  ****    0  
     2 RES2       13 GROUP             0 ****  ****    0  
     3 RES3       82 GROUP             0 ****  ****    0  
     4 RES4       85 GROUP             0 ****  ****    0  
@<TRIPOS>CRYSIN
   11.5534   12.5534   14.3906   95.3700  100.7490   90.0330     2     1
