@<TRIPOS>MOLECULE
OPEVIR04
    84    92     3     0     0
SMALL
USER_CHARGES
****
Generated from the CSD

@<TRIPOS>ATOM
     1 I1       0.2356   3.6123   5.2205   I         1 RES1   0.0000
     2 I2       5.2051   1.7111   8.1916   I         1 RES1   0.0000
     3 I3       2.2461   6.5533  10.0976   I         1 RES1   0.0000
     4 F1       2.7858   1.8704   6.0956   F         1 RES1   0.0000
     5 F2       0.5171   5.7054   7.5779   F         1 RES1   0.0000
     6 F3       4.4398   4.3253   9.7284   F         1 RES1   0.0000
     7 C1       2.6925   2.9150   6.9353   C.ar      1 RES1   0.0000
     8 C2       1.6308   3.8023   6.7834   C.ar      1 RES1   0.0000
     9 C3       3.6601   3.0806   7.9128   C.ar      1 RES1   0.0000
    10 C4       1.5498   4.8428   7.6891   C.ar      1 RES1   0.0000
    11 C5       2.4687   5.0466   8.6952   C.ar      1 RES1   0.0000
    12 C6       3.5195   4.1525   8.7725   C.ar      1 RES1   0.0000
    13 Fe1      8.5684   5.8463  10.7057   Fe        2 RES2   1.0000
    14 O1       9.7631   7.0902   9.9785   O.3       2 RES2   0.0000
    15 O2       9.7806   5.3366  12.0436   O.3       2 RES2   0.0000
    16 O3      14.1388   1.9609  11.8679   O.3       2 RES2   0.0000
    17 N1       9.2327   4.5348   9.4233   N.2       2 RES2   0.0000
    18 N2       7.1991   4.6303  11.4937   N.ar      2 RES2   0.0000
    19 N3       7.7671   7.1156  11.9344   N.2       2 RES2   0.0000
    20 N4       7.2717   6.2262   9.2470   N.ar      2 RES2   0.0000
    21 O4      10.9175  12.2614  11.4828   O.3       2 RES2   0.0000
    22 C7      10.3126   3.8402   9.5616   C.2       2 RES2   0.0000
    23 H1      10.5801   3.3054   8.8358   H         2 RES2   0.0000
    24 C8       9.3174   8.9182  11.5181   C.ar      2 RES2   0.0000
    25 C9       6.6043   6.6379  12.6082   C.ar      2 RES2   0.0000
    26 C10      7.4216   5.3924   8.1732   C.ar      2 RES2   0.0000
    27 C11      8.2312   8.3001  12.1987   C.2       2 RES2   0.0000
    28 H2       7.8197   8.7847  12.8915   H         2 RES2   0.0000
    29 C12      6.3539   5.2689  12.3628   C.ar      2 RES2   0.0000
    30 C13     10.8219   4.5491  11.8937   C.ar      2 RES2   0.0000
    31 C14     12.2435   2.9364  10.6897   C.ar      2 RES2   0.0000
    32 H3      12.4248   2.4410   9.9116   H         2 RES2   0.0000
    33 C15     10.0357   8.2793  10.4687   C.ar      2 RES2   0.0000
    34 C16      8.4574   4.4443   8.2342   C.ar      2 RES2   0.0000
    35 C17     11.6940   4.3873  12.9960   C.ar      2 RES2   0.0000
    36 H4      11.5263   4.8645  13.7881   H         2 RES2   0.0000
    37 C18     10.6045  10.9495  11.2293   C.ar      2 RES2   0.0000
    38 C19      5.2743   4.6065  12.9960   C.ar      2 RES2   0.0000
    39 C20     11.1274   3.8219  10.7222   C.ar      2 RES2   0.0000
    40 C21      9.6130  10.2415  11.8937   C.ar      2 RES2   0.0000
    41 H5       9.1377  10.6467  12.5955   H         2 RES2   0.0000
    42 C22     13.0536   2.8051  11.7879   C.ar      2 RES2   0.0000
    43 C23      7.0189   3.3331  11.2781   C.ar      2 RES2   0.0000
    44 H6       7.5952   2.8880  10.6832   H         2 RES2   0.0000
    45 C24      6.5797   5.4656   7.0261   C.ar      2 RES2   0.0000
    46 C25      6.3269   7.1578   9.2023   C.ar      2 RES2   0.0000
    47 H7       6.2203   7.7367   9.9347   H         2 RES2   0.0000
    48 C26     12.7713   3.5527  12.9350   C.ar      2 RES2   0.0000
    49 H8      13.3375   3.4794  13.6812   H         2 RES2   0.0000
    50 C27      8.6267   3.5508   7.2078   C.ar      2 RES2   0.0000
    51 H9       9.3045   2.9016   7.2577   H         2 RES2   0.0000
    52 C28     11.0850   9.0111   9.8653   C.ar      2 RES2   0.0000
    53 H10     11.6107   8.6034   9.2012   H         2 RES2   0.0000
    54 C29      4.4204   5.3719  13.8299   C.ar      2 RES2   0.0000
    55 H11      3.6911   4.9625  14.2585   H         2 RES2   0.0000
    56 C30      7.7936   3.6060   6.0851   C.ar      2 RES2   0.0000
    57 H12      7.9151   2.9886   5.3864   H         2 RES2   0.0000
    58 C31     11.3456  10.3026  10.2341   C.ar      2 RES2   0.0000
    59 H13     12.0424  10.7684   9.8085   H         2 RES2   0.0000
    60 C32      5.7496   7.3479  13.4150   C.ar      2 RES2   0.0000
    61 H14      5.8942   8.2639  13.5686   H         2 RES2   0.0000
    62 C33      5.1355   3.2283  12.7370   C.ar      2 RES2   0.0000
    63 H15      4.4408   2.7425  13.1440   H         2 RES2   0.0000
    64 C34      5.4799   7.3005   8.0864   C.ar      2 RES2   0.0000
    65 H16      4.8277   7.9777   8.0832   H         2 RES2   0.0000
    66 C35      6.0000   2.6007  11.9059   C.ar      2 RES2   0.0000
    67 H17      5.9183   1.6778  11.7497   H         2 RES2   0.0000
    68 C36      6.8066   4.5460   5.9889   C.ar      2 RES2   0.0000
    69 H18      6.2703   4.5765   5.2179   H         2 RES2   0.0000
    70 C37      5.5944   6.4760   7.0180   C.ar      2 RES2   0.0000
    71 H19      5.0227   6.5762   6.2792   H         2 RES2   0.0000
    72 C38      4.6583   6.6975  14.0061   C.ar      2 RES2   0.0000
    73 H20      4.0708   7.1955  14.5444   H         2 RES2   0.0000
    74 C39     14.2439   0.9636  10.8727   C.3       2 RES2   0.0000
    75 H21     14.3477   1.3840  10.0043   H         2 RES2   0.0000
    76 H22     13.4411   0.4192  10.8740   H         2 RES2   0.0000
    77 H23     15.0146   0.4043  11.0553   H         2 RES2   0.0000
    78 C40      9.9926  12.9980  12.2652   C.3       2 RES2   0.0000
    79 H24      9.1197  12.9735  11.8431   H         2 RES2   0.0000
    80 H25     10.2909  13.9183  12.3377   H         2 RES2   0.0000
    81 H26      9.9344  12.6066  13.1510   H         2 RES2   0.0000
    82 S1      -1.7358   3.9524   2.6570   S.2       3 RES3  -1.0000
    83 C41     -2.8616   2.7893   2.9300   C.1       3 RES3   0.0000
    84 N5      -3.6779   1.9787   3.1212   N.1       3 RES3   0.0000
@<TRIPOS>BOND
     1     1     8    1
     2     2     9    1
     3     3    11    1
     4     4     7    1
     5     5    10    1
     6     6    12    1
     7     7     8   ar
     8     8    10   ar
     9     9     7   ar
    10    10    11   ar
    11    11    12   ar
    12    12     9   ar
    13    13    14    1
    14    14    33    1
    15    15    13    1
    16    16    42    1
    17    17    13    1
    18    18    13    1
    19    19    13    1
    20    20    13    1
    21    21    37    1
    22    22    17    2
    23    23    22    1
    24    24    27    1
    25    25    19    1
    26    26    20   ar
    27    27    19    2
    28    28    27    1
    29    29    18   ar
    30    30    15    1
    31    31    32    1
    32    33    24   ar
    33    34    17    1
    34    35    30   ar
    35    36    35    1
    36    37    40   ar
    37    38    29   ar
    38    39    22    1
    39    40    24   ar
    40    41    40    1
    41    42    31   ar
    42    43    18   ar
    43    44    43    1
    44    45    26   ar
    45    46    20   ar
    46    47    46    1
    47    48    35   ar
    48    49    48    1
    49    50    34   ar
    50    51    50    1
    51    52    33   ar
    52    53    52    1
    53    54    38   ar
    54    55    54    1
    55    56    50   ar
    56    57    56    1
    57    58    37   ar
    58    59    58    1
    59    60    25   ar
    60    61    60    1
    61    62    38   ar
    62    63    62    1
    63    64    46   ar
    64    65    64    1
    65    66    43   ar
    66    67    66    1
    67    68    45   ar
    68    69    68    1
    69    70    45   ar
    70    71    70    1
    71    72    54   ar
    72    73    72    1
    73    74    16    1
    74    75    74    1
    75    76    74    1
    76    77    74    1
    77    78    21    1
    78    79    78    1
    79    80    78    1
    80    81    78    1
    81    25    29   ar
    82    26    34   ar
    83    30    39   ar
    84    31    39   ar
    85    42    48   ar
    86    52    58   ar
    87    56    68   ar
    88    60    72   ar
    89    62    66   ar
    90    64    70   ar
    91    82    83    1
    92    83    84    3
@<TRIPOS>SUBSTRUCTURE
     1 RES1        1 GROUP             0 ****  ****    0  
     2 RES2       13 GROUP             0 ****  ****    0  
     3 RES3       82 GROUP             0 ****  ****    0  
@<TRIPOS>CRYSIN
   11.8276   12.3812   14.0032   82.8910   77.3690   89.2990     2     1
