@<TRIPOS>MOLECULE
OPEVUD12
    90    97     4     0     0
SMALL
USER_CHARGES
****
Generated from the CSD

@<TRIPOS>ATOM
     1 I1      11.1845   9.0057   5.2847   I         1 RES1   0.0000
     2 I2       6.4898  10.8329   8.7128   I         1 RES1   0.0000
     3 I3      10.0003   6.3657  10.5971   I         1 RES1   0.0000
     4 F1       7.7462   8.5397  10.4330   F         1 RES1   0.0000
     5 F2      11.3567   7.1170   7.8311   F         1 RES1   0.0000
     6 F3       8.6694  10.6577   6.3566   F         1 RES1   0.0000
     7 C1       8.1419   9.6311   8.4153   C.ar      1 RES1   0.0000
     8 C2       8.4947   8.6755   9.3310   C.ar      1 RES1   0.0000
     9 C3       9.5764   7.7957   9.1702   C.ar      1 RES1   0.0000
    10 C4      10.0513   8.9044   7.0494   C.ar      1 RES1   0.0000
    11 C5      10.3228   7.9350   8.0216   C.ar      1 RES1   0.0000
    12 C6       8.9542   9.7212   7.2766   C.ar      1 RES1   0.0000
    13 Fe1      3.3762   7.0098  11.2086   Fe        2 RES2   1.0000
    14 O1       2.3663   5.5358  10.5967   O.3       2 RES2   0.0000
    15 O2       2.0890   7.6796  12.4451   O.3       2 RES2   0.0000
    16 N1       2.6819   8.4028   9.7966   N.2       2 RES2   0.0000
    17 N2       4.4074   5.7068  12.4931   N.2       2 RES2   0.0000
    18 O3      -1.8353  11.5532  12.3901   O.3       2 RES2   0.0000
    19 N3       4.8506   8.2753  12.0684   N.ar      2 RES2   0.0000
    20 O4       1.5905   0.3290  12.1897   O.3       2 RES2   0.0000
    21 N4       4.7436   6.7690   9.5681   N.ar      2 RES2   0.0000
    22 C7       4.4370   7.4986   8.4576   C.ar      2 RES2   0.0000
    23 C8       0.9590   9.4032  11.2133   C.ar      2 RES2   0.0000
    24 C9       5.5250   6.2599  13.1746   C.ar      2 RES2   0.0000
    25 C10      3.3383   8.3815   8.5394   C.ar      2 RES2   0.0000
    26 C11      5.7106   7.6672  12.9136   C.ar      2 RES2   0.0000
    27 C12      1.7163   9.2463  10.0182   C.2       2 RES2   0.0000
    28 H1       1.4952   9.8117   9.3141   H         2 RES2   0.0000
    29 C13      2.9982   3.7646  12.0853   C.ar      2 RES2   0.0000
    30 C14      1.1800   8.6377  12.3675   C.ar      2 RES2   0.0000
    31 C15      2.2096   4.3073  11.0553   C.ar      2 RES2   0.0000
    32 C16     -0.8214  10.6241  12.3012   C.ar      2 RES2   0.0000
    33 C17      4.0588   4.4717  12.7400   C.2       2 RES2   0.0000
    34 H2       4.5378   4.0140  13.3924   H         2 RES2   0.0000
    35 C18      6.7760   8.3576  13.5542   C.ar      2 RES2   0.0000
    36 C19     -0.0538  10.3968  11.2077   C.ar      2 RES2   0.0000
    37 H3      -0.1939  10.9010  10.4386   H         2 RES2   0.0000
    38 C20      5.2002   7.3800   7.2455   C.ar      2 RES2   0.0000
    39 C21      7.6399   7.6475  14.3895   C.ar      2 RES2   0.0000
    40 H4       8.3406   8.0937  14.8090   H         2 RES2   0.0000
    41 C22      5.7779   5.9439   9.5328   C.ar      2 RES2   0.0000
    42 H5       5.9884   5.4489  10.2912   H         2 RES2   0.0000
    43 C23      6.4082   5.6096  13.9873   C.ar      2 RES2   0.0000
    44 H6       6.3092   4.6980  14.1397   H         2 RES2   0.0000
    45 C24      2.9797   9.1093   7.4205   C.ar      2 RES2   0.0000
    46 H7       2.2438   9.6774   7.4530   H         2 RES2   0.0000
    47 C25      2.8091   2.4122  12.4945   C.ar      2 RES2   0.0000
    48 H8       3.3335   2.0544  13.1742   H         2 RES2   0.0000
    49 C26      4.9840   9.5770  11.8454   C.ar      2 RES2   0.0000
    50 H9       4.3882   9.9965  11.2670   H         2 RES2   0.0000
    51 C27      6.8787   9.7466  13.2804   C.ar      2 RES2   0.0000
    52 H10      7.5577  10.2473  13.6717   H         2 RES2   0.0000
    53 C28      1.8501   1.6376  11.8878   C.ar      2 RES2   0.0000
    54 C29      1.2261   3.4896  10.4739   C.ar      2 RES2   0.0000
    55 H11      0.6862   3.8302   9.7983   H         2 RES2   0.0000
    56 C30      0.3597   8.9073  13.4935   C.ar      2 RES2   0.0000
    57 H12      0.4763   8.4092  14.2700   H         2 RES2   0.0000
    58 C31      1.0531   2.1950  10.8916   C.ar      2 RES2   0.0000
    59 H13      0.3868   1.6765  10.5004   H         2 RES2   0.0000
    60 C32      5.9897  10.3425  12.4522   C.ar      2 RES2   0.0000
    61 H14      6.0458  11.2553  12.2868   H         2 RES2   0.0000
    62 C33      3.7295   8.9915   6.2268   C.ar      2 RES2   0.0000
    63 H15      3.4772   9.4847   5.4799   H         2 RES2   0.0000
    64 C34     -0.5967   9.8811  13.4653   C.ar      2 RES2   0.0000
    65 H16     -1.1026  10.0520  14.2264   H         2 RES2   0.0000
    66 C35      7.4740   6.3135  14.5983   C.ar      2 RES2   0.0000
    67 H17      8.0680   5.8571  15.1490   H         2 RES2   0.0000
    68 C36      4.7946   8.1862   6.1506   C.ar      2 RES2   0.0000
    69 H18      5.2812   8.1535   5.3589   H         2 RES2   0.0000
    70 C37      6.2792   6.5122   7.2568   C.ar      2 RES2   0.0000
    71 H19      6.8061   6.4208   6.4952   H         2 RES2   0.0000
    72 C38      6.5741   5.7942   8.3687   C.ar      2 RES2   0.0000
    73 H20      7.2948   5.2070   8.3688   H         2 RES2   0.0000
    74 C39      2.5573  -0.3739  12.9686   C.3       2 RES2   0.0000
    75 H21      3.3824  -0.4289  12.4813   H         2 RES2   0.0000
    76 H22      2.2358  -1.2588  13.1552   H         2 RES2   0.0000
    77 H23      2.7041   0.0939  13.7943   H         2 RES2   0.0000
    78 C40     -2.0529  12.3719  11.2994   C.3       2 RES2   0.0000
    79 H24     -2.3048  11.8366  10.5435   H         2 RES2   0.0000
    80 H25     -1.2484  12.8542  11.0970   H         2 RES2   0.0000
    81 H26     -2.7567  12.9925  11.5012   H         2 RES2   0.0000
    82 S1       7.0458  15.9632  11.4760   S.2       3 RES3  -1.0000
    83 C41      6.1515  14.6319  11.2091   C.1       3 RES3   0.0000
    84 N5       5.5390  13.6884  11.0595   N.1       3 RES3   0.0000
    85 O5       3.8511  11.8783   9.7473   O.3       4 RES4   0.0000
    86 H27      4.1301  12.3632  10.3467   H         4 RES4   0.0000
    87 C42      2.9400  12.5627   8.9952   C.3       4 RES4   0.0000
    88 H28      2.9436  12.2212   8.0985   H         4 RES4   0.0000
    89 H29      3.1706  13.4950   8.9838   H         4 RES4   0.0000
    90 H30      2.0653  12.4547   9.3759   H         4 RES4   0.0000
@<TRIPOS>BOND
     1     1    10    1
     2     2     7    1
     3     3     9    1
     4     4     8    1
     5     5    11    1
     6     6    12    1
     7     7     8   ar
     8     8     9   ar
     9     9    11   ar
    10    10    11   ar
    11    12     7   ar
    12    10    12   ar
    13    13    14    1
    14    14    31    1
    15    15    13    1
    16    16    13    1
    17    17    13    1
    18    18    32    1
    19    19    13    1
    20    20    53    1
    21    21    13    1
    22    22    21   ar
    23    23    27    1
    24    24    17    1
    25    25    16    1
    26    26    19   ar
    27    27    16    2
    28    28    27    1
    29    29    31   ar
    30    30    15    1
    31    31    54   ar
    32    32    36   ar
    33    33    17    2
    34    34    33    1
    35    35    26   ar
    36    36    23   ar
    37    37    36    1
    38    38    22   ar
    39    39    35   ar
    40    40    39    1
    41    41    21   ar
    42    42    41    1
    43    43    24   ar
    44    44    43    1
    45    45    25   ar
    46    46    45    1
    47    47    29   ar
    48    48    47    1
    49    49    19   ar
    50    50    49    1
    51    51    35   ar
    52    52    51    1
    53    53    47   ar
    54    54    55    1
    55    56    30   ar
    56    57    56    1
    57    58    53   ar
    58    59    58    1
    59    60    49   ar
    60    61    60    1
    61    62    45   ar
    62    63    62    1
    63    64    32   ar
    64    65    64    1
    65    66    39   ar
    66    67    66    1
    67    68    38   ar
    68    69    68    1
    69    70    38   ar
    70    71    70    1
    71    72    41   ar
    72    73    72    1
    73    74    20    1
    74    75    74    1
    75    76    74    1
    76    77    74    1
    77    78    18    1
    78    79    78    1
    79    80    78    1
    80    81    78    1
    81    22    25   ar
    82    23    30   ar
    83    24    26   ar
    84    29    33    1
    85    43    66   ar
    86    51    60   ar
    87    54    58   ar
    88    56    64   ar
    89    62    68   ar
    90    70    72   ar
    91    82    83    1
    92    83    84    3
    93    85    86    1
    94    87    85    1
    95    88    87    1
    96    89    87    1
    97    90    87    1
@<TRIPOS>SUBSTRUCTURE
     1 RES1        1 GROUP             0 ****  ****    0  
     2 RES2       13 GROUP             0 ****  ****    0  
     3 RES3       82 GROUP             0 ****  ****    0  
     4 RES4       85 GROUP             0 ****  ****    0  
@<TRIPOS>CRYSIN
   11.3759   13.0323   14.3942   95.7760   99.7420   90.5390     2     1
