@<TRIPOS>MOLECULE
OPEVUD34
    88    95     4     0     0
SMALL
USER_CHARGES
****
Generated from the CSD

@<TRIPOS>ATOM
     1 I1       2.3533   0.5315   5.4212   I         1 RES1   0.0000
     2 I2      -2.4904   2.3015   8.6707   I         1 RES1   0.0000
     3 I3      -1.0931   5.0227   3.4412   I         1 RES1   0.0000
     4 F1       1.1774   2.8790   3.7008   F         1 RES1   0.0000
     5 F2      -2.5818   4.2216   6.1398   F         1 RES1   0.0000
     6 F3       0.0456   0.6270   7.6603   F         1 RES1   0.0000
     7 C1       0.3877   2.7202   4.7487   C.ar      1 RES1   0.0000
     8 C2       0.6664   1.7282   5.6714   C.ar      1 RES1   0.0000
     9 C3      -0.7223   3.5665   4.8682   C.ar      1 RES1   0.0000
    10 C4      -0.1965   1.5914   6.7517   C.ar      1 RES1   0.0000
    11 C5      -1.5226   3.4001   5.9837   C.ar      1 RES1   0.0000
    12 C6      -1.3041   2.4139   6.9373   C.ar      1 RES1   0.0000
    13 Fe1      5.3696   4.3434   2.9547   Fe        2 RES2   1.0000
    14 O1       6.5804   3.8606   1.5979   O.3       2 RES2   0.0000
    15 O2       6.5057   5.6463   3.6642   O.3       2 RES2   0.0000
    16 O3       7.6319  10.7586   1.9158   O.3       2 RES2   0.0000
    17 O4      10.7593   0.2304   1.6091   O.3       2 RES2   0.0000
    18 N1       6.1026   3.1012   4.2634   N.2       2 RES2   0.0000
    19 N2       4.0688   3.0597   2.1859   N.ar      2 RES2   0.0000
    20 N3       4.5367   5.5630   1.6823   N.2       2 RES2   0.0000
    21 N4       4.0673   4.7060   4.4125   N.ar      2 RES2   0.0000
    22 C7       3.4050   5.0182   1.0170   C.ar      2 RES2   0.0000
    23 C8       3.2037   3.6427   1.2913   C.ar      2 RES2   0.0000
    24 C9       7.1489   2.3508   4.0848   C.2       2 RES2   0.0000
    25 H1       7.4483   1.8358   4.8246   H         2 RES2   0.0000
    26 C10      5.4361   3.1102   5.5125   C.ar      2 RES2   0.0000
    27 C11      4.3286   3.9885   5.5589   C.ar      2 RES2   0.0000
    28 C12      8.9601   1.3087   2.8610   C.ar      2 RES2   0.0000
    29 H2       9.1617   0.8150   3.6467   H         2 RES2   0.0000
    30 C13      7.5619   2.9847   1.7090   C.ar      2 RES2   0.0000
    31 C14      7.8874   2.2364   2.8638   C.ar      2 RES2   0.0000
    32 C15      6.7523   6.8315   3.1353   C.ar      2 RES2   0.0000
    33 C16      4.9855   6.7389   1.3700   C.2       2 RES2   0.0000
    34 H3       4.5694   7.1945   0.6482   H         2 RES2   0.0000
    35 C17      6.0635   7.3925   2.0382   C.ar      2 RES2   0.0000
    36 C18      8.3745   2.7574   0.5542   C.ar      2 RES2   0.0000
    37 H4       8.1942   3.2397  -0.2444   H         2 RES2   0.0000
    38 C19      7.7750   7.6157   3.7359   C.ar      2 RES2   0.0000
    39 H5       8.2802   7.2575   4.4556   H         2 RES2   0.0000
    40 C20      3.0354   5.5435   4.4139   C.ar      2 RES2   0.0000
    41 H6       2.8409   6.0334   3.6232   H         2 RES2   0.0000
    42 C21      3.5509   4.1195   6.7250   C.ar      2 RES2   0.0000
    43 C22      2.5271   5.6851   0.1899   C.ar      2 RES2   0.0000
    44 H7       2.6290   6.6168   0.0320   H         2 RES2   0.0000
    45 C23      9.4062   1.8585   0.5781   C.ar      2 RES2   0.0000
    46 H8       9.9298   1.7330  -0.2043   H         2 RES2   0.0000
    47 C24      6.3658   8.7128   1.5923   C.ar      2 RES2   0.0000
    48 H9       5.9007   9.0781   0.8480   H         2 RES2   0.0000
    49 C25      8.0393   8.8891   3.2830   C.ar      2 RES2   0.0000
    50 H10      8.7280   9.3945   3.6993   H         2 RES2   0.0000
    51 C26      2.1711   2.9256   0.6583   C.ar      2 RES2   0.0000
    52 C27      9.7079   1.1211   1.7245   C.ar      2 RES2   0.0000
    53 C28      7.3167   9.4552   2.2238   C.ar      2 RES2   0.0000
    54 C29      3.9485   1.7612   2.4292   C.ar      2 RES2   0.0000
    55 H11      4.5368   1.3550   3.0550   H         2 RES2   0.0000
    56 C30      1.3018   3.6263  -0.2082   C.ar      2 RES2   0.0000
    57 H12      0.5947   3.1652  -0.6446   H         2 RES2   0.0000
    58 C31      5.7366   2.3662   6.6349   C.ar      2 RES2   0.0000
    59 H13      6.4749   1.7680   6.6184   H         2 RES2   0.0000
    60 C32      4.9700   2.4855   7.7912   C.ar      2 RES2   0.0000
    61 H14      5.1875   1.9595   8.5516   H         2 RES2   0.0000
    62 C33      1.4759   4.9719  -0.4192   C.ar      2 RES2   0.0000
    63 H15      0.8727   5.4329  -0.9913   H         2 RES2   0.0000
    64 C34      2.9752   0.9645   1.7878   C.ar      2 RES2   0.0000
    65 C35      3.8958   3.3552   7.8502   C.ar      2 RES2   0.0000
    66 H16      3.3913   3.4339   8.6521   H         2 RES2   0.0000
    67 C36      2.4634   5.0406   6.6785   C.ar      2 RES2   0.0000
    68 H17      1.9129   5.1676   7.4431   H         2 RES2   0.0000
    69 C37      6.6627  11.4757   1.1548   C.3       2 RES2   0.0000
    70 H18      6.6261  11.1120   0.2454   H         2 RES2   0.0000
    71 H19      6.9132  12.4230   1.1171   H         2 RES2   0.0000
    72 H20      5.7835  11.3874   1.5778   H         2 RES2   0.0000
    73 C38      2.2194   5.7274   5.5504   C.ar      2 RES2   0.0000
    74 H21      1.4942   6.3404   5.5175   H         2 RES2   0.0000
    75 C39      2.0881   1.5334   0.9241   C.ar      2 RES2   0.0000
    76 C40     10.9888  -0.6232   2.7105   C.3       2 RES2   0.0000
    77 H22     11.7158  -1.2440   2.4964   H         2 RES2   0.0000
    78 H23     10.1732  -1.1298   2.9066   H         2 RES2   0.0000
    79 H24     11.2363  -0.0871   3.4928   H         2 RES2   0.0000
    80 S1       1.4820  -4.1562   2.6460   S.2       3 RES3  -1.0000
    81 C41      2.6406  -3.0595   2.8934   C.1       3 RES3   0.0000
    82 N5       3.4893  -2.2847   3.0397   N.1       3 RES3   0.0000
    83 O5       5.0091  -0.4655   4.4519   O.3       4 RES4   0.0000
    84 H25      4.5142  -1.0795   4.1616   H         4 RES4   0.0000
    85 C42      6.1986  -1.0122   4.9245   C.3       4 RES4   0.0000
    86 H26      6.9215  -0.8196   4.2912   H         4 RES4   0.0000
    87 H27      6.0978  -1.9825   5.0195   H         4 RES4   0.0000
    88 H28      6.4152  -0.6197   5.7961   H         4 RES4   0.0000
@<TRIPOS>BOND
     1     1     8    1
     2     2    12    1
     3     3     9    1
     4     4     7    1
     5     5    11    1
     6     6    10    1
     7     7     8   ar
     8     8    10   ar
     9     9     7   ar
    10    10    12   ar
    11    11     9   ar
    12    12    11   ar
    13    13    14    1
    14    14    30    1
    15    15    13    1
    16    16    53    1
    17    17    52    1
    18    18    13    1
    19    19    13    1
    20    20    13    1
    21    21    13    1
    22    22    20    1
    23    23    19   ar
    24    24    18    2
    25    25    24    1
    26    26    18    1
    27    27    21   ar
    28    28    29    1
    29    30    31   ar
    30    31    24    1
    31    32    15    1
    32    33    20    2
    33    34    33    1
    34    35    32   ar
    35    36    30   ar
    36    37    36    1
    37    38    32   ar
    38    39    38    1
    39    40    21   ar
    40    41    40    1
    41    42    27   ar
    42    43    22   ar
    43    44    43    1
    44    45    36   ar
    45    46    45    1
    46    47    35   ar
    47    48    47    1
    48    49    38   ar
    49    50    49    1
    50    51    23   ar
    51    52    28   ar
    52    53    47   ar
    53    54    19   ar
    54    55    54    1
    55    56    51   ar
    56    57    56    1
    57    58    26   ar
    58    59    58    1
    59    60    58   ar
    60    61    60    1
    61    62    43   ar
    62    63    62    1
    63    64    54   ar
    64    65    42   ar
    65    66    65    1
    66    67    42   ar
    67    68    67    1
    68    69    16    1
    69    70    69    1
    70    71    69    1
    71    72    69    1
    72    73    40   ar
    73    74    73    1
    74    75    51   ar
    75    76    17    1
    76    77    76    1
    77    78    76    1
    78    79    76    1
    79    22    23   ar
    80    26    27   ar
    81    28    31   ar
    82    33    35    1
    83    45    52   ar
    84    49    53   ar
    85    56    62   ar
    86    60    65   ar
    87    64    75   ar
    88    67    73   ar
    89    80    81    1
    90    81    82    3
    91    83    84    1
    92    85    83    1
    93    86    85    1
    94    87    85    1
    95    88    85    1
@<TRIPOS>SUBSTRUCTURE
     1 RES1        1 GROUP             0 ****  ****    0  
     2 RES2       13 GROUP             0 ****  ****    0  
     3 RES3       80 GROUP             0 ****  ****    0  
     4 RES4       83 GROUP             0 ****  ****    0  
@<TRIPOS>CRYSIN
   11.5514   12.5400   14.3839   95.3440  100.7880   90.0100     2     1
