@<TRIPOS>MOLECULE
OPEVIR35
    84    92     3     0     0
SMALL
USER_CHARGES
****
Generated from the CSD

@<TRIPOS>ATOM
     1 I1      14.7450  10.4493   8.3012   I         1 RES1   0.0000
     2 I2       9.7478  12.3028   5.3340   I         1 RES1   0.0000
     3 I3      12.7422   7.4760   3.4367   I         1 RES1   0.0000
     4 F1      14.4733   8.3539   5.9601   F         1 RES1   0.0000
     5 F2      12.1640  12.1717   7.4241   F         1 RES1   0.0000
     6 F3      10.5361   9.6798   3.7992   F         1 RES1   0.0000
     7 C1      11.3053  10.9438   5.6225   C.ar      1 RES1   0.0000
     8 C2      13.3573  10.2405   6.7448   C.ar      1 RES1   0.0000
     9 C3      12.5280   8.9954   4.8364   C.ar      1 RES1   0.0000
    10 C4      12.2883  11.1163   6.5949   C.ar      1 RES1   0.0000
    11 C5      13.4404   9.1877   5.8480   C.ar      1 RES1   0.0000
    12 C6      11.4651   9.8662   4.7446   C.ar      1 RES1   0.0000
    13 Fe1      6.4487   8.1820   2.8482   Fe        2 RES2   1.0000
    14 O1       5.2532   6.9543   3.5763   O.3       2 RES2   0.0000
    15 O2       5.2320   8.6728   1.5099   O.3       2 RES2   0.0000
    16 O3       0.9009  12.0799   1.6747   O.3       2 RES2   0.0000
    17 O4       4.0642   1.7834   2.0542   O.3       2 RES2   0.0000
    18 N1       5.7814   9.4777   4.1328   N.2       2 RES2   0.0000
    19 N2       7.2483   6.9214   1.6153   N.2       2 RES2   0.0000
    20 N3       7.7996   9.3998   2.0691   N.ar      2 RES2   0.0000
    21 N4       7.7483   7.7998   4.2948   N.ar      2 RES2   0.0000
    22 C7       4.7004  10.1760   3.9923   C.2       2 RES2   0.0000
    23 H1       4.4280  10.7124   4.7275   H         2 RES2   0.0000
    24 C8       4.9671   5.7597   3.0820   C.ar      2 RES2   0.0000
    25 C9       6.7699   5.7379   1.3371   C.2       2 RES2   0.0000
    26 H2       7.1796   5.2509   0.6312   H         2 RES2   0.0000
    27 C10      8.3925   7.3964   0.9427   C.ar      2 RES2   0.0000
    28 C11      3.3181   9.6424   0.5456   C.ar      2 RES2   0.0000
    29 H3       3.4907   9.1656  -0.2580   H         2 RES2   0.0000
    30 C12      6.5579   9.5725   5.3105   C.ar      2 RES2   0.0000
    31 C13      9.2521   6.6928   0.1472   C.ar      2 RES2   0.0000
    32 H4       9.1169   5.7635   0.0042   H         2 RES2   0.0000
    33 C14      5.6776   5.1278   2.0137   C.ar      2 RES2   0.0000
    34 C15      4.1949   9.4686   1.6545   C.ar      2 RES2   0.0000
    35 C16      5.3582   3.7930   1.6491   C.ar      2 RES2   0.0000
    36 H5       5.8350   3.3795   0.9383   H         2 RES2   0.0000
    37 C17      9.7095   9.4260   0.5497   C.ar      2 RES2   0.0000
    38 C18      7.6124   8.6481   5.3686   C.ar      2 RES2   0.0000
    39 C19     10.5579   8.6821  -0.2823   C.ar      2 RES2   0.0000
    40 H6      11.2851   9.1070  -0.7223   H         2 RES2   0.0000
    41 C20      1.9681  11.2271   1.7531   C.ar      2 RES2   0.0000
    42 C21      3.6509   3.7234   3.3035   C.ar      2 RES2   0.0000
    43 H7       2.9516   3.2451   3.7341   H         2 RES2   0.0000
    44 C22      8.4393   8.5543   6.5166   C.ar      2 RES2   0.0000
    45 C23      0.7913  13.0664   2.7012   C.3       2 RES2   0.0000
    46 H8       0.0205  13.6432   2.5184   H         2 RES2   0.0000
    47 H9       1.6075  13.6077   2.7219   H         2 RES2   0.0000
    48 H10      0.6703  12.6239   3.5672   H         2 RES2   0.0000
    49 C24      9.5449   6.7084   5.4469   C.ar      2 RES2   0.0000
    50 H11     10.1920   6.0123   5.4528   H         2 RES2   0.0000
    51 C25      7.2276  10.4086   7.4755   C.ar      2 RES2   0.0000
    52 H12      7.1006  11.0246   8.1871   H         2 RES2   0.0000
    53 C26      3.9146   5.0176   3.6884   C.ar      2 RES2   0.0000
    54 H13      3.3868   5.4210   4.3680   H         2 RES2   0.0000
    55 C27      2.7712  11.0785   2.8565   C.ar      2 RES2   0.0000
    56 H14      2.5764  11.5659   3.6486   H         2 RES2   0.0000
    57 C28      9.4404   7.5467   6.5098   C.ar      2 RES2   0.0000
    58 H15     10.0353   7.4609   7.2462   H         2 RES2   0.0000
    59 C29      8.6877   6.8686   4.3273   C.ar      2 RES2   0.0000
    60 H16      8.7923   6.2924   3.5791   H         2 RES2   0.0000
    61 C30      4.3840   3.0926   2.2933   C.ar      2 RES2   0.0000
    62 C31      3.8877  10.2037   2.8281   C.ar      2 RES2   0.0000
    63 C32      6.3872  10.4642   6.3477   C.ar      2 RES2   0.0000
    64 H17      5.7002  11.1195   6.3014   H         2 RES2   0.0000
    65 C33     10.3396   7.3509  -0.4605   C.ar      2 RES2   0.0000
    66 H18     10.9350   6.8521  -1.0082   H         2 RES2   0.0000
    67 C34      8.2404   9.4602   7.5579   C.ar      2 RES2   0.0000
    68 H19      8.7987   9.4299   8.3259   H         2 RES2   0.0000
    69 C35      2.2412  10.4713   0.6010   C.ar      2 RES2   0.0000
    70 H20      1.6654  10.5411  -0.1514   H         2 RES2   0.0000
    71 C36      8.6467   8.7693   1.1885   C.ar      2 RES2   0.0000
    72 C37      7.9801  10.6913   2.2852   C.ar      2 RES2   0.0000
    73 H21      7.4055  11.1352   2.8979   H         2 RES2   0.0000
    74 C38      4.9907   1.0405   1.2506   C.3       2 RES2   0.0000
    75 H22      5.0288   1.4290   0.3522   H         2 RES2   0.0000
    76 H23      4.6970   0.1076   1.1918   H         2 RES2   0.0000
    77 H24      5.8808   1.0773   1.6604   H         2 RES2   0.0000
    78 C39      9.8593  10.8180   0.8103   C.ar      2 RES2   0.0000
    79 H25     10.5624  11.3113   0.4037   H         2 RES2   0.0000
    80 C40      8.9796  11.4325   1.6518   C.ar      2 RES2   0.0000
    81 H26      9.0480  12.3671   1.8079   H         2 RES2   0.0000
    82 S1      16.7077  10.1044  10.8496   S.2       3 RES3  -1.0000
    83 N5      18.6878  12.0542  10.4157   N.1       3 RES3   0.0000
    84 C41     17.8645  11.2345  10.6007   C.1       3 RES3   0.0000
@<TRIPOS>BOND
     1     1     8    1
     2     2     7    1
     3     3     9    1
     4     4    11    1
     5     5    10    1
     6     6    12    1
     7     7    10   ar
     8     8    10   ar
     9     9    11   ar
    10    11     8   ar
    11    12     7   ar
    12     9    12   ar
    13    13    14    1
    14    14    24    1
    15    15    13    1
    16    16    41    1
    17    17    61    1
    18    18    13    1
    19    19    13    1
    20    20    13    1
    21    21    13    1
    22    22    18    2
    23    23    22    1
    24    24    33   ar
    25    25    19    2
    26    26    25    1
    27    27    19    1
    28    28    29    1
    29    30    18    1
    30    31    27   ar
    31    32    31    1
    32    33    25    1
    33    34    15    1
    34    35    33   ar
    35    36    35    1
    36    37    39   ar
    37    38    21   ar
    38    39    40    1
    39    41    55   ar
    40    42    43    1
    41    44    38   ar
    42    45    16    1
    43    46    45    1
    44    47    45    1
    45    48    45    1
    46    49    50    1
    47    51    52    1
    48    53    24   ar
    49    54    53    1
    50    55    56    1
    51    57    44   ar
    52    58    57    1
    53    59    21   ar
    54    60    59    1
    55    61    35   ar
    56    62    22    1
    57    63    30   ar
    58    64    63    1
    59    65    31   ar
    60    66    65    1
    61    67    44   ar
    62    68    67    1
    63    69    28   ar
    64    70    69    1
    65    71    20   ar
    66    72    20   ar
    67    73    72    1
    68    74    17    1
    69    75    74    1
    70    76    74    1
    71    77    74    1
    72    78    37   ar
    73    79    78    1
    74    80    72   ar
    75    81    80    1
    76    27    71   ar
    77    28    34   ar
    78    30    38   ar
    79    34    62   ar
    80    37    71   ar
    81    39    65   ar
    82    41    69   ar
    83    42    53   ar
    84    42    61   ar
    85    49    57   ar
    86    49    59   ar
    87    51    63   ar
    88    51    67   ar
    89    55    62   ar
    90    78    80   ar
    91    82    84    1
    92    83    84    3
@<TRIPOS>SUBSTRUCTURE
     1 RES1        1 GROUP             0 ****  ****    0  
     2 RES2       13 GROUP             0 ****  ****    0  
     3 RES3       82 GROUP             0 ****  ****    0  
@<TRIPOS>CRYSIN
   11.7353   12.3244   13.9599   82.8530   77.1770   89.2220     2     1
