@<TRIPOS>MOLECULE
OPEVUD22
    90    97     4     0     0
SMALL
USER_CHARGES
****
Generated from the CSD

@<TRIPOS>ATOM
     1 I1      -2.3765   2.5462   8.8226   I         1 RES1   0.0000
     2 I2       2.3204   0.7213   5.3963   I         1 RES1   0.0000
     3 I3      -1.1838   5.1923   3.5158   I         1 RES1   0.0000
     4 F1       1.0671   3.0196   3.6798   F         1 RES1   0.0000
     5 F2       0.1366   0.8905   7.7446   F         1 RES1   0.0000
     6 F3      -2.5503   4.4327   6.2764   F         1 RES1   0.0000
     7 C1       0.6604   1.9322   5.6939   C.ar      1 RES1   0.0000
     8 C2      -1.2320   2.6554   7.0634   C.ar      1 RES1   0.0000
     9 C3      -0.7620   3.7614   4.9464   C.ar      1 RES1   0.0000
    10 C4       0.3157   2.8858   4.7856   C.ar      1 RES1   0.0000
    11 C5      -0.1448   1.8268   6.8265   C.ar      1 RES1   0.0000
    12 C6      -1.5016   3.6066   6.0902   C.ar      1 RES1   0.0000
    13 Fe1      5.4403   4.5489   2.9008   Fe        2 RES2   1.0000
    14 O1       6.7394   3.8766   1.6643   O.3       2 RES2   0.0000
    15 O2       6.4501   6.0272   3.5120   O.3       2 RES2   0.0000
    16 N1       4.4068   5.8558   1.6121   N.2       2 RES2   0.0000
    17 N2       6.1385   3.1571   4.3088   N.2       2 RES2   0.0000
    18 N3       3.9620   3.2855   2.0338   N.ar      2 RES2   0.0000
    19 O3      10.6508   0.0103   1.7207   O.3       2 RES2   0.0000
    20 O4       7.2273  11.2227   1.9196   O.3       2 RES2   0.0000
    21 N4       4.0734   4.7971   4.5359   N.ar      2 RES2   0.0000
    22 C7       4.3730   4.0505   5.6459   C.ar      2 RES2   0.0000
    23 C8       3.2849   5.2964   0.9436   C.ar      2 RES2   0.0000
    24 C9       7.8556   2.1537   2.9027   C.ar      2 RES2   0.0000
    25 C10      3.0960   3.8987   1.1904   C.ar      2 RES2   0.0000
    26 C11      5.8085   7.7972   2.0225   C.ar      2 RES2   0.0000
    27 C12      6.5972   7.2519   3.0507   C.ar      2 RES2   0.0000
    28 C13      7.1037   2.3112   4.1001   C.2       2 RES2   0.0000
    29 H1       7.3263   1.7513   4.8084   H         2 RES2   0.0000
    30 C14      5.4719   3.1774   5.5726   C.ar      2 RES2   0.0000
    31 C15      7.6495   2.9288   1.7447   C.ar      2 RES2   0.0000
    32 C16      4.7609   7.0794   1.3738   C.2       2 RES2   0.0000
    33 H2       4.2859   7.5336   0.7163   H         2 RES2   0.0000
    34 C17      8.8652   1.1587   2.9111   C.ar      2 RES2   0.0000
    35 H3       9.0002   0.6505   3.6782   H         2 RES2   0.0000
    36 C18      2.0385   3.2052   0.5585   C.ar      2 RES2   0.0000
    37 C19      9.6465   0.9332   1.8039   C.ar      2 RES2   0.0000
    38 C20      6.0100   9.1460   1.6079   C.ar      2 RES2   0.0000
    39 H4       5.4957   9.5024   0.9197   H         2 RES2   0.0000
    40 C21      2.4082   5.9486   0.1269   C.ar      2 RES2   0.0000
    41 H5       2.5098   6.8598  -0.0271   H         2 RES2   0.0000
    42 C22      1.1706   3.9169  -0.2793   C.ar      2 RES2   0.0000
    43 H6       0.4661   3.4751  -0.6961   H         2 RES2   0.0000
    44 C23      3.6216   4.1761   6.8617   C.ar      2 RES2   0.0000
    45 C24      7.5826   8.0652   3.6333   C.ar      2 RES2   0.0000
    46 H7       8.1202   7.7198   4.3092   H         2 RES2   0.0000
    47 C25      6.9659   9.9232   2.2242   C.ar      2 RES2   0.0000
    48 C26      3.8346   1.9822   2.2623   C.ar      2 RES2   0.0000
    49 H8       4.4323   1.5637   2.8385   H         2 RES2   0.0000
    50 C27      5.8269   2.4463   6.6840   C.ar      2 RES2   0.0000
    51 H9       6.5611   1.8760   6.6462   H         2 RES2   0.0000
    52 C28      8.4578   2.6540   0.6093   C.ar      2 RES2   0.0000
    53 H10      8.3315   3.1406  -0.1731   H         2 RES2   0.0000
    54 C29      3.0414   5.6197   4.5811   C.ar      2 RES2   0.0000
    55 H11      2.8313   6.1195   3.8252   H         2 RES2   0.0000
    56 C30      7.7645   9.3602   3.2228   C.ar      2 RES2   0.0000
    57 H12      8.4329   9.8744   3.6165   H         2 RES2   0.0000
    58 C31      1.9384   1.8127   0.8307   C.ar      2 RES2   0.0000
    59 H13      1.2605   1.3092   0.4403   H         2 RES2   0.0000
    60 C32      1.3475   5.2466  -0.4866   C.ar      2 RES2   0.0000
    61 H14      0.7595   5.7037  -1.0424   H         2 RES2   0.0000
    62 C33      2.8265   1.2208   1.6572   C.ar      2 RES2   0.0000
    63 H15      2.7696   0.3078   1.8254   H         2 RES2   0.0000
    64 C34      9.4165   1.6854   0.6530   C.ar      2 RES2   0.0000
    65 H16      9.9298   1.5220  -0.1044   H         2 RES2   0.0000
    66 C35      2.5358   5.0414   6.8476   C.ar      2 RES2   0.0000
    67 H17      2.0035   5.1234   7.6050   H         2 RES2   0.0000
    68 C36      5.0838   2.5559   7.8786   C.ar      2 RES2   0.0000
    69 H18      5.3368   2.0610   8.6238   H         2 RES2   0.0000
    70 C37      4.0071   3.3742   7.9520   C.ar      2 RES2   0.0000
    71 H19      3.5128   3.4067   8.7384   H         2 RES2   0.0000
    72 C38      2.2440   5.7663   5.7461   C.ar      2 RES2   0.0000
    73 H20      1.5252   6.3559   5.7499   H         2 RES2   0.0000
    74 C39     10.8639  -0.8129   2.8152   C.3       2 RES2   0.0000
    75 H21     11.5505  -1.4513   2.6074   H         2 RES2   0.0000
    76 H22     10.0513  -1.2767   3.0311   H         2 RES2   0.0000
    77 H23     11.1382  -0.2823   3.5672   H         2 RES2   0.0000
    78 C40      6.2676  11.9264   1.1453   C.3       2 RES2   0.0000
    79 H24      6.2032  11.5258   0.2747   H         2 RES2   0.0000
    80 H25      6.5377  12.8429   1.0564   H         2 RES2   0.0000
    81 H26      5.4130  11.8847   1.5802   H         2 RES2   0.0000
    82 S1       1.7754  -4.3977   2.6333   S.2       3 RES3  -1.0000
    83 C41      2.6646  -3.0555   2.8942   C.1       3 RES3   0.0000
    84 N5       3.2859  -2.1163   3.0578   N.1       3 RES3   0.0000
    85 O5       4.9601  -0.3231   4.3610   O.3       4 RES4   0.0000
    86 H27      4.6567  -0.8208   3.7842   H         4 RES4   0.0000
    87 C42      5.8901  -1.0031   5.1086   C.3       4 RES4   0.0000
    88 H28      6.7605  -0.8865   4.7205   H         4 RES4   0.0000
    89 H29      5.6692  -1.9374   5.1234   H         4 RES4   0.0000
    90 H30      5.8923  -0.6613   6.0062   H         4 RES4   0.0000
@<TRIPOS>BOND
     1     1     8    1
     2     2     7    1
     3     3     9    1
     4     4    10    1
     5     5    11    1
     6     6    12    1
     7     7    10   ar
     8     8    11   ar
     9     9    10   ar
    10    11     7   ar
    11    12     8   ar
    12     9    12   ar
    13    13    14    1
    14    14    31    1
    15    15    13    1
    16    16    13    1
    17    17    13    1
    18    18    13    1
    19    19    37    1
    20    20    47    1
    21    21    13    1
    22    22    21   ar
    23    23    16    1
    24    24    28    1
    25    25    18   ar
    26    26    27   ar
    27    27    15    1
    28    28    17    2
    29    29    28    1
    30    30    17    1
    31    31    24   ar
    32    32    16    2
    33    33    32    1
    34    34    24   ar
    35    35    34    1
    36    36    25   ar
    37    37    34   ar
    38    38    26   ar
    39    39    38    1
    40    40    23   ar
    41    41    40    1
    42    42    36   ar
    43    43    42    1
    44    44    22   ar
    45    45    27   ar
    46    46    45    1
    47    47    38   ar
    48    48    18   ar
    49    49    48    1
    50    50    30   ar
    51    51    50    1
    52    52    31   ar
    53    53    52    1
    54    54    21   ar
    55    55    54    1
    56    56    45   ar
    57    57    56    1
    58    58    36   ar
    59    59    58    1
    60    60    40   ar
    61    61    60    1
    62    62    48   ar
    63    63    62    1
    64    64    37   ar
    65    65    64    1
    66    66    44   ar
    67    67    66    1
    68    68    50   ar
    69    69    68    1
    70    70    44   ar
    71    71    70    1
    72    72    54   ar
    73    73    72    1
    74    74    19    1
    75    75    74    1
    76    76    74    1
    77    77    74    1
    78    78    20    1
    79    79    78    1
    80    80    78    1
    81    81    78    1
    82    22    30   ar
    83    23    25   ar
    84    26    32    1
    85    42    60   ar
    86    47    56   ar
    87    52    64   ar
    88    58    62   ar
    89    66    72   ar
    90    68    70   ar
    91    82    83    1
    92    83    84    3
    93    85    86    1
    94    87    85    1
    95    88    87    1
    96    89    87    1
    97    90    87    1
@<TRIPOS>SUBSTRUCTURE
     1 RES1        1 GROUP             0 ****  ****    0  
     2 RES2       13 GROUP             0 ****  ****    0  
     3 RES3       82 GROUP             0 ****  ****    0  
     4 RES4       85 GROUP             0 ****  ****    0  
@<TRIPOS>CRYSIN
   11.3799   13.0291   14.3903   95.7870   99.7810   90.5520     2     1
