@<TRIPOS>MOLECULE
OPEVUD21
    90    97     4     0     0
SMALL
USER_CHARGES
****
Generated from the CSD

@<TRIPOS>ATOM
     1 I1      11.2518   9.0522   5.2782   I         1 RES1   0.0000
     2 I2       6.5816  10.9238   8.7104   I         1 RES1   0.0000
     3 I3      10.0373   6.4253  10.5867   I         1 RES1   0.0000
     4 F1      11.3885   7.1544   7.8189   F         1 RES1   0.0000
     5 F2       8.7366  10.7118   6.3521   F         1 RES1   0.0000
     6 F3       7.7986   8.6083  10.4135   F         1 RES1   0.0000
     7 C1       8.2130   9.7050   8.3913   C.ar      1 RES1   0.0000
     8 C2       9.6401   7.8737   9.1515   C.ar      1 RES1   0.0000
     9 C3       8.5513   8.7297   9.3126   C.ar      1 RES1   0.0000
    10 C4       9.0273   9.7954   7.2735   C.ar      1 RES1   0.0000
    11 C5      10.0946   8.9346   7.0460   C.ar      1 RES1   0.0000
    12 C6      10.3563   7.9960   8.0168   C.ar      1 RES1   0.0000
    13 Fe1      3.3880   7.0551  11.2307   Fe        2 RES2   1.0000
    14 O1       2.3812   5.5712  10.6353   O.3       2 RES2   0.0000
    15 O2       2.0824   7.7410  12.4597   O.3       2 RES2   0.0000
    16 N1       4.4346   5.7417  12.5191   N.2       2 RES2   0.0000
    17 N2       2.6989   8.4592   9.8072   N.2       2 RES2   0.0000
    18 N3       4.8854   8.3163  12.0951   N.ar      2 RES2   0.0000
    19 O3      -1.8341  11.6111  12.3919   O.3       2 RES2   0.0000
    20 N4       4.7520   6.8150   9.5783   N.ar      2 RES2   0.0000
    21 O4       1.6149   0.3707  12.2266   O.3       2 RES2   0.0000
    22 C7       5.5635   6.3025  13.1847   C.ar      2 RES2   0.0000
    23 C8       5.7558   7.7077  12.9416   C.ar      2 RES2   0.0000
    24 C9       1.7377   9.3100  10.0178   C.2       2 RES2   0.0000
    25 H1       1.5241   9.8783   9.3141   H         2 RES2   0.0000
    26 C10      3.0336   3.8007  12.1064   C.ar      2 RES2   0.0000
    27 C11      2.2396   4.3340  11.0890   C.ar      2 RES2   0.0000
    28 C12      4.4556   7.5475   8.4845   C.ar      2 RES2   0.0000
    29 C13      0.9738   9.4625  11.2190   C.ar      2 RES2   0.0000
    30 C14      4.0991   4.5177  12.7452   C.2       2 RES2   0.0000
    31 H2       4.5959   4.0556  13.3814   H         2 RES2   0.0000
    32 C15      1.1909   8.7083  12.3820   C.ar      2 RES2   0.0000
    33 C16      3.3606   8.4432   8.5538   C.ar      2 RES2   0.0000
    34 C17      6.8147   8.3847  13.5620   C.ar      2 RES2   0.0000
    35 C18     -0.0242  10.4552  11.2119   C.ar      2 RES2   0.0000
    36 H3      -0.1566  10.9709  10.4491   H         2 RES2   0.0000
    37 C19      2.8454   2.4387  12.5134   C.ar      2 RES2   0.0000
    38 H4       3.3844   2.0743  13.1786   H         2 RES2   0.0000
    39 C20     -0.8001  10.6679  12.3142   C.ar      2 RES2   0.0000
    40 C21      1.2303   3.5232  10.5209   C.ar      2 RES2   0.0000
    41 H5       0.6691   3.8722   9.8670   H         2 RES2   0.0000
    42 C22      1.8818   1.6766  11.9298   C.ar      2 RES2   0.0000
    43 C23      5.2304   7.4403   7.2636   C.ar      2 RES2   0.0000
    44 C24      0.3643   8.9813  13.4956   C.ar      2 RES2   0.0000
    45 H6       0.4789   8.4919  14.2785   H         2 RES2   0.0000
    46 C25      6.4459   5.6523  14.0043   C.ar      2 RES2   0.0000
    47 H7       6.3423   4.7427  14.1664   H         2 RES2   0.0000
    48 C26      5.0383   9.6321  11.8676   C.ar      2 RES2   0.0000
    49 H8       4.4534  10.0578  11.2827   H         2 RES2   0.0000
    50 C27      5.7945   5.9800   9.5175   C.ar      2 RES2   0.0000
    51 H9       6.0002   5.4665  10.2655   H         2 RES2   0.0000
    52 C28     -0.5863   9.9376  13.4489   C.ar      2 RES2   0.0000
    53 H10     -1.1059  10.1032  14.2020   H         2 RES2   0.0000
    54 C29      1.0755   2.2226  10.9293   C.ar      2 RES2   0.0000
    55 H11      0.4200   1.6950  10.5324   H         2 RES2   0.0000
    56 C30      7.6892   7.6864  14.3901   C.ar      2 RES2   0.0000
    57 H12      8.3981   8.1274  14.8010   H         2 RES2   0.0000
    58 C31      3.0079   9.1646   7.4416   C.ar      2 RES2   0.0000
    59 H13      2.2781   9.7390   7.4781   H         2 RES2   0.0000
    60 C32      6.9369   9.7846  13.2949   C.ar      2 RES2   0.0000
    61 H14      7.6228  10.2815  13.6786   H         2 RES2   0.0000
    62 C33      7.4989   6.3452  14.5978   C.ar      2 RES2   0.0000
    63 H15      8.0889   5.8851  15.1504   H         2 RES2   0.0000
    64 C34      6.0370  10.3760  12.4739   C.ar      2 RES2   0.0000
    65 H16      6.0906  11.2910  12.3147   H         2 RES2   0.0000
    66 C35      6.5886   5.8506   8.3715   C.ar      2 RES2   0.0000
    67 H17      7.3222   5.2789   8.3723   H         2 RES2   0.0000
    68 C36      4.8385   8.2373   6.1684   C.ar      2 RES2   0.0000
    69 H18      5.3326   8.2132   5.3810   H         2 RES2   0.0000
    70 C37      6.2838   6.5606   7.2678   C.ar      2 RES2   0.0000
    71 H19      6.7936   6.4525   6.4984   H         2 RES2   0.0000
    72 C38      3.7370   9.0434   6.2546   C.ar      2 RES2   0.0000
    73 H20      3.4657   9.5225   5.5045   H         2 RES2   0.0000
    74 C39      2.5802  -0.3410  12.9812   C.3       2 RES2   0.0000
    75 H21      3.4384  -0.2621  12.5594   H         2 RES2   0.0000
    76 H22      2.3304  -1.2667  13.0293   H         2 RES2   0.0000
    77 H23      2.6248   0.0244  13.8684   H         2 RES2   0.0000
    78 C40     -2.0249  12.4461  11.3094   C.3       2 RES2   0.0000
    79 H24     -2.3121  11.9279  10.5531   H         2 RES2   0.0000
    80 H25     -1.2000  12.8892  11.0978   H         2 RES2   0.0000
    81 H26     -2.6945  13.0996  11.5219   H         2 RES2   0.0000
    82 S1       7.0410  16.0331  11.4936   S.2       3 RES3  -1.0000
    83 C41      6.1678  14.6823  11.2147   C.1       3 RES3   0.0000
    84 N5       5.5772  13.7022  11.0381   N.1       3 RES3   0.0000
    85 O5       3.8654  11.9592   9.7578   O.3       4 RES4   0.0000
    86 H27      4.0564  12.3838  10.4338   H         4 RES4   0.0000
    87 C42      2.9500  12.6461   9.0399   C.3       4 RES4   0.0000
    88 H28      3.3238  12.8836   8.1880   H         4 RES4   0.0000
    89 H29      2.7024  13.4432   9.5140   H         4 RES4   0.0000
    90 H30      2.1722  12.0989   8.9061   H         4 RES4   0.0000
@<TRIPOS>BOND
     1     1    11    1
     2     2     7    1
     3     3     8    1
     4     4    12    1
     5     5    10    1
     6     6     9    1
     7     7     9   ar
     8     8     9   ar
     9    10     7   ar
    10    11    10   ar
    11    12     8   ar
    12    11    12   ar
    13    13    14    1
    14    14    27    1
    15    15    13    1
    16    16    13    1
    17    17    13    1
    18    18    13    1
    19    19    39    1
    20    20    13    1
    21    21    42    1
    22    22    16    1
    23    23    18   ar
    24    24    17    2
    25    25    24    1
    26    26    27   ar
    27    27    40   ar
    28    28    20   ar
    29    29    24    1
    30    30    16    2
    31    31    30    1
    32    32    15    1
    33    33    17    1
    34    34    23   ar
    35    35    29   ar
    36    36    35    1
    37    37    26   ar
    38    38    37    1
    39    39    35   ar
    40    40    41    1
    41    42    37   ar
    42    43    28   ar
    43    44    32   ar
    44    45    44    1
    45    46    22   ar
    46    47    46    1
    47    48    18   ar
    48    49    48    1
    49    50    20   ar
    50    51    50    1
    51    52    39   ar
    52    53    52    1
    53    54    40   ar
    54    55    54    1
    55    56    34   ar
    56    57    56    1
    57    58    33   ar
    58    59    58    1
    59    60    34   ar
    60    61    60    1
    61    62    46   ar
    62    63    62    1
    63    64    48   ar
    64    65    64    1
    65    66    50   ar
    66    67    66    1
    67    68    43   ar
    68    69    68    1
    69    70    43   ar
    70    71    70    1
    71    72    58   ar
    72    73    72    1
    73    74    21    1
    74    75    74    1
    75    76    74    1
    76    77    74    1
    77    78    19    1
    78    79    78    1
    79    80    78    1
    80    81    78    1
    81    22    23   ar
    82    26    30    1
    83    28    33   ar
    84    29    32   ar
    85    42    54   ar
    86    44    52   ar
    87    56    62   ar
    88    60    64   ar
    89    66    70   ar
    90    68    72   ar
    91    82    83    1
    92    83    84    3
    93    85    86    1
    94    87    85    1
    95    88    87    1
    96    89    87    1
    97    90    87    1
@<TRIPOS>SUBSTRUCTURE
     1 RES1        1 GROUP             0 ****  ****    0  
     2 RES2       13 GROUP             0 ****  ****    0  
     3 RES3       82 GROUP             0 ****  ****    0  
     4 RES4       85 GROUP             0 ****  ****    0  
@<TRIPOS>CRYSIN
   11.4441   13.1048   14.4177   95.7640   99.7810   90.6040     2     1
