@<TRIPOS>MOLECULE
OPEVIR15
    84    92     3     0     0
SMALL
USER_CHARGES
****
Generated from the CSD

@<TRIPOS>ATOM
     1 I1      -2.7168   2.3481   8.4862   I         1 RES1   0.0000
     2 I2       2.0758   0.1604   5.4324   I         1 RES1   0.0000
     3 I3      -0.7626   5.0164   3.4376   I         1 RES1   0.0000
     4 F1      -0.2680   0.4856   7.6021   F         1 RES1   0.0000
     5 F2      -2.4423   4.3203   6.0281   F         1 RES1   0.0000
     6 F3       1.3527   2.7311   3.8256   F         1 RES1   0.0000
     7 C1      -1.3700   2.4117   6.8684   C.ar      1 RES1   0.0000
     8 C2      -0.3561   1.4990   6.7099   C.ar      1 RES1   0.0000
     9 C3      -1.4381   3.4106   5.9120   C.ar      1 RES1   0.0000
    10 C4      -0.5599   3.5402   4.8777   C.ar      1 RES1   0.0000
    11 C5       0.5841   1.5808   5.7029   C.ar      1 RES1   0.0000
    12 C6       0.4625   2.6051   4.8271   C.ar      1 RES1   0.0000
    13 Fe1      5.5811   4.3577   2.8262   Fe        2 RES2   1.0000
    14 O1       6.8407   3.6394   1.5835   O.3       2 RES2   0.0000
    15 O2       6.6865   5.7754   3.4157   O.3       2 RES2   0.0000
    16 N1       6.1942   2.8963   4.2014   N.2       2 RES2   0.0000
    17 N2       4.5702   5.7112   1.5794   N.2       2 RES2   0.0000
    18 O3      10.9876   0.0381   1.7844   O.3       2 RES2   0.0000
    19 N3       4.0480   3.1574   1.9702   N.ar      2 RES2   0.0000
    20 N4       4.2440   4.6548   4.4746   N.ar      2 RES2   0.0000
    21 O4       7.4588  11.0337   2.0494   O.3       2 RES2   0.0000
    22 C7       7.2436   2.1423   4.0456   C.2       2 RES2   0.0000
    23 H1       7.4824   1.6094   4.7700   H         2 RES2   0.0000
    24 C8       3.1825   3.8198   1.1327   C.ar      2 RES2   0.0000
    25 C9       8.0662   2.0436   2.8883   C.ar      2 RES2   0.0000
    26 C10      4.9356   6.9445   1.3841   C.2       2 RES2   0.0000
    27 H2       4.4513   7.4330   0.7581   H         2 RES2   0.0000
    28 C11      3.4300   5.1959   0.9100   C.ar      2 RES2   0.0000
    29 C12      5.4446   2.8217   5.4064   C.ar      2 RES2   0.0000
    30 C13      6.0128   7.6212   2.0426   C.ar      2 RES2   0.0000
    31 C14      7.8297   2.7913   1.7161   C.ar      2 RES2   0.0000
    32 C15      6.8476   7.0090   3.0031   C.ar      2 RES2   0.0000
    33 C16      4.4033   3.7860   5.5157   C.ar      2 RES2   0.0000
    34 C17      9.1317   1.1115   2.9362   C.ar      2 RES2   0.0000
    35 H3       9.2820   0.6210   3.7122   H         2 RES2   0.0000
    36 C18      9.9397   0.9271   1.8459   C.ar      2 RES2   0.0000
    37 C19      2.0981   3.1647   0.5096   C.ar      2 RES2   0.0000
    38 C20      6.2143   8.9742   1.6956   C.ar      2 RES2   0.0000
    39 H4       5.6705   9.3706   1.0529   H         2 RES2   0.0000
    40 C21      8.6968   2.5695   0.6271   C.ar      2 RES2   0.0000
    41 H5       8.5684   3.0480  -0.1597   H         2 RES2   0.0000
    42 C22      7.2029   9.7112   2.2967   C.ar      2 RES2   0.0000
    43 C23      2.5531   5.8956   0.1175   C.ar      2 RES2   0.0000
    44 H6       2.6856   6.8042  -0.0285   H         2 RES2   0.0000
    45 C24      9.7154   1.6770   0.6995   C.ar      2 RES2   0.0000
    46 H7      10.2754   1.5636  -0.0346   H         2 RES2   0.0000
    47 C25      3.8639   1.8604   2.1615   C.ar      2 RES2   0.0000
    48 H8       4.4541   1.4059   2.7177   H         2 RES2   0.0000
    49 C26      1.2326   3.9110  -0.2869   C.ar      2 RES2   0.0000
    50 H9       0.5020   3.5020  -0.6923   H         2 RES2   0.0000
    51 C27      3.5935   3.8354   6.6784   C.ar      2 RES2   0.0000
    52 C28      3.3065   5.5782   4.5716   C.ar      2 RES2   0.0000
    53 H10      3.1922   6.1759   3.8693   H         2 RES2   0.0000
    54 C29      7.8797   7.7879   3.5619   C.ar      2 RES2   0.0000
    55 H11      8.4647   7.4038   4.1739   H         2 RES2   0.0000
    56 C30      1.4589   5.2472  -0.4741   C.ar      2 RES2   0.0000
    57 H12      0.8726   5.7380  -1.0040   H         2 RES2   0.0000
    58 C31      8.0340   9.0919   3.2176   C.ar      2 RES2   0.0000
    59 H13      8.7168   9.5853   3.6124   H         2 RES2   0.0000
    60 C32      5.6144   1.9351   6.4243   C.ar      2 RES2   0.0000
    61 H14      6.2785   1.2865   6.3597   H         2 RES2   0.0000
    62 C33      2.8194   1.1413   1.5603   C.ar      2 RES2   0.0000
    63 H15      2.7256   0.2300   1.7165   H         2 RES2   0.0000
    64 C34      1.9582   1.7817   0.7597   C.ar      2 RES2   0.0000
    65 H16      1.2612   1.3106   0.3644   H         2 RES2   0.0000
    66 C35      2.4791   5.6897   5.6947   C.ar      2 RES2   0.0000
    67 H17      1.8280   6.3533   5.7260   H         2 RES2   0.0000
    68 C36      4.8053   1.9816   7.5665   C.ar      2 RES2   0.0000
    69 H18      4.9401   1.3625   8.2465   H         2 RES2   0.0000
    70 C37      2.6208   4.8485   6.7194   C.ar      2 RES2   0.0000
    71 H19      2.0723   4.9333   7.4660   H         2 RES2   0.0000
    72 C38     11.0657  -0.9432   2.8009   C.3       2 RES2   0.0000
    73 H20     11.8251  -1.5095   2.6404   H         2 RES2   0.0000
    74 H21     10.2657  -1.4731   2.7971   H         2 RES2   0.0000
    75 H22     11.1621  -0.5139   3.6538   H         2 RES2   0.0000
    76 C39      3.8380   2.9026   7.6963   C.ar      2 RES2   0.0000
    77 H23      3.3250   2.9231   8.4720   H         2 RES2   0.0000
    78 C40      6.5137  11.7426   1.3007   C.3       2 RES2   0.0000
    79 H24      6.4375  11.3509   0.4273   H         2 RES2   0.0000
    80 H25      6.7920  12.6576   1.2174   H         2 RES2   0.0000
    81 H26      5.6621  11.7063   1.7426   H         2 RES2   0.0000
    82 S1      -4.6824   2.6801  11.0078   S.2       3 RES3  -1.0000
    83 C41     -5.5301   1.3297  10.7500   C.1       3 RES3   0.0000
    84 N5      -6.1676   0.3524  10.5737   N.1       3 RES3   0.0000
@<TRIPOS>BOND
     1     1     7    1
     2     2    11    1
     3     3    10    1
     4     4     8    1
     5     5     9    1
     6     6    12    1
     7     7     8   ar
     8     8    11   ar
     9     9     7   ar
    10    10     9   ar
    11    11    12   ar
    12    12    10   ar
    13    13    14    1
    14    14    31    1
    15    15    13    1
    16    16    13    1
    17    17    13    1
    18    18    36    1
    19    19    13    1
    20    20    13    1
    21    21    42    1
    22    22    16    2
    23    23    22    1
    24    24    19   ar
    25    25    22    1
    26    26    17    2
    27    27    26    1
    28    28    17    1
    29    29    16    1
    30    30    26    1
    31    31    25   ar
    32    32    15    1
    33    33    20   ar
    34    34    25   ar
    35    35    34    1
    36    36    34   ar
    37    37    24   ar
    38    38    30   ar
    39    39    38    1
    40    40    31   ar
    41    41    40    1
    42    42    38   ar
    43    43    28   ar
    44    44    43    1
    45    45    36   ar
    46    46    45    1
    47    47    19   ar
    48    48    47    1
    49    49    37   ar
    50    50    49    1
    51    51    33   ar
    52    52    20   ar
    53    53    52    1
    54    54    32   ar
    55    55    54    1
    56    56    43   ar
    57    57    56    1
    58    58    42   ar
    59    59    58    1
    60    60    29   ar
    61    61    60    1
    62    62    47   ar
    63    63    62    1
    64    64    37   ar
    65    65    64    1
    66    66    52   ar
    67    67    66    1
    68    68    60   ar
    69    69    68    1
    70    70    51   ar
    71    71    70    1
    72    72    18    1
    73    73    72    1
    74    74    72    1
    75    75    72    1
    76    76    51   ar
    77    77    76    1
    78    78    21    1
    79    79    78    1
    80    80    78    1
    81    81    78    1
    82    24    28   ar
    83    29    33   ar
    84    30    32   ar
    85    40    45   ar
    86    49    56   ar
    87    54    58   ar
    88    62    64   ar
    89    66    70   ar
    90    68    76   ar
    91    82    83    1
    92    83    84    3
@<TRIPOS>SUBSTRUCTURE
     1 RES1        1 GROUP             0 ****  ****    0  
     2 RES2       13 GROUP             0 ****  ****    0  
     3 RES3       82 GROUP             0 ****  ****    0  
@<TRIPOS>CRYSIN
   11.6467   12.8175   14.0231   96.3190  101.3290   90.0060     2     1
