@<TRIPOS>MOLECULE
OPEVUD25
    90    97     4     0     0
SMALL
USER_CHARGES
****
Generated from the CSD

@<TRIPOS>ATOM
     1 I1      11.1873   8.9961   5.2945   I         1 RES1   0.0000
     2 I2       6.4703  10.8060   8.7076   I         1 RES1   0.0000
     3 I3       9.9805   6.3333  10.5936   I         1 RES1   0.0000
     4 F1       7.7149   8.5038  10.4232   F         1 RES1   0.0000
     5 F2       8.6729  10.6488   6.3627   F         1 RES1   0.0000
     6 F3      11.3563   7.1007   7.8361   F         1 RES1   0.0000
     7 C1       8.1370   9.6069   8.4169   C.ar      1 RES1   0.0000
     8 C2       8.4734   8.6414   9.3249   C.ar      1 RES1   0.0000
     9 C3       9.5603   7.7761   9.1684   C.ar      1 RES1   0.0000
    10 C4      10.0343   8.8865   7.0550   C.ar      1 RES1   0.0000
    11 C5       8.9520   9.7059   7.2778   C.ar      1 RES1   0.0000
    12 C6      10.3111   7.9271   8.0165   C.ar      1 RES1   0.0000
    13 Fe1      3.3713   6.9835  11.1921   Fe        2 RES2   1.0000
    14 O1       2.0817   7.6405  12.4449   O.3       2 RES2   0.0000
    15 O2       2.3526   5.5200  10.5642   O.3       2 RES2   0.0000
    16 N1       4.3874   5.6906  12.4816   N.2       2 RES2   0.0000
    17 N2       2.6713   8.3632   9.7901   N.2       2 RES2   0.0000
    18 N3       4.8251   8.2517  12.0488   N.ar      2 RES2   0.0000
    19 O3      -1.8635  11.4981  12.3914   O.3       2 RES2   0.0000
    20 O4       1.5457   0.3130  12.1714   O.3       2 RES2   0.0000
    21 N4       4.7364   6.7318   9.5730   N.ar      2 RES2   0.0000
    22 C7       4.4428   7.4734   8.4592   C.ar      2 RES2   0.0000
    23 C8       5.5060   6.2451  13.1541   C.ar      2 RES2   0.0000
    24 C9       1.6998   9.2096  10.0030   C.2       2 RES2   0.0000
    25 H1       1.4763   9.7844   9.2941   H         2 RES2   0.0000
    26 C10      5.7038   7.6357  12.9031   C.ar      2 RES2   0.0000
    27 C11      0.9407   9.3505  11.2071   C.ar      2 RES2   0.0000
    28 C12      3.3333   8.3416   8.5368   C.ar      2 RES2   0.0000
    29 C13      1.1580   8.5826  12.3617   C.ar      2 RES2   0.0000
    30 C14      2.1898   4.3065  11.0351   C.ar      2 RES2   0.0000
    31 C15      2.9767   3.7488  12.0784   C.ar      2 RES2   0.0000
    32 C16      4.0312   4.4592  12.7255   C.2       2 RES2   0.0000
    33 H2       4.5125   3.9989  13.3880   H         2 RES2   0.0000
    34 C17      6.7553   8.3333  13.5362   C.ar      2 RES2   0.0000
    35 C18     -0.0739  10.3466  11.1916   C.ar      2 RES2   0.0000
    36 H3      -0.2152  10.8547  10.4143   H         2 RES2   0.0000
    37 C19      6.3960   5.5804  13.9662   C.ar      2 RES2   0.0000
    38 H4       6.3007   4.6566  14.1104   H         2 RES2   0.0000
    39 C20      5.1873   7.3541   7.2467   C.ar      2 RES2   0.0000
    40 C21     -0.8484  10.5737  12.3039   C.ar      2 RES2   0.0000
    41 C22      4.9572   9.5549  11.8260   C.ar      2 RES2   0.0000
    42 H5       4.3572   9.9791  11.2394   H         2 RES2   0.0000
    43 C23      2.7630   2.4040  12.4886   C.ar      2 RES2   0.0000
    44 H6       3.2739   2.0389  13.1885   H         2 RES2   0.0000
    45 C24      7.6247   7.6305  14.3764   C.ar      2 RES2   0.0000
    46 H7       8.3324   8.0816  14.7993   H         2 RES2   0.0000
    47 C25      0.3420   8.8622  13.4939   C.ar      2 RES2   0.0000
    48 H8       0.4732   8.3735  14.2862   H         2 RES2   0.0000
    49 C26      1.2038   3.4871  10.4500   C.ar      2 RES2   0.0000
    50 H9       0.6649   3.8335   9.7616   H         2 RES2   0.0000
    51 C27      5.7711   5.9079   9.5307   C.ar      2 RES2   0.0000
    52 H10      5.9842   5.4072  10.2966   H         2 RES2   0.0000
    53 C28      2.9817   9.0832   7.4230   C.ar      2 RES2   0.0000
    54 H11      2.2425   9.6626   7.4600   H         2 RES2   0.0000
    55 C29      1.8089   1.6356  11.8627   C.ar      2 RES2   0.0000
    56 C30      6.8439   9.7390  13.2641   C.ar      2 RES2   0.0000
    57 H12      7.5214  10.2527  13.6650   H         2 RES2   0.0000
    58 C31      5.9629  10.3183  12.4379   C.ar      2 RES2   0.0000
    59 H13      6.0187  11.2413  12.2682   H         2 RES2   0.0000
    60 C32     -0.6180   9.8153  13.4544   C.ar      2 RES2   0.0000
    61 H14     -1.1418   9.9704  14.2185   H         2 RES2   0.0000
    62 C33      6.2874   6.4749   7.2622   C.ar      2 RES2   0.0000
    63 H15      6.8292   6.3889   6.4983   H         2 RES2   0.0000
    64 C34      1.0154   2.1867  10.8701   C.ar      2 RES2   0.0000
    65 H16      0.3375   1.6670  10.4768   H         2 RES2   0.0000
    66 C35      7.4521   6.2885  14.5851   C.ar      2 RES2   0.0000
    67 H17      8.0477   5.8296  15.1490   H         2 RES2   0.0000
    68 C36      3.7318   8.9743   6.2232   C.ar      2 RES2   0.0000
    69 H18      3.4799   9.4751   5.4697   H         2 RES2   0.0000
    70 C37      4.8109   8.1519   6.1541   C.ar      2 RES2   0.0000
    71 H19      5.3142   8.1165   5.3603   H         2 RES2   0.0000
    72 C38      6.5673   5.7548   8.3690   C.ar      2 RES2   0.0000
    73 H20      7.2886   5.1526   8.3688   H         2 RES2   0.0000
    74 C39     -2.0739  12.3205  11.2987   C.3       2 RES2   0.0000
    75 H21     -2.3540  11.7842  10.5397   H         2 RES2   0.0000
    76 H22     -1.2511  12.7847  11.0797   H         2 RES2   0.0000
    77 H23     -2.7648  12.9678  11.5089   H         2 RES2   0.0000
    78 C40      2.5113  -0.3742  12.9497   C.3       2 RES2   0.0000
    79 H24      3.3559  -0.3936  12.4742   H         2 RES2   0.0000
    80 H25      2.2095  -1.2821  13.1110   H         2 RES2   0.0000
    81 H26      2.6274   0.0828  13.7977   H         2 RES2   0.0000
    82 S1       7.0491  15.8942  11.4621   S.2       3 RES3  -1.0000
    83 C41      6.1367  14.5705  11.1986   C.1       3 RES3   0.0000
    84 N5       5.4922  13.6326  11.0534   N.1       3 RES3   0.0000
    85 O5       3.8242  11.8359   9.7295   O.3       4 RES4   0.0000
    86 H27      4.3140  12.3808  10.1200   H         4 RES4   0.0000
    87 C42      2.8826  12.5151   8.9907   C.3       4 RES4   0.0000
    88 H28      2.8021  12.1057   8.1146   H         4 RES4   0.0000
    89 H29      3.1547  13.4406   8.8910   H         4 RES4   0.0000
    90 H30      2.0260  12.4769   9.4447   H         4 RES4   0.0000
@<TRIPOS>BOND
     1     1    10    1
     2     2     7    1
     3     3     9    1
     4     4     8    1
     5     5    11    1
     6     6    12    1
     7     7     8   ar
     8     8     9   ar
     9     9    12   ar
    10    10    11   ar
    11    11     7   ar
    12    12    10   ar
    13    13    14    1
    14    14    29    1
    15    15    13    1
    16    16    13    1
    17    17    13    1
    18    18    13    1
    19    19    40    1
    20    20    55    1
    21    21    13    1
    22    22    21   ar
    23    23    16    1
    24    24    17    2
    25    25    24    1
    26    26    18   ar
    27    27    24    1
    28    28    17    1
    29    29    27   ar
    30    30    15    1
    31    31    30   ar
    32    32    16    2
    33    33    32    1
    34    34    26   ar
    35    35    27   ar
    36    36    35    1
    37    37    23   ar
    38    38    37    1
    39    39    22   ar
    40    40    35   ar
    41    41    18   ar
    42    42    41    1
    43    43    31   ar
    44    44    43    1
    45    45    34   ar
    46    46    45    1
    47    47    29   ar
    48    48    47    1
    49    49    30   ar
    50    50    49    1
    51    51    21   ar
    52    52    51    1
    53    53    28   ar
    54    54    53    1
    55    55    43   ar
    56    56    34   ar
    57    57    56    1
    58    58    41   ar
    59    59    58    1
    60    60    40   ar
    61    61    60    1
    62    62    39   ar
    63    63    62    1
    64    64    49   ar
    65    65    64    1
    66    66    37   ar
    67    67    66    1
    68    68    53   ar
    69    69    68    1
    70    70    39   ar
    71    71    70    1
    72    72    51   ar
    73    73    72    1
    74    74    19    1
    75    75    74    1
    76    76    74    1
    77    77    74    1
    78    78    20    1
    79    79    78    1
    80    80    78    1
    81    81    78    1
    82    22    28   ar
    83    23    26   ar
    84    31    32    1
    85    45    66   ar
    86    47    60   ar
    87    55    64   ar
    88    56    58   ar
    89    62    72   ar
    90    68    70   ar
    91    82    83    1
    92    83    84    3
    93    85    86    1
    94    87    85    1
    95    88    87    1
    96    89    87    1
    97    90    87    1
@<TRIPOS>SUBSTRUCTURE
     1 RES1        1 GROUP             0 ****  ****    0  
     2 RES2       13 GROUP             0 ****  ****    0  
     3 RES3       82 GROUP             0 ****  ****    0  
     4 RES4       85 GROUP             0 ****  ****    0  
@<TRIPOS>CRYSIN
   11.3819   12.9832   14.3872   95.7600   99.8590   90.5150     2     1
