@<TRIPOS>MOLECULE
OPEVIR07
    84    92     3     0     0
SMALL
USER_CHARGES
****
Generated from the CSD

@<TRIPOS>ATOM
     1 I1      11.5801   8.9897   5.2067   I         1 RES1   0.0000
     2 I2       6.8257  11.2317   8.2837   I         1 RES1   0.0000
     3 I3       9.6983   6.4106  10.3341   I         1 RES1   0.0000
     4 F1       9.1539  10.8819   6.1026   F         1 RES1   0.0000
     5 F2      11.3488   7.0549   7.7049   F         1 RES1   0.0000
     6 F3       7.5759   8.6967   9.9398   F         1 RES1   0.0000
     7 C1       9.4762   7.8724   8.8679   C.ar      1 RES1   0.0000
     8 C2      10.2611   8.9601   6.8540   C.ar      1 RES1   0.0000
     9 C3      10.3519   7.9707   7.8168   C.ar      1 RES1   0.0000
    10 C4       8.3191   9.8095   8.0198   C.ar      1 RES1   0.0000
    11 C5       8.4495   8.7927   8.9356   C.ar      1 RES1   0.0000
    12 C6       9.2480   9.8741   7.0073   C.ar      1 RES1   0.0000
    13 Fe1      3.3287   7.0387  10.9551   Fe        2 RES2   1.0000
    14 O1       2.2380   5.6014  10.3805   O.3       2 RES2   0.0000
    15 O2       2.0640   7.7708  12.1955   O.3       2 RES2   0.0000
    16 N1       4.3516   5.6913  12.2093   N.2       2 RES2   0.0000
    17 N2       2.6959   8.5000   9.5641   N.2       2 RES2   0.0000
    18 N3       4.8663   8.2446  11.8087   N.ar      2 RES2   0.0000
    19 O3      -2.0270  11.4192  12.0297   O.3       2 RES2   0.0000
    20 N4       4.6702   6.7369   9.2906   N.ar      2 RES2   0.0000
    21 O4       1.4867   0.3498  11.7783   O.3       2 RES2   0.0000
    22 C7       1.6699   9.2738   9.7257   C.2       2 RES2   0.0000
    23 H1       1.4342   9.8142   9.0061   H         2 RES2   0.0000
    24 C8       3.9909   4.4665  12.4262   C.2       2 RES2   0.0000
    25 H2       4.4712   3.9914  13.0657   H         2 RES2   0.0000
    26 C9       1.0826   8.6400  12.0739   C.ar      2 RES2   0.0000
    27 C10      5.4920   6.2163  12.8875   C.ar      2 RES2   0.0000
    28 C11      0.8616   9.3800  10.9054   C.ar      2 RES2   0.0000
    29 C12      2.9193   3.7717  11.7673   C.ar      2 RES2   0.0000
    30 C13      4.4879   7.5913   8.2381   C.ar      2 RES2   0.0000
    31 C14      2.0768   4.3627  10.7907   C.ar      2 RES2   0.0000
    32 C15     -0.9954  10.5216  11.9662   C.ar      2 RES2   0.0000
    33 C16      5.7223   7.5986  12.6458   C.ar      2 RES2   0.0000
    34 C17      0.2300   8.8853  13.1693   C.ar      2 RES2   0.0000
    35 H3       0.3668   8.4169  13.9614   H         2 RES2   0.0000
    36 C18     -0.1990  10.3257  10.8667   C.ar      2 RES2   0.0000
    37 H4      -0.3531  10.8146  10.0909   H         2 RES2   0.0000
    38 C19      3.4343   8.5556   8.3417   C.ar      2 RES2   0.0000
    39 C20      5.0545   9.5449  11.5988   C.ar      2 RES2   0.0000
    40 H5       4.4742   9.9934  11.0279   H         2 RES2   0.0000
    41 C21      2.7270   2.4188  12.1237   C.ar      2 RES2   0.0000
    42 H6       3.2730   2.0318  12.7703   H         2 RES2   0.0000
    43 C22      5.6164   5.8209   9.1939   C.ar      2 RES2   0.0000
    44 H7       5.7502   5.2330   9.9013   H         2 RES2   0.0000
    45 C23     -0.7818   9.7824  13.1016   C.ar      2 RES2   0.0000
    46 H8      -1.3407   9.8982  13.8362   H         2 RES2   0.0000
    47 C24      6.3627   5.5293  13.6970   C.ar      2 RES2   0.0000
    48 H9       6.2328   4.6214  13.8541   H         2 RES2   0.0000
    49 C25      6.8098   8.2523  13.2771   C.ar      2 RES2   0.0000
    50 C26      1.0666   3.5816  10.2299   C.ar      2 RES2   0.0000
    51 H10      0.4918   3.9573   9.6023   H         2 RES2   0.0000
    52 C27      5.2855   7.5198   7.0709   C.ar      2 RES2   0.0000
    53 C28      1.7529   1.6744  11.5325   C.ar      2 RES2   0.0000
    54 C29      3.2426   9.4423   7.3126   C.ar      2 RES2   0.0000
    55 H11      2.5878  10.0983   7.3850   H         2 RES2   0.0000
    56 C30      7.6812   7.5031  14.1017   C.ar      2 RES2   0.0000
    57 H12      8.4087   7.9133  14.5105   H         2 RES2   0.0000
    58 C31      7.4467   6.1951  14.2868   C.ar      2 RES2   0.0000
    59 H13      8.0267   5.7099  14.8274   H         2 RES2   0.0000
    60 C32      4.0250   9.3657   6.1578   C.ar      2 RES2   0.0000
    61 H14      3.8650   9.9550   5.4558   H         2 RES2   0.0000
    62 C33      0.9120   2.2735  10.5890   C.ar      2 RES2   0.0000
    63 H15      0.2330   1.7712  10.1994   H         2 RES2   0.0000
    64 C34      6.9535   9.6387  13.0201   C.ar      2 RES2   0.0000
    65 H16      7.6459  10.1162  13.4174   H         2 RES2   0.0000
    66 C35      6.4351   5.7102   8.0447   C.ar      2 RES2   0.0000
    67 H17      7.0850   5.0461   8.0029   H         2 RES2   0.0000
    68 C36      6.0918  10.2630  12.2065   C.ar      2 RES2   0.0000
    69 H18      6.1824  11.1745  12.0437   H         2 RES2   0.0000
    70 C37      5.0030   8.4563   6.0473   C.ar      2 RES2   0.0000
    71 H19      5.5146   8.4387   5.2703   H         2 RES2   0.0000
    72 C38      6.2799   6.5487   7.0198   C.ar      2 RES2   0.0000
    73 H20      6.8333   6.4859   6.2748   H         2 RES2   0.0000
    74 C39     -2.1423  12.3831  11.0021   C.3       2 RES2   0.0000
    75 H21     -2.2496  11.9391  10.1575   H         2 RES2   0.0000
    76 H22     -1.3491  12.9237  10.9804   H         2 RES2   0.0000
    77 H23     -2.9052  12.9407  11.1698   H         2 RES2   0.0000
    78 C40      2.4249  -0.3639  12.5588   C.3       2 RES2   0.0000
    79 H24      3.2757  -0.3652  12.1142   H         2 RES2   0.0000
    80 H25      2.1228  -1.2683  12.6735   H         2 RES2   0.0000
    81 H26      2.5123   0.0556  13.4172   H         2 RES2   0.0000
    82 S1      13.5300   8.6389   2.6543   S.2       3 RES3  -1.0000
    83 C41     14.3579   9.9621   2.9090   C.1       3 RES3   0.0000
    84 N5      14.9667  10.9523   3.0983   N.1       3 RES3   0.0000
@<TRIPOS>BOND
     1     1     8    1
     2     2    10    1
     3     3     7    1
     4     4    12    1
     5     5     9    1
     6     6    11    1
     7     7     9   ar
     8     8     9   ar
     9    10    11   ar
    10    11     7   ar
    11    12     8   ar
    12    10    12   ar
    13    13    14    1
    14    14    31    1
    15    15    13    1
    16    16    13    1
    17    17    13    1
    18    18    13    1
    19    19    32    1
    20    20    13    1
    21    21    53    1
    22    22    17    2
    23    23    22    1
    24    24    16    2
    25    25    24    1
    26    26    15    1
    27    27    16    1
    28    28    22    1
    29    29    24    1
    30    30    20   ar
    31    31    29   ar
    32    32    36   ar
    33    33    18   ar
    34    34    26   ar
    35    35    34    1
    36    36    28   ar
    37    37    36    1
    38    38    17    1
    39    39    18   ar
    40    40    39    1
    41    41    29   ar
    42    42    41    1
    43    43    20   ar
    44    44    43    1
    45    45    32   ar
    46    46    45    1
    47    47    27   ar
    48    48    47    1
    49    49    33   ar
    50    50    31   ar
    51    51    50    1
    52    52    30   ar
    53    53    41   ar
    54    54    38   ar
    55    55    54    1
    56    56    49   ar
    57    57    56    1
    58    58    47   ar
    59    59    58    1
    60    60    54   ar
    61    61    60    1
    62    62    50   ar
    63    63    62    1
    64    64    49   ar
    65    65    64    1
    66    66    43   ar
    67    67    66    1
    68    68    39   ar
    69    69    68    1
    70    70    52   ar
    71    71    70    1
    72    72    52   ar
    73    73    72    1
    74    74    19    1
    75    75    74    1
    76    76    74    1
    77    77    74    1
    78    78    21    1
    79    79    78    1
    80    80    78    1
    81    81    78    1
    82    26    28   ar
    83    27    33   ar
    84    30    38   ar
    85    34    45   ar
    86    53    62   ar
    87    56    58   ar
    88    60    70   ar
    89    64    68   ar
    90    66    72   ar
    91    82    83    1
    92    83    84    3
@<TRIPOS>SUBSTRUCTURE
     1 RES1        1 GROUP             0 ****  ****    0  
     2 RES2       13 GROUP             0 ****  ****    0  
     3 RES3       82 GROUP             0 ****  ****    0  
@<TRIPOS>CRYSIN
   11.6372   12.8990   14.1483   95.8340  101.0010   90.1330     2     1
