@<TRIPOS>MOLECULE
OPEVUD01
    90    97     4     0     0
SMALL
USER_CHARGES
****
Generated from the CSD

@<TRIPOS>ATOM
     1 I1       6.4703  10.7377   8.6940   I         1 RES1   0.0000
     2 I2      11.2314   8.9504   5.3413   I         1 RES1   0.0000
     3 I3       9.9567   6.2548  10.6090   I         1 RES1   0.0000
     4 F1       7.6919   8.4141  10.4093   F         1 RES1   0.0000
     5 F2      11.3683   7.0461   7.8784   F         1 RES1   0.0000
     6 F3       8.7019  10.6164   6.3884   F         1 RES1   0.0000
     7 C1       8.1437   9.5332   8.4108   C.ar      1 RES1   0.0000
     8 C2       8.4547   8.5694   9.3248   C.ar      1 RES1   0.0000
     9 C3       9.5593   7.6980   9.1826   C.ar      1 RES1   0.0000
    10 C4      10.0753   8.8422   7.0883   C.ar      1 RES1   0.0000
    11 C5      10.3264   7.8622   8.0489   C.ar      1 RES1   0.0000
    12 C6       8.9787   9.6572   7.3080   C.ar      1 RES1   0.0000
    13 Fe1      3.4128   6.9208  11.1580   Fe        2 RES2   1.0000
    14 O1       2.3436   5.5418  10.4853   O.3       2 RES2   0.0000
    15 O2       2.1643   7.4845  12.4571   O.3       2 RES2   0.0000
    16 N1       4.3444   5.6557  12.4416   N.2       2 RES2   0.0000
    17 N2       4.7874   8.1988  11.9740   N.ar      2 RES2   0.0000
    18 N3       2.6984   8.2374   9.7995   N.2       2 RES2   0.0000
    19 N4       4.7587   6.6199   9.6178   N.ar      2 RES2   0.0000
    20 O3      -1.8840  11.2659  12.4289   O.3       2 RES2   0.0000
    21 O4       1.4105   0.3611  12.1416   O.3       2 RES2   0.0000
    22 C7       5.4645   6.2204  13.1120   C.ar      2 RES2   0.0000
    23 C8       5.6550   7.6021  12.8528   C.ar      2 RES2   0.0000
    24 C9       4.4666   7.3597   8.4883   C.ar      2 RES2   0.0000
    25 C10      1.6867   9.0365   9.9995   C.2       2 RES2   0.0000
    26 H1       1.4247   9.5811   9.2787   H         2 RES2   0.0000
    27 C11      3.9482   4.4559  12.7120   C.2       2 RES2   0.0000
    28 H2       4.3934   3.9956  13.4003   H         2 RES2   0.0000
    29 C12      3.3601   8.2267   8.5474   C.ar      2 RES2   0.0000
    30 C13      2.1462   4.3344  10.9839   C.ar      2 RES2   0.0000
    31 C14      2.8846   3.7784  12.0430   C.ar      2 RES2   0.0000
    32 C15      0.9439   9.1629  11.2092   C.ar      2 RES2   0.0000
    33 C16      6.6976   8.3166  13.4852   C.ar      2 RES2   0.0000
    34 C17      1.2149   8.4088  12.3669   C.ar      2 RES2   0.0000
    35 C18     -0.0912  10.1323  11.2050   C.ar      2 RES2   0.0000
    36 H3      -0.2552  10.6350  10.4278   H         2 RES2   0.0000
    37 C19      6.3431   5.5591  13.9330   C.ar      2 RES2   0.0000
    38 H4       6.2421   4.6371  14.0855   H         2 RES2   0.0000
    39 C20      5.7897   5.8004   9.5952   C.ar      2 RES2   0.0000
    40 H5       5.9918   5.3048  10.3673   H         2 RES2   0.0000
    41 C21      4.9125   9.5001  11.7501   C.ar      2 RES2   0.0000
    42 H6       4.3155   9.9164  11.1548   H         2 RES2   0.0000
    43 C22      7.5704   7.6027  14.3457   C.ar      2 RES2   0.0000
    44 H7       8.2711   8.0555  14.7790   H         2 RES2   0.0000
    45 C23      7.4013   6.2677  14.5485   C.ar      2 RES2   0.0000
    46 H8       7.9998   5.8076  15.1090   H         2 RES2   0.0000
    47 C24      5.2348   7.2289   7.2968   C.ar      2 RES2   0.0000
    48 C25      2.6362   2.4312  12.4683   C.ar      2 RES2   0.0000
    49 H9       3.1304   2.0651  13.1790   H         2 RES2   0.0000
    50 C26      3.0225   8.9602   7.4292   C.ar      2 RES2   0.0000
    51 H10      2.2781   9.5344   7.4518   H         2 RES2   0.0000
    52 C27      1.1535   3.5144  10.3825   C.ar      2 RES2   0.0000
    53 H11      0.6380   3.8559   9.6745   H         2 RES2   0.0000
    54 C28      6.7928   9.7070  13.2148   C.ar      2 RES2   0.0000
    55 H12      7.4652  10.2235  13.6214   H         2 RES2   0.0000
    56 C29     -0.8550  10.3444  12.3261   C.ar      2 RES2   0.0000
    57 C30      0.3974   8.6602  13.5049   C.ar      2 RES2   0.0000
    58 H13      0.5406   8.1659  14.2917   H         2 RES2   0.0000
    59 C31      1.6843   1.6828  11.8416   C.ar      2 RES2   0.0000
    60 C32      5.9097  10.2836  12.3712   C.ar      2 RES2   0.0000
    61 H14      5.9590  11.2063  12.1973   H         2 RES2   0.0000
    62 C33      6.3341   6.3232   7.3292   C.ar      2 RES2   0.0000
    63 H15      6.8708   6.2022   6.5678   H         2 RES2   0.0000
    64 C34      3.7875   8.8527   6.2602   C.ar      2 RES2   0.0000
    65 H16      3.5622   9.3712   5.5096   H         2 RES2   0.0000
    66 C35      0.9365   2.2356  10.8149   C.ar      2 RES2   0.0000
    67 H17      0.2642   1.7211  10.4070   H         2 RES2   0.0000
    68 C36      4.8605   7.9976   6.1968   C.ar      2 RES2   0.0000
    69 H18      5.3500   7.9310   5.3968   H         2 RES2   0.0000
    70 C37     -0.5812   9.5945  13.4809   C.ar      2 RES2   0.0000
    71 H19     -1.0903   9.7458  14.2560   H         2 RES2   0.0000
    72 C38      6.5972   5.6423   8.4587   C.ar      2 RES2   0.0000
    73 H20      7.3292   5.0531   8.4866   H         2 RES2   0.0000
    74 C39     -2.0964  12.0852  11.3360   C.3       2 RES2   0.0000
    75 H21     -2.3523  11.5445  10.5729   H         2 RES2   0.0000
    76 H22     -1.2802  12.5679  11.1315   H         2 RES2   0.0000
    77 H23     -2.8039  12.7165  11.5380   H         2 RES2   0.0000
    78 C40      2.3687  -0.3281  12.9218   C.3       2 RES2   0.0000
    79 H24      3.2390  -0.2620  12.4988   H         2 RES2   0.0000
    80 H25      2.1151  -1.2618  12.9953   H         2 RES2   0.0000
    81 H26      2.4093   0.0658  13.8078   H         2 RES2   0.0000
    82 S1       7.1562  15.6720  11.4436   S.2       3 RES3  -1.0000
    83 C41      6.1445  14.4381  11.1811   C.1       3 RES3   0.0000
    84 N5       5.4159  13.5612  11.0290   N.1       3 RES3   0.0000
    85 O5       3.8008  11.7377   9.7037   O.3       4 RES4   0.0000
    86 H27      4.3467  12.2985   9.9806   H         4 RES4   0.0000
    87 C42      2.7707  12.3841   9.0432   C.3       4 RES4   0.0000
    88 H28      2.5595  11.9048   8.2268   H         4 RES4   0.0000
    89 H29      3.0425  13.2889   8.8269   H         4 RES4   0.0000
    90 H30      1.9868  12.4094   9.6148   H         4 RES4   0.0000
@<TRIPOS>BOND
     1     1     7    1
     2     2    10    1
     3     3     9    1
     4     4     8    1
     5     5    11    1
     6     6    12    1
     7     7     8   ar
     8     8     9   ar
     9     9    11   ar
    10    10    11   ar
    11    12     7   ar
    12    10    12   ar
    13    13    14    1
    14    14    30    1
    15    15    13    1
    16    16    13    1
    17    17    13    1
    18    18    13    1
    19    19    13    1
    20    20    56    1
    21    21    59    1
    22    22    16    1
    23    23    17   ar
    24    24    19   ar
    25    25    18    2
    26    26    25    1
    27    27    16    2
    28    28    27    1
    29    29    18    1
    30    30    31   ar
    31    31    27    1
    32    32    25    1
    33    33    23   ar
    34    34    15    1
    35    35    32   ar
    36    36    35    1
    37    37    22   ar
    38    38    37    1
    39    39    19   ar
    40    40    39    1
    41    41    17   ar
    42    42    41    1
    43    43    33   ar
    44    44    43    1
    45    45    37   ar
    46    46    45    1
    47    47    24   ar
    48    48    31   ar
    49    49    48    1
    50    50    29   ar
    51    51    50    1
    52    52    30   ar
    53    53    52    1
    54    54    33   ar
    55    55    54    1
    56    56    35   ar
    57    57    34   ar
    58    58    57    1
    59    59    48   ar
    60    60    41   ar
    61    61    60    1
    62    62    47   ar
    63    63    62    1
    64    64    50   ar
    65    65    64    1
    66    66    52   ar
    67    67    66    1
    68    68    47   ar
    69    69    68    1
    70    70    56   ar
    71    71    70    1
    72    72    39   ar
    73    73    72    1
    74    74    20    1
    75    75    74    1
    76    76    74    1
    77    77    74    1
    78    78    21    1
    79    79    78    1
    80    80    78    1
    81    81    78    1
    82    22    23   ar
    83    24    29   ar
    84    32    34   ar
    85    43    45   ar
    86    54    60   ar
    87    57    70   ar
    88    59    66   ar
    89    62    72   ar
    90    64    68   ar
    91    82    83    1
    92    83    84    3
    93    85    86    1
    94    87    85    1
    95    88    87    1
    96    89    87    1
    97    90    87    1
@<TRIPOS>SUBSTRUCTURE
     1 RES1        1 GROUP             0 ****  ****    0  
     2 RES2       13 GROUP             0 ****  ****    0  
     3 RES3       82 GROUP             0 ****  ****    0  
     4 RES4       85 GROUP             0 ****  ****    0  
@<TRIPOS>CRYSIN
   11.4401   12.8003   14.3840   95.5970  100.2360   90.3670     2     1
