@<TRIPOS>MOLECULE
OPEVUD38
    90    97     4     0     0
SMALL
USER_CHARGES
****
Generated from the CSD

@<TRIPOS>ATOM
     1 I1      -2.4800   2.3132   8.6860   I         1 RES1   0.0000
     2 I2       2.3424   0.5428   5.4128   I         1 RES1   0.0000
     3 I3      -1.1099   5.0370   3.4508   I         1 RES1   0.0000
     4 F1       1.1603   2.8811   3.6973   F         1 RES1   0.0000
     5 F2       0.0561   0.6436   7.6636   F         1 RES1   0.0000
     6 F3      -2.5820   4.2315   6.1584   F         1 RES1   0.0000
     7 C1       0.3751   2.7372   4.7561   C.ar      1 RES1   0.0000
     8 C2       0.6660   1.7393   5.6713   C.ar      1 RES1   0.0000
     9 C3      -0.7316   3.5856   4.8786   C.ar      1 RES1   0.0000
    10 C4      -1.2966   2.4273   6.9455   C.ar      1 RES1   0.0000
    11 C5      -0.2023   1.6044   6.7540   C.ar      1 RES1   0.0000
    12 C6      -1.5193   3.4086   5.9937   C.ar      1 RES1   0.0000
    13 Fe1      5.3713   4.3589   2.9501   Fe        2 RES2   1.0000
    14 O1       6.4989   5.6692   3.6607   O.3       2 RES2   0.0000
    15 O2       6.5836   3.8737   1.6009   O.3       2 RES2   0.0000
    16 O3       7.5957  10.7910   1.9275   O.3       2 RES2   0.0000
    17 O4      10.7580   0.2249   1.6149   O.3       2 RES2   0.0000
    18 N1       6.1026   3.1089   4.2675   N.2       2 RES2   0.0000
    19 N2       4.0600   4.7106   4.4168   N.ar      2 RES2   0.0000
    20 N3       4.5305   5.5843   1.6769   N.2       2 RES2   0.0000
    21 N4       4.0693   3.0760   2.1753   N.ar      2 RES2   0.0000
    22 C7       3.4044   5.0397   1.0137   C.ar      2 RES2   0.0000
    23 C8       3.2072   3.6607   1.2798   C.ar      2 RES2   0.0000
    24 C9       4.3257   3.9933   5.5657   C.ar      2 RES2   0.0000
    25 C10      6.7413   6.8571   3.1341   C.ar      2 RES2   0.0000
    26 C11      7.8834   2.2485   2.8638   C.ar      2 RES2   0.0000
    27 C12      7.1473   2.3534   4.0817   C.2       2 RES2   0.0000
    28 H1       7.4432   1.8295   4.8171   H         2 RES2   0.0000
    29 C13      8.9479   1.3093   2.8610   C.ar      2 RES2   0.0000
    30 H2       9.1378   0.8061   3.6443   H         2 RES2   0.0000
    31 C14      7.5639   2.9918   1.7065   C.ar      2 RES2   0.0000
    32 C15      4.9741   6.7607   1.3742   C.2       2 RES2   0.0000
    33 H3       4.5540   7.2193   0.6573   H         2 RES2   0.0000
    34 C16      5.4315   3.1203   5.5150   C.ar      2 RES2   0.0000
    35 C17      6.0422   7.4134   2.0373   C.ar      2 RES2   0.0000
    36 C18      7.7501   7.6451   3.7381   C.ar      2 RES2   0.0000
    37 H4       8.2530   7.2917   4.4626   H         2 RES2   0.0000
    38 C19      7.2864   9.4833   2.2358   C.ar      2 RES2   0.0000
    39 C20      9.7053   1.1235   1.7262   C.ar      2 RES2   0.0000
    40 C21      2.5253   5.7011   0.1830   C.ar      2 RES2   0.0000
    41 H5       2.6262   6.6320   0.0197   H         2 RES2   0.0000
    42 C22      3.0278   5.5516   4.4210   C.ar      2 RES2   0.0000
    43 H6       2.8346   6.0470   3.6330   H         2 RES2   0.0000
    44 C23      6.3377   8.7410   1.6009   C.ar      2 RES2   0.0000
    45 H7       5.8679   9.1094   0.8615   H         2 RES2   0.0000
    46 C24      2.1705   2.9354   0.6519   C.ar      2 RES2   0.0000
    47 C25      8.3713   2.7614   0.5519   C.ar      2 RES2   0.0000
    48 H8       8.1871   3.2382  -0.2488   H         2 RES2   0.0000
    49 C26      3.9488   1.7777   2.4133   C.ar      2 RES2   0.0000
    50 H9       4.5386   1.3665   3.0352   H         2 RES2   0.0000
    51 C27      1.2962   3.6457  -0.2168   C.ar      2 RES2   0.0000
    52 H10      0.5892   3.1873  -0.6550   H         2 RES2   0.0000
    53 C28      3.5505   4.1313   6.7273   C.ar      2 RES2   0.0000
    54 C29      9.4082   1.8633   0.5787   C.ar      2 RES2   0.0000
    55 H11      9.9372   1.7423  -0.2012   H         2 RES2   0.0000
    56 C30      5.7458   2.3796   6.6329   C.ar      2 RES2   0.0000
    57 H12      6.4834   1.7806   6.6131   H         2 RES2   0.0000
    58 C31      8.0091   8.9162   3.2876   C.ar      2 RES2   0.0000
    59 H13      8.6973   9.4229   3.7027   H         2 RES2   0.0000
    60 C32      4.9842   2.5061   7.7959   C.ar      2 RES2   0.0000
    61 H14      5.2117   1.9910   8.5609   H         2 RES2   0.0000
    62 C33      2.9756   0.9893   1.7740   C.ar      2 RES2   0.0000
    63 H15      2.9386   0.0549   1.9440   H         2 RES2   0.0000
    64 C34      2.0908   1.5512   0.9194   C.ar      2 RES2   0.0000
    65 H16      1.4225   1.0197   0.5030   H         2 RES2   0.0000
    66 C35      2.2163   5.7301   5.5544   C.ar      2 RES2   0.0000
    67 H17      1.4901   6.3416   5.5271   H         2 RES2   0.0000
    68 C36      6.6340  11.5041   1.1602   C.3       2 RES2   0.0000
    69 H18      6.6318  11.1633   0.2409   H         2 RES2   0.0000
    70 H19      6.8623  12.4569   1.1545   H         2 RES2   0.0000
    71 H20      5.7460  11.3825   1.5556   H         2 RES2   0.0000
    72 C37      2.4678   5.0350   6.6808   C.ar      2 RES2   0.0000
    73 H21      1.9148   5.1531   7.4449   H         2 RES2   0.0000
    74 C38      3.9097   3.3634   7.8522   C.ar      2 RES2   0.0000
    75 H22      3.4078   3.4385   8.6549   H         2 RES2   0.0000
    76 C39      1.4710   4.9802  -0.4252   C.ar      2 RES2   0.0000
    77 H23      0.8662   5.4405  -0.9949   H         2 RES2   0.0000
    78 C40     10.9791  -0.6278   2.7075   C.3       2 RES2   0.0000
    79 H24     11.7096  -1.2463   2.4957   H         2 RES2   0.0000
    80 H25     10.1637  -1.1370   2.8948   H         2 RES2   0.0000
    81 H26     11.2203  -0.0949   3.4937   H         2 RES2   0.0000
    82 S1       1.5022  -4.1756   2.6466   S.2       3 RES3  -1.0000
    83 C41      2.6425  -3.0663   2.9004   C.1       3 RES3   0.0000
    84 N5       3.4775  -2.2760   3.0511   N.1       3 RES3   0.0000
    85 O5       5.0128  -0.4517   4.4365   O.3       4 RES4   0.0000
    86 H27      4.5260  -1.0564   4.1157   H         4 RES4   0.0000
    87 C42      6.1727  -1.0207   4.9617   C.3       4 RES4   0.0000
    88 H28      6.9139  -0.8888   4.3327   H         4 RES4   0.0000
    89 H29      6.0319  -1.9792   5.1036   H         4 RES4   0.0000
    90 H30      6.3898  -0.5912   5.8152   H         4 RES4   0.0000
@<TRIPOS>BOND
     1     1    10    1
     2     2     8    1
     3     3     9    1
     4     4     7    1
     5     5    11    1
     6     6    12    1
     7     7     8   ar
     8     8    11   ar
     9     9     7   ar
    10    10    11   ar
    11    12     9   ar
    12    10    12   ar
    13    13    14    1
    14    14    25    1
    15    15    13    1
    16    16    38    1
    17    17    39    1
    18    18    13    1
    19    19    13    1
    20    20    13    1
    21    21    13    1
    22    22    20    1
    23    23    21   ar
    24    24    19   ar
    25    25    35   ar
    26    26    27    1
    27    27    18    2
    28    28    27    1
    29    29    26   ar
    30    30    29    1
    31    31    15    1
    32    32    20    2
    33    33    32    1
    34    34    18    1
    35    35    32    1
    36    36    25   ar
    37    37    36    1
    38    38    44   ar
    39    39    29   ar
    40    40    22   ar
    41    41    40    1
    42    42    19   ar
    43    43    42    1
    44    44    35   ar
    45    45    44    1
    46    46    23   ar
    47    47    31   ar
    48    48    47    1
    49    49    21   ar
    50    50    49    1
    51    51    46   ar
    52    52    51    1
    53    53    24   ar
    54    54    39   ar
    55    55    54    1
    56    56    34   ar
    57    57    56    1
    58    58    36   ar
    59    59    58    1
    60    60    56   ar
    61    61    60    1
    62    62    49   ar
    63    63    62    1
    64    64    46   ar
    65    65    64    1
    66    66    42   ar
    67    67    66    1
    68    68    16    1
    69    69    68    1
    70    70    68    1
    71    71    68    1
    72    72    53   ar
    73    73    72    1
    74    74    53   ar
    75    75    74    1
    76    76    40   ar
    77    77    76    1
    78    78    17    1
    79    79    78    1
    80    80    78    1
    81    81    78    1
    82    22    23   ar
    83    24    34   ar
    84    26    31   ar
    85    38    58   ar
    86    47    54   ar
    87    51    76   ar
    88    60    74   ar
    89    62    64   ar
    90    66    72   ar
    91    82    83    1
    92    83    84    3
    93    85    86    1
    94    87    85    1
    95    88    87    1
    96    89    87    1
    97    90    87    1
@<TRIPOS>SUBSTRUCTURE
     1 RES1        1 GROUP             0 ****  ****    0  
     2 RES2       13 GROUP             0 ****  ****    0  
     3 RES3       82 GROUP             0 ****  ****    0  
     4 RES4       85 GROUP             0 ****  ****    0  
@<TRIPOS>CRYSIN
   11.5478   12.5772   14.3955   95.4100  100.6970   90.0940     2     1
