@<TRIPOS>MOLECULE
OPEVUD26
    90    97     4     0     0
SMALL
USER_CHARGES
****
Generated from the CSD

@<TRIPOS>ATOM
     1 I1      -2.3765   2.5412   8.8188   I         1 RES1   0.0000
     2 I2       2.3256   0.7201   5.3957   I         1 RES1   0.0000
     3 I3      -1.1826   5.1926   3.5133   I         1 RES1   0.0000
     4 F1       1.0743   3.0196   3.6799   F         1 RES1   0.0000
     5 F2      -2.5496   4.4324   6.2752   F         1 RES1   0.0000
     6 F3       0.1395   0.8907   7.7449   F         1 RES1   0.0000
     7 C1       0.6618   1.9256   5.6898   C.ar      1 RES1   0.0000
     8 C2      -0.7640   3.7506   4.9479   C.ar      1 RES1   0.0000
     9 C3      -1.2339   2.6480   7.0650   C.ar      1 RES1   0.0000
    10 C4       0.3248   2.8877   4.7815   C.ar      1 RES1   0.0000
    11 C5      -1.5003   3.6077   6.0918   C.ar      1 RES1   0.0000
    12 C6      -0.1474   1.8194   6.8323   C.ar      1 RES1   0.0000
    13 Fe1      5.4362   4.5463   2.9023   Fe        2 RES2   1.0000
    14 O1       6.7257   3.8748   1.6629   O.3       2 RES2   0.0000
    15 O2       6.4454   6.0206   3.5219   O.3       2 RES2   0.0000
    16 O3      10.6513   0.0055   1.7179   O.3       2 RES2   0.0000
    17 N1       6.1312   3.1556   4.3104   N.2       2 RES2   0.0000
    18 N2       4.4099   5.8489   1.6122   N.2       2 RES2   0.0000
    19 N3       3.9704   3.2874   2.0381   N.ar      2 RES2   0.0000
    20 O4       7.2360  11.2274   1.9182   O.3       2 RES2   0.0000
    21 N4       4.0683   4.7987   4.5375   N.ar      2 RES2   0.0000
    22 C7       7.8575   2.1586   2.8971   C.ar      2 RES2   0.0000
    23 C8       7.1010   2.3063   4.1016   C.2       2 RES2   0.0000
    24 H1       7.3235   1.7425   4.8062   H         2 RES2   0.0000
    25 C9       4.3714   4.0499   5.6475   C.ar      2 RES2   0.0000
    26 C10      5.4771   3.1800   5.5742   C.ar      2 RES2   0.0000
    27 C11      3.2882   5.2911   0.9436   C.ar      2 RES2   0.0000
    28 C12      3.0975   3.8949   1.1961   C.ar      2 RES2   0.0000
    29 C13      7.6443   2.9317   1.7405   C.ar      2 RES2   0.0000
    30 C14      8.8725   1.1620   2.9140   C.ar      2 RES2   0.0000
    31 H2       9.0133   0.6579   3.6819   H         2 RES2   0.0000
    32 C15      6.6035   7.2478   3.0551   C.ar      2 RES2   0.0000
    33 C16      5.8145   7.7879   2.0226   C.ar      2 RES2   0.0000
    34 C17      4.7598   7.0780   1.3766   C.2       2 RES2   0.0000
    35 H3       4.2790   7.5364   0.7262   H         2 RES2   0.0000
    36 C18      9.6461   0.9425   1.7983   C.ar      2 RES2   0.0000
    37 C19      2.0506   3.2005   0.5628   C.ar      2 RES2   0.0000
    38 C20      2.3963   5.9432   0.1227   C.ar      2 RES2   0.0000
    39 H4       2.4919   6.8555  -0.0271   H         2 RES2   0.0000
    40 C21      3.6169   4.1719   6.8619   C.ar      2 RES2   0.0000
    41 C22      7.5970   8.0616   3.6418   C.ar      2 RES2   0.0000
    42 H5       8.1394   7.7183   4.3149   H         2 RES2   0.0000
    43 C23      8.4564   2.6540   0.6093   C.ar      2 RES2   0.0000
    44 H6       8.3290   3.1348  -0.1756   H         2 RES2   0.0000
    45 C24      5.8210   2.4468   6.6842   C.ar      2 RES2   0.0000
    46 H7       6.5502   1.8708   6.6471   H         2 RES2   0.0000
    47 C25      3.8371   1.9780   2.2694   C.ar      2 RES2   0.0000
    48 H8       4.4299   1.5591   2.8508   H         2 RES2   0.0000
    49 C26      6.0093   9.1394   1.6122   C.ar      2 RES2   0.0000
    50 H9       5.4896   9.4977   0.9291   H         2 RES2   0.0000
    51 C27      1.1688   3.9116  -0.2736   C.ar      2 RES2   0.0000
    52 H10      0.4601   3.4681  -0.6812   H         2 RES2   0.0000
    53 C28      5.0812   2.5564   7.8803   C.ar      2 RES2   0.0000
    54 H11      5.3371   2.0628   8.6257   H         2 RES2   0.0000
    55 C29      1.9430   1.8095   0.8279   C.ar      2 RES2   0.0000
    56 H12      1.2678   1.3105   0.4291   H         2 RES2   0.0000
    57 C30      6.9637   9.9104   2.2229   C.ar      2 RES2   0.0000
    58 C31      9.4187   1.6917   0.6587   C.ar      2 RES2   0.0000
    59 H13      9.9387   1.5339  -0.0964   H         2 RES2   0.0000
    60 C32      1.3463   5.2444  -0.4923   C.ar      2 RES2   0.0000
    61 H14      0.7621   5.6977  -1.0557   H         2 RES2   0.0000
    62 C33      2.8246   1.2149   1.6587   C.ar      2 RES2   0.0000
    63 H15      2.7629   0.3018   1.8265   H         2 RES2   0.0000
    64 C34      3.0388   5.6223   4.5812   C.ar      2 RES2   0.0000
    65 H16      2.8335   6.1266   3.8282   H         2 RES2   0.0000
    66 C35      7.7654   9.3541   3.2229   C.ar      2 RES2   0.0000
    67 H17      8.4297   9.8746   3.6130   H         2 RES2   0.0000
    68 C36      4.0125   3.3651   7.9536   C.ar      2 RES2   0.0000
    69 H18      3.5208   3.3948   8.7425   H         2 RES2   0.0000
    70 C37      2.5362   5.0403   6.8506   C.ar      2 RES2   0.0000
    71 H19      2.0109   5.1313   7.6131   H         2 RES2   0.0000
    72 C38      2.2372   5.7620   5.7378   C.ar      2 RES2   0.0000
    73 H20      1.5110   6.3423   5.7371   H         2 RES2   0.0000
    74 C39      6.2638  11.9247   1.1509   C.3       2 RES2   0.0000
    75 H21      6.1818  11.5140   0.2876   H         2 RES2   0.0000
    76 H22      6.5341  12.8397   1.0466   H         2 RES2   0.0000
    77 H23      5.4165  11.8914   1.6027   H         2 RES2   0.0000
    78 C40     10.8645  -0.8184   2.8125   C.3       2 RES2   0.0000
    79 H24     11.5413  -1.4649   2.5983   H         2 RES2   0.0000
    80 H25     10.0484  -1.2713   3.0357   H         2 RES2   0.0000
    81 H26     11.1523  -0.2893   3.5598   H         2 RES2   0.0000
    82 S1       1.7693  -4.3952   2.6343   S.2       3 RES3  -1.0000
    83 C41      2.6704  -3.0609   2.9013   C.1       3 RES3   0.0000
    84 N5       3.2956  -2.1132   3.0537   N.1       3 RES3   0.0000
    85 O5       4.9703  -0.3129   4.3569   O.3       4 RES4   0.0000
    86 H27      4.5863  -0.8372   3.8562   H         4 RES4   0.0000
    87 C42      5.8969  -0.9946   5.1115   C.3       4 RES4   0.0000
    88 H28      6.7492  -0.9704   4.6704   H         4 RES4   0.0000
    89 H29      5.6163  -1.9065   5.2161   H         4 RES4   0.0000
    90 H30      5.9719  -0.5817   5.9752   H         4 RES4   0.0000
@<TRIPOS>BOND
     1     1     9    1
     2     2     7    1
     3     3     8    1
     4     4    10    1
     5     5    11    1
     6     6    12    1
     7     7    10   ar
     8     8    10   ar
     9     9    11   ar
    10    11     8   ar
    11    12     7   ar
    12     9    12   ar
    13    13    14    1
    14    14    29    1
    15    15    13    1
    16    16    36    1
    17    17    13    1
    18    18    13    1
    19    19    13    1
    20    20    57    1
    21    21    13    1
    22    22    23    1
    23    23    17    2
    24    24    23    1
    25    25    21   ar
    26    26    17    1
    27    27    18    1
    28    28    19   ar
    29    29    22   ar
    30    30    22   ar
    31    31    30    1
    32    32    15    1
    33    33    32   ar
    34    34    18    2
    35    35    34    1
    36    36    30   ar
    37    37    28   ar
    38    38    27   ar
    39    39    38    1
    40    40    25   ar
    41    41    32   ar
    42    42    41    1
    43    43    29   ar
    44    44    43    1
    45    45    26   ar
    46    46    45    1
    47    47    19   ar
    48    48    47    1
    49    49    33   ar
    50    50    49    1
    51    51    37   ar
    52    52    51    1
    53    53    45   ar
    54    54    53    1
    55    55    37   ar
    56    56    55    1
    57    57    49   ar
    58    58    36   ar
    59    59    58    1
    60    60    38   ar
    61    61    60    1
    62    62    47   ar
    63    63    62    1
    64    64    21   ar
    65    65    64    1
    66    66    41   ar
    67    67    66    1
    68    68    40   ar
    69    69    68    1
    70    70    40   ar
    71    71    70    1
    72    72    64   ar
    73    73    72    1
    74    74    20    1
    75    75    74    1
    76    76    74    1
    77    77    74    1
    78    78    16    1
    79    79    78    1
    80    80    78    1
    81    81    78    1
    82    25    26   ar
    83    27    28   ar
    84    33    34    1
    85    43    58   ar
    86    51    60   ar
    87    53    68   ar
    88    55    62   ar
    89    57    66   ar
    90    70    72   ar
    91    82    83    1
    92    83    84    3
    93    85    86    1
    94    87    85    1
    95    88    87    1
    96    89    87    1
    97    90    87    1
@<TRIPOS>SUBSTRUCTURE
     1 RES1        1 GROUP             0 ****  ****    0  
     2 RES2       13 GROUP             0 ****  ****    0  
     3 RES3       82 GROUP             0 ****  ****    0  
     4 RES4       85 GROUP             0 ****  ****    0  
@<TRIPOS>CRYSIN
   11.3787   13.0221   14.3905   95.7770   99.7810   90.5620     2     1
