@<TRIPOS>MOLECULE
OPEVUD16
    90    97     4     0     0
SMALL
USER_CHARGES
****
Generated from the CSD

@<TRIPOS>ATOM
     1 I1      -2.3679   2.5623   8.8355   I         1 RES1   0.0000
     2 I2       2.3188   0.7282   5.4030   I         1 RES1   0.0000
     3 I3      -1.1874   5.1994   3.5207   I         1 RES1   0.0000
     4 F1       1.0630   3.0249   3.6875   F         1 RES1   0.0000
     5 F2      -2.5407   4.4540   6.2921   F         1 RES1   0.0000
     6 F3       0.1450   0.9080   7.7589   F         1 RES1   0.0000
     7 C1       0.6623   1.9299   5.6978   C.ar      1 RES1   0.0000
     8 C2      -0.7734   3.7627   4.9481   C.ar      1 RES1   0.0000
     9 C3      -1.2273   2.6700   7.0742   C.ar      1 RES1   0.0000
    10 C4       0.3172   2.8946   4.7858   C.ar      1 RES1   0.0000
    11 C5      -1.5027   3.6259   6.1086   C.ar      1 RES1   0.0000
    12 C6      -0.1492   1.8390   6.8441   C.ar      1 RES1   0.0000
    13 Fe1      5.4473   4.5581   2.9010   Fe        2 RES2   1.0000
    14 O1       6.7446   3.8843   1.6701   O.3       2 RES2   0.0000
    15 O2       6.4507   6.0368   3.5096   O.3       2 RES2   0.0000
    16 N1       4.4043   5.8671   1.6094   N.2       2 RES2   0.0000
    17 N2       6.1398   3.1615   4.3171   N.2       2 RES2   0.0000
    18 N3       3.9674   3.2980   2.0343   N.ar      2 RES2   0.0000
    19 O3      10.6509   0.0040   1.7251   O.3       2 RES2   0.0000
    20 N4       4.0817   4.8025   4.5416   N.ar      2 RES2   0.0000
    21 O4       7.2211  11.2460   1.9171   O.3       2 RES2   0.0000
    22 C7       4.3810   4.0651   5.6526   C.ar      2 RES2   0.0000
    23 C8       3.0980   3.9055   1.1915   C.ar      2 RES2   0.0000
    24 C9       3.2914   5.3065   0.9388   C.ar      2 RES2   0.0000
    25 C10      7.8573   2.1628   2.9039   C.ar      2 RES2   0.0000
    26 C11      5.4848   3.1871   5.5721   C.ar      2 RES2   0.0000
    27 C12      7.1065   2.3088   4.1067   C.2       2 RES2   0.0000
    28 H1       7.3263   1.7413   4.8094   H         2 RES2   0.0000
    29 C13      4.7547   7.0951   1.3750   C.2       2 RES2   0.0000
    30 H2       4.2743   7.5528   0.7232   H         2 RES2   0.0000
    31 C14      5.8086   7.8083   2.0216   C.ar      2 RES2   0.0000
    32 C15      7.6467   2.9325   1.7463   C.ar      2 RES2   0.0000
    33 C16      6.6071   7.2672   3.0536   C.ar      2 RES2   0.0000
    34 C17      9.6467   0.9381   1.8056   C.ar      2 RES2   0.0000
    35 C18      8.8759   1.1643   2.9152   C.ar      2 RES2   0.0000
    36 H3       9.0180   0.6606   3.6839   H         2 RES2   0.0000
    37 C19      2.0446   3.2103   0.5605   C.ar      2 RES2   0.0000
    38 C20      3.6310   4.1754   6.8723   C.ar      2 RES2   0.0000
    39 C21      2.4071   5.9560   0.1200   C.ar      2 RES2   0.0000
    40 H4       2.5081   6.8671  -0.0359   H         2 RES2   0.0000
    41 C22      6.0034   9.1597   1.6066   C.ar      2 RES2   0.0000
    42 H5       5.4815   9.5171   0.9248   H         2 RES2   0.0000
    43 C23      1.1649   3.9348  -0.2767   C.ar      2 RES2   0.0000
    44 H6       0.4552   3.4952  -0.6860   H         2 RES2   0.0000
    45 C24      6.9611   9.9318   2.2136   C.ar      2 RES2   0.0000
    46 C25      3.8319   1.9895   2.2630   C.ar      2 RES2   0.0000
    47 H7       4.4262   1.5691   2.8414   H         2 RES2   0.0000
    48 C26      5.8403   2.4631   6.6930   C.ar      2 RES2   0.0000
    49 H8       6.5749   1.8926   6.6586   H         2 RES2   0.0000
    50 C27      7.5900   8.0828   3.6310   C.ar      2 RES2   0.0000
    51 H9       8.1334   7.7425   4.3046   H         2 RES2   0.0000
    52 C28      8.4649   2.6550   0.6155   C.ar      2 RES2   0.0000
    53 H10      8.3457   3.1421  -0.1682   H         2 RES2   0.0000
    54 C29      3.0435   5.6167   4.5952   C.ar      2 RES2   0.0000
    55 H11      2.8253   6.1106   3.8382   H         2 RES2   0.0000
    56 C30      1.9346   1.8245   0.8301   C.ar      2 RES2   0.0000
    57 H12      1.2539   1.3261   0.4397   H         2 RES2   0.0000
    58 C31      7.7595   9.3836   3.2131   C.ar      2 RES2   0.0000
    59 H13      8.4211   9.9055   3.6066   H         2 RES2   0.0000
    60 C32      9.4232   1.6812   0.6649   C.ar      2 RES2   0.0000
    61 H14      9.9389   1.5150  -0.0904   H         2 RES2   0.0000
    62 C33      2.8207   1.2319   1.6546   C.ar      2 RES2   0.0000
    63 H15      2.7615   0.3190   1.8215   H         2 RES2   0.0000
    64 C34      2.5460   5.0582   6.8568   C.ar      2 RES2   0.0000
    65 H16      2.0210   5.1550   7.6185   H         2 RES2   0.0000
    66 C35      1.3444   5.2585  -0.4899   C.ar      2 RES2   0.0000
    67 H17      0.7575   5.7152  -1.0480   H         2 RES2   0.0000
    68 C36      5.1082   2.5766   7.8817   C.ar      2 RES2   0.0000
    69 H18      5.3723   2.0873   8.6282   H         2 RES2   0.0000
    70 C37      2.2519   5.7716   5.7500   C.ar      2 RES2   0.0000
    71 H19      1.5317   6.3605   5.7496   H         2 RES2   0.0000
    72 C38      4.0235   3.3822   7.9678   C.ar      2 RES2   0.0000
    73 H20      3.5338   3.4132   8.7577   H         2 RES2   0.0000
    74 C39      6.2658  11.9494   1.1435   C.3       2 RES2   0.0000
    75 H21      6.1364  11.4985   0.3063   H         2 RES2   0.0000
    76 H22      6.5798  12.8419   0.9817   H         2 RES2   0.0000
    77 H23      5.4327  11.9850   1.6200   H         2 RES2   0.0000
    78 C40     10.8681  -0.8220   2.8221   C.3       2 RES2   0.0000
    79 H24     11.5695  -1.4447   2.6192   H         2 RES2   0.0000
    80 H25     10.0619  -1.3021   3.0249   H         2 RES2   0.0000
    81 H26     11.1219  -0.2883   3.5784   H         2 RES2   0.0000
    82 S1       1.7863  -4.4077   2.6329   S.2       3 RES3  -1.0000
    83 C41      2.6682  -3.0639   2.9011   C.1       3 RES3   0.0000
    84 N5       3.2810  -2.1061   3.0550   N.1       3 RES3   0.0000
    85 O5       4.9749  -0.3190   4.3693   O.3       4 RES4   0.0000
    86 H27      4.4956  -0.8470   3.9641   H         4 RES4   0.0000
    87 C42      5.8769  -1.0078   5.1147   C.3       4 RES4   0.0000
    88 H28      6.7656  -0.7804   4.8325   H         4 RES4   0.0000
    89 H29      5.7349  -1.9498   4.9999   H         4 RES4   0.0000
    90 H30      5.7673  -0.7785   6.0413   H         4 RES4   0.0000
@<TRIPOS>BOND
     1     1     9    1
     2     2     7    1
     3     3     8    1
     4     4    10    1
     5     5    11    1
     6     6    12    1
     7     7    10   ar
     8     8    10   ar
     9     9    11   ar
    10    11     8   ar
    11    12     7   ar
    12     9    12   ar
    13    13    14    1
    14    14    32    1
    15    15    13    1
    16    16    13    1
    17    17    13    1
    18    18    13    1
    19    19    34    1
    20    20    13    1
    21    21    45    1
    22    22    20   ar
    23    23    18   ar
    24    24    16    1
    25    25    27    1
    26    26    17    1
    27    27    17    2
    28    28    27    1
    29    29    16    2
    30    30    29    1
    31    31    29    1
    32    32    25   ar
    33    33    15    1
    34    34    35   ar
    35    35    25   ar
    36    36    35    1
    37    37    23   ar
    38    38    22   ar
    39    39    24   ar
    40    40    39    1
    41    41    31   ar
    42    42    41    1
    43    43    37   ar
    44    44    43    1
    45    45    41   ar
    46    46    18   ar
    47    47    46    1
    48    48    26   ar
    49    49    48    1
    50    50    33   ar
    51    51    50    1
    52    52    32   ar
    53    53    52    1
    54    54    20   ar
    55    55    54    1
    56    56    37   ar
    57    57    56    1
    58    58    45   ar
    59    59    58    1
    60    60    34   ar
    61    61    60    1
    62    62    46   ar
    63    63    62    1
    64    64    38   ar
    65    65    64    1
    66    66    39   ar
    67    67    66    1
    68    68    48   ar
    69    69    68    1
    70    70    54   ar
    71    71    70    1
    72    72    38   ar
    73    73    72    1
    74    74    21    1
    75    75    74    1
    76    76    74    1
    77    77    74    1
    78    78    19    1
    79    79    78    1
    80    80    78    1
    81    81    78    1
    82    22    26   ar
    83    23    24   ar
    84    31    33   ar
    85    43    66   ar
    86    50    58   ar
    87    52    60   ar
    88    56    62   ar
    89    64    70   ar
    90    68    72   ar
    91    82    83    1
    92    83    84    3
    93    85    86    1
    94    87    85    1
    95    88    87    1
    96    89    87    1
    97    90    87    1
@<TRIPOS>SUBSTRUCTURE
     1 RES1        1 GROUP             0 ****  ****    0  
     2 RES2       13 GROUP             0 ****  ****    0  
     3 RES3       82 GROUP             0 ****  ****    0  
     4 RES4       85 GROUP             0 ****  ****    0  
@<TRIPOS>CRYSIN
   11.3905   13.0551   14.4005   95.7740   99.7130   90.5860     2     1
