@<TRIPOS>MOLECULE
OPEVIR23
    84    92     3     0     0
SMALL
USER_CHARGES
****
Generated from the CSD

@<TRIPOS>ATOM
     1 I1      14.8266  10.4678   8.3229   I         1 RES1   0.0000
     2 I2       9.8462  12.3515   5.3550   I         1 RES1   0.0000
     3 I3      12.8112   7.5065   3.4603   I         1 RES1   0.0000
     4 F1      12.2703  12.2012   7.4460   F         1 RES1   0.0000
     5 F2      14.5382   8.3646   5.9717   F         1 RES1   0.0000
     6 F3      10.6105   9.7365   3.8263   F         1 RES1   0.0000
     7 C1      12.5861   9.0217   4.8611   C.ar      1 RES1   0.0000
     8 C2      11.3936  10.9909   5.6399   C.ar      1 RES1   0.0000
     9 C3      13.4314  10.2759   6.7613   C.ar      1 RES1   0.0000
    10 C4      12.3737  11.1561   6.6069   C.ar      1 RES1   0.0000
    11 C5      13.5091   9.2281   5.8606   C.ar      1 RES1   0.0000
    12 C6      11.5348   9.9113   4.7812   C.ar      1 RES1   0.0000
    13 Fe1      6.4885   8.2179   2.8511   Fe        2 RES2   1.0000
    14 O1       5.2919   6.9792   3.5802   O.3       2 RES2   0.0000
    15 O2       5.2798   8.7176   1.5092   O.3       2 RES2   0.0000
    16 O3       0.9070  12.0913   1.6849   O.3       2 RES2   0.0000
    17 N1       7.2828   6.9477   1.6253   N.2       2 RES2   0.0000
    18 O4       4.1221   1.8114   2.0750   O.3       2 RES2   0.0000
    19 N2       5.8235   9.5237   4.1281   N.2       2 RES2   0.0000
    20 N3       7.8527   9.4362   2.0628   N.ar      2 RES2   0.0000
    21 N4       7.7888   7.8341   4.3030   N.ar      2 RES2   0.0000
    22 C7       4.7349  10.2130   3.9888   C.2       2 RES2   0.0000
    23 H1       4.4610  10.7466   4.7254   H         2 RES2   0.0000
    24 C8       5.7203   5.1524   2.0398   C.ar      2 RES2   0.0000
    25 C9       8.6981   8.7936   1.1906   C.ar      2 RES2   0.0000
    26 C10      6.8133   5.7727   1.3531   C.2       2 RES2   0.0000
    27 H2       7.2238   5.2864   0.6475   H         2 RES2   0.0000
    28 C11      5.0110   5.7892   3.0908   C.ar      2 RES2   0.0000
    29 C12      8.4414   7.4260   0.9495   C.ar      2 RES2   0.0000
    30 C13      6.5989   9.6225   5.3135   C.ar      2 RES2   0.0000
    31 C14      7.6410   8.6672   5.3825   C.ar      2 RES2   0.0000
    32 C15      5.4237   3.8219   1.6619   C.ar      2 RES2   0.0000
    33 H3       5.9031   3.4098   0.9523   H         2 RES2   0.0000
    34 C16      4.2237   9.5054   1.6605   C.ar      2 RES2   0.0000
    35 C17      9.7761   9.4581   0.5607   C.ar      2 RES2   0.0000
    36 C18      8.4804   8.5951   6.5257   C.ar      2 RES2   0.0000
    37 C19      4.4370   3.1233   2.3256   C.ar      2 RES2   0.0000
    38 C20      8.7238   6.9072   4.3518   C.ar      2 RES2   0.0000
    39 H4       8.8242   6.3202   3.6111   H         2 RES2   0.0000
    40 C21      2.8016  11.1153   2.8633   C.ar      2 RES2   0.0000
    41 H5       2.6096  11.6120   3.6495   H         2 RES2   0.0000
    42 C22      3.3598   9.6682   0.5607   C.ar      2 RES2   0.0000
    43 H6       3.5344   9.1899  -0.2408   H         2 RES2   0.0000
    44 C23      1.9946  11.2475   1.7554   C.ar      2 RES2   0.0000
    45 C24      3.9662   5.0545   3.6935   C.ar      2 RES2   0.0000
    46 H7       3.4396   5.4645   4.3695   H         2 RES2   0.0000
    47 C25      3.9259  10.2357   2.8362   C.ar      2 RES2   0.0000
    48 C26      8.0301  10.7312   2.2768   C.ar      2 RES2   0.0000
    49 H8       7.4452  11.1803   2.8761   H         2 RES2   0.0000
    50 C27      9.2980   6.7142   0.1463   C.ar      2 RES2   0.0000
    51 H9       9.1512   5.7874  -0.0050   H         2 RES2   0.0000
    52 C28      6.4324  10.5185   6.3428   C.ar      2 RES2   0.0000
    53 H10      5.7503  11.1775   6.2960   H         2 RES2   0.0000
    54 C29      7.2722  10.4545   7.4616   C.ar      2 RES2   0.0000
    55 H11      7.1547  11.0785   8.1676   H         2 RES2   0.0000
    56 C30      3.6987   3.7649   3.3265   C.ar      2 RES2   0.0000
    57 H12      2.9957   3.2946   3.7597   H         2 RES2   0.0000
    58 C31      9.4701   7.5833   6.5284   C.ar      2 RES2   0.0000
    59 H13     10.0539   7.4867   7.2713   H         2 RES2   0.0000
    60 C32     10.6276   8.6919  -0.2722   C.ar      2 RES2   0.0000
    61 H14     11.3633   9.1050  -0.7074   H         2 RES2   0.0000
    62 C33      8.2571   9.5127   7.5591   C.ar      2 RES2   0.0000
    63 H15      8.7989   9.4802   8.3397   H         2 RES2   0.0000
    64 C34      9.5790   6.7528   5.4597   C.ar      2 RES2   0.0000
    65 H16     10.2342   6.0658   5.4600   H         2 RES2   0.0000
    66 C35      2.2750  10.4999   0.6190   C.ar      2 RES2   0.0000
    67 H17      1.7002  10.5674  -0.1348   H         2 RES2   0.0000
    68 C36      9.9144  10.8417   0.8113   C.ar      2 RES2   0.0000
    69 H18     10.6087  11.3362   0.3915   H         2 RES2   0.0000
    70 C37     10.3908   7.3585  -0.4483   C.ar      2 RES2   0.0000
    71 H19     10.9839   6.8538  -0.9921   H         2 RES2   0.0000
    72 C38      9.0481  11.4623   1.6551   C.ar      2 RES2   0.0000
    73 H20      9.1339  12.3940   1.8225   H         2 RES2   0.0000
    74 C39      0.8122  13.0876   2.6858   C.3       2 RES2   0.0000
    75 H21      0.0363  13.6592   2.5061   H         2 RES2   0.0000
    76 H22      1.6268  13.6331   2.6817   H         2 RES2   0.0000
    77 H23      0.7085  12.6622   3.5622   H         2 RES2   0.0000
    78 C40      5.0411   1.0683   1.2881   C.3       2 RES2   0.0000
    79 H24      5.0966   1.4611   0.3925   H         2 RES2   0.0000
    80 H25      4.7364   0.1394   1.2198   H         2 RES2   0.0000
    81 H26      5.9257   1.0911   1.7103   H         2 RES2   0.0000
    82 S1      16.7993  10.1287  10.8848   S.2       3 RES3  -1.0000
    83 C41     17.9420  11.2790  10.6188   C.1       3 RES3   0.0000
    84 N5      18.7621  12.0944  10.4210   N.1       3 RES3   0.0000
@<TRIPOS>BOND
     1     1     9    1
     2     2     8    1
     3     3     7    1
     4     4    10    1
     5     5    11    1
     6     6    12    1
     7     7    11   ar
     8     8    10   ar
     9     9    10   ar
    10    11     9   ar
    11    12     7   ar
    12     8    12   ar
    13    13    14    1
    14    14    28    1
    15    15    13    1
    16    16    44    1
    17    17    13    1
    18    18    37    1
    19    19    13    1
    20    20    13    1
    21    21    13    1
    22    22    19    2
    23    23    22    1
    24    24    26    1
    25    25    20   ar
    26    26    17    2
    27    27    26    1
    28    28    24   ar
    29    29    17    1
    30    30    19    1
    31    31    21   ar
    32    32    24   ar
    33    33    32    1
    34    34    15    1
    35    35    25   ar
    36    36    31   ar
    37    37    32   ar
    38    38    21   ar
    39    39    38    1
    40    40    41    1
    41    42    34   ar
    42    43    42    1
    43    44    40   ar
    44    45    28   ar
    45    46    45    1
    46    47    22    1
    47    48    20   ar
    48    49    48    1
    49    50    29   ar
    50    51    50    1
    51    52    30   ar
    52    53    52    1
    53    54    52   ar
    54    55    54    1
    55    56    37   ar
    56    57    56    1
    57    58    36   ar
    58    59    58    1
    59    60    35   ar
    60    61    60    1
    61    62    36   ar
    62    63    62    1
    63    64    38   ar
    64    65    64    1
    65    66    42   ar
    66    67    66    1
    67    68    35   ar
    68    69    68    1
    69    70    50   ar
    70    71    70    1
    71    72    48   ar
    72    73    72    1
    73    74    16    1
    74    75    74    1
    75    76    74    1
    76    77    74    1
    77    78    18    1
    78    79    78    1
    79    80    78    1
    80    81    78    1
    81    25    29   ar
    82    30    31   ar
    83    34    47   ar
    84    40    47   ar
    85    44    66   ar
    86    45    56   ar
    87    54    62   ar
    88    58    64   ar
    89    60    70   ar
    90    68    72   ar
    91    82    83    1
    92    83    84    3
@<TRIPOS>SUBSTRUCTURE
     1 RES1        1 GROUP             0 ****  ****    0  
     2 RES2       13 GROUP             0 ****  ****    0  
     3 RES3       82 GROUP             0 ****  ****    0  
@<TRIPOS>CRYSIN
   11.8322   12.3594   13.9949   82.8260   77.2840   89.2600     2     1
