@<TRIPOS>MOLECULE
OPEVIR28
    84    92     3     0     0
SMALL
USER_CHARGES
****
Generated from the CSD

@<TRIPOS>ATOM
     1 I1      14.5671  10.4357   8.4283   I         1 RES1   0.0000
     2 I2       9.6739  12.4399   5.4158   I         1 RES1   0.0000
     3 I3      12.6162   7.6236   3.4488   I         1 RES1   0.0000
     4 F1      14.3171   8.4056   6.0084   F         1 RES1   0.0000
     5 F2      12.0392  12.2178   7.5462   F         1 RES1   0.0000
     6 F3      10.4431   9.8525   3.8262   F         1 RES1   0.0000
     7 C1      11.1937  11.0685   5.7033   C.ar      1 RES1   0.0000
     8 C2      13.1864  10.2962   6.8325   C.ar      1 RES1   0.0000
     9 C3      12.1534  11.1933   6.6758   C.ar      1 RES1   0.0000
    10 C4      12.3883   9.1066   4.8696   C.ar      1 RES1   0.0000
    11 C5      11.3376  10.0011   4.7879   C.ar      1 RES1   0.0000
    12 C6      13.2822   9.2749   5.9144   C.ar      1 RES1   0.0000
    13 Fe1      6.3100   8.2978   2.8564   Fe        2 RES2   1.0000
    14 O1       5.1566   7.0156   3.5429   O.3       2 RES2   0.0000
    15 O2       5.0854   8.8644   1.5487   O.3       2 RES2   0.0000
    16 N1       7.1673   7.0135   1.6128   N.2       2 RES2   0.0000
    17 N2       5.6433   9.6370   4.1709   N.2       2 RES2   0.0000
    18 N3       7.7170   9.5161   2.0500   N.ar      2 RES2   0.0000
    19 O3       0.8405  12.3585   1.7040   O.3       2 RES2   0.0000
    20 N4       7.6119   7.9360   4.3697   N.ar      2 RES2   0.0000
    21 C7       4.6028  10.3734   4.0237   C.2       2 RES2   0.0000
    22 H1       4.3598  10.9267   4.7447   H         2 RES2   0.0000
    23 O4       4.0927   1.8193   2.0500   O.3       2 RES2   0.0000
    24 C8       8.3234   7.4936   0.9344   C.ar      2 RES2   0.0000
    25 C9       4.9016   5.8181   3.0702   C.ar      2 RES2   0.0000
    26 C10      5.6751   5.1880   2.0337   C.ar      2 RES2   0.0000
    27 C11      6.7414   5.8123   1.3662   C.2       2 RES2   0.0000
    28 H2       7.1777   5.3256   0.6911   H         2 RES2   0.0000
    29 C12      7.4575   8.7738   5.4349   C.ar      2 RES2   0.0000
    30 C13      8.5780   8.8767   1.1919   C.ar      2 RES2   0.0000
    31 C14      4.0759   9.6840   1.6727   C.ar      2 RES2   0.0000
    32 C15      6.4134   9.7269   5.3709   C.ar      2 RES2   0.0000
    33 C16      1.8884  11.4942   1.7762   C.ar      2 RES2   0.0000
    34 C17      2.7244  11.3297   2.8918   C.ar      2 RES2   0.0000
    35 H3       2.5673  11.8335   3.6699   H         2 RES2   0.0000
    36 C18      3.2069   9.8814   0.5816   C.ar      2 RES2   0.0000
    37 H4       3.3608   9.4028  -0.2134   H         2 RES2   0.0000
    38 C19      8.2771   8.6929   6.6009   C.ar      2 RES2   0.0000
    39 C20      9.6395   9.5266   0.5503   C.ar      2 RES2   0.0000
    40 C21      9.1615   6.8066   0.1294   C.ar      2 RES2   0.0000
    41 H5       9.0171   5.8922  -0.0333   H         2 RES2   0.0000
    42 C22      8.5482   7.0139   4.4310   C.ar      2 RES2   0.0000
    43 H6       8.6608   6.4311   3.7015   H         2 RES2   0.0000
    44 C23      3.7864  10.4229   2.8578   C.ar      2 RES2   0.0000
    45 C24     10.4784   8.8000  -0.2711   C.ar      2 RES2   0.0000
    46 H7      11.2042   9.2180  -0.6983   H         2 RES2   0.0000
    47 C25      7.8887  10.8074   2.2843   C.ar      2 RES2   0.0000
    48 H8       7.3135  11.2473   2.8834   H         2 RES2   0.0000
    49 C26      2.1547  10.7379   0.6361   C.ar      2 RES2   0.0000
    50 H9       1.5930  10.8221  -0.1123   H         2 RES2   0.0000
    51 C27      5.3846   3.8474   1.6673   C.ar      2 RES2   0.0000
    52 H10      5.8766   3.4423   0.9769   H         2 RES2   0.0000
    53 C28      9.2910   7.6987   6.5914   C.ar      2 RES2   0.0000
    54 H11      9.8881   7.6275   7.3144   H         2 RES2   0.0000
    55 C29      4.3975   3.1305   2.3047   C.ar      2 RES2   0.0000
    56 C30      3.8527   5.0519   3.6505   C.ar      2 RES2   0.0000
    57 H12      3.3041   5.4467   4.3047   H         2 RES2   0.0000
    58 C31      9.3944   6.8686   5.5602   C.ar      2 RES2   0.0000
    59 H13     10.0337   6.1799   5.5788   H         2 RES2   0.0000
    60 C32      9.7776  10.9180   0.8146   C.ar      2 RES2   0.0000
    61 H14     10.4686  11.4082   0.4072   H         2 RES2   0.0000
    62 C33     10.2442   7.4628  -0.4577   C.ar      2 RES2   0.0000
    63 H15     10.8323   6.9711  -1.0009   H         2 RES2   0.0000
    64 C34      6.2261  10.5889   6.4184   C.ar      2 RES2   0.0000
    65 H16      5.5371  11.2275   6.3778   H         2 RES2   0.0000
    66 C35      7.0532  10.5270   7.5530   C.ar      2 RES2   0.0000
    67 H17      6.9223  11.1335   8.2584   H         2 RES2   0.0000
    68 C36      8.0481   9.5901   7.6375   C.ar      2 RES2   0.0000
    69 H18      8.5843   9.5540   8.4090   H         2 RES2   0.0000
    70 C37      8.9130  11.5354   1.6564   C.ar      2 RES2   0.0000
    71 H19      8.9995  12.4575   1.8209   H         2 RES2   0.0000
    72 C38      0.7051  13.3051   2.7229   C.3       2 RES2   0.0000
    73 H20     -0.0576  13.8748   2.5362   H         2 RES2   0.0000
    74 H21      1.5086  13.8458   2.7709   H         2 RES2   0.0000
    75 H22      0.5696  12.8514   3.5698   H         2 RES2   0.0000
    76 C39      3.6221   3.7445   3.2787   C.ar      2 RES2   0.0000
    77 H23      2.9280   3.2623   3.6892   H         2 RES2   0.0000
    78 C40      5.0146   1.0871   1.2668   C.3       2 RES2   0.0000
    79 H24      5.0690   1.4786   0.3807   H         2 RES2   0.0000
    80 H25      4.7195   0.1663   1.1961   H         2 RES2   0.0000
    81 H26      5.8893   1.1153   1.6861   H         2 RES2   0.0000
    82 S1      16.5178  10.0847  10.9728   S.2       3 RES3  -1.0000
    83 C41     17.5471  11.3026  10.7064   C.1       3 RES3   0.0000
    84 N5      18.3117  12.2050  10.5198   N.1       3 RES3   0.0000
@<TRIPOS>BOND
     1     1     8    1
     2     2     7    1
     3     3    10    1
     4     4    12    1
     5     5     9    1
     6     6    11    1
     7     7     9   ar
     8     8     9   ar
     9    10    11   ar
    10    11     7   ar
    11    12     8   ar
    12    10    12   ar
    13    13    14    1
    14    14    25    1
    15    15    13    1
    16    16    13    1
    17    17    13    1
    18    18    13    1
    19    19    33    1
    20    20    13    1
    21    21    17    2
    22    22    21    1
    23    23    55    1
    24    24    16    1
    25    25    26   ar
    26    26    27    1
    27    27    16    2
    28    28    27    1
    29    29    20   ar
    30    30    18   ar
    31    31    15    1
    32    32    17    1
    33    33    34   ar
    34    34    35    1
    35    36    31   ar
    36    37    36    1
    37    38    29   ar
    38    39    30   ar
    39    40    24   ar
    40    41    40    1
    41    42    20   ar
    42    43    42    1
    43    44    21    1
    44    45    39   ar
    45    46    45    1
    46    47    18   ar
    47    48    47    1
    48    49    33   ar
    49    50    49    1
    50    51    26   ar
    51    52    51    1
    52    53    38   ar
    53    54    53    1
    54    55    51   ar
    55    56    25   ar
    56    57    56    1
    57    58    42   ar
    58    59    58    1
    59    60    39   ar
    60    61    60    1
    61    62    40   ar
    62    63    62    1
    63    64    32   ar
    64    65    64    1
    65    66    64   ar
    66    67    66    1
    67    68    38   ar
    68    69    68    1
    69    70    47   ar
    70    71    70    1
    71    72    19    1
    72    73    72    1
    73    74    72    1
    74    75    72    1
    75    76    55   ar
    76    77    76    1
    77    78    23    1
    78    79    78    1
    79    80    78    1
    80    81    78    1
    81    24    30   ar
    82    29    32   ar
    83    31    44   ar
    84    34    44   ar
    85    36    49   ar
    86    45    62   ar
    87    53    58   ar
    88    56    76   ar
    89    60    70   ar
    90    66    68   ar
    91    82    83    1
    92    83    84    3
@<TRIPOS>SUBSTRUCTURE
     1 RES1        1 GROUP             0 ****  ****    0  
     2 RES2       13 GROUP             0 ****  ****    0  
     3 RES3       82 GROUP             0 ****  ****    0  
@<TRIPOS>CRYSIN
   11.6839   12.5401   14.0275   83.3860   77.8600   89.4960     2     1
