@<TRIPOS>MOLECULE
OPEVUD35
    90    97     4     0     0
SMALL
USER_CHARGES
****
Generated from the CSD

@<TRIPOS>ATOM
     1 I1       2.3520   0.5335   5.4198   I         1 RES1   0.0000
     2 I2      -2.4876   2.3045   8.6744   I         1 RES1   0.0000
     3 I3      -1.0958   5.0255   3.4434   I         1 RES1   0.0000
     4 F1       1.1735   2.8799   3.7018   F         1 RES1   0.0000
     5 F2      -2.5790   4.2240   6.1429   F         1 RES1   0.0000
     6 F3       0.0504   0.6327   7.6610   F         1 RES1   0.0000
     7 C1       0.3841   2.7184   4.7499   C.ar      1 RES1   0.0000
     8 C2      -1.3008   2.4151   6.9420   C.ar      1 RES1   0.0000
     9 C3      -0.7218   3.5675   4.8709   C.ar      1 RES1   0.0000
    10 C4       0.6633   1.7320   5.6729   C.ar      1 RES1   0.0000
    11 C5      -1.5227   3.3997   5.9853   C.ar      1 RES1   0.0000
    12 C6      -0.2021   1.5922   6.7436   C.ar      1 RES1   0.0000
    13 Fe1      5.3708   4.3460   2.9541   Fe        2 RES2   1.0000
    14 O1       6.5840   3.8609   1.5997   O.3       2 RES2   0.0000
    15 O2       6.5026   5.6509   3.6666   O.3       2 RES2   0.0000
    16 O3       7.6254  10.7687   1.9163   O.3       2 RES2   0.0000
    17 O4      10.7605   0.2339   1.6110   O.3       2 RES2   0.0000
    18 N1       6.1065   3.1049   4.2631   N.2       2 RES2   0.0000
    19 N2       4.0739   3.0647   2.1864   N.ar      2 RES2   0.0000
    20 N3       4.0664   4.7067   4.4109   N.ar      2 RES2   0.0000
    21 N4       4.5386   5.5641   1.6841   N.2       2 RES2   0.0000
    22 C7       7.1506   2.3516   4.0844   C.2       2 RES2   0.0000
    23 H1       7.4491   1.8324   4.8221   H         2 RES2   0.0000
    24 C8       7.5643   2.9837   1.7067   C.ar      2 RES2   0.0000
    25 C9       8.9589   1.3094   2.8576   C.ar      2 RES2   0.0000
    26 H2       9.1579   0.8174   3.6446   H         2 RES2   0.0000
    27 C10      7.8836   2.2425   2.8604   C.ar      2 RES2   0.0000
    28 C11      5.4308   3.1110   5.5139   C.ar      2 RES2   0.0000
    29 C12      3.4015   5.0257   1.0158   C.ar      2 RES2   0.0000
    30 C13      3.2094   3.6474   1.2860   C.ar      2 RES2   0.0000
    31 C14      4.3270   3.9913   5.5576   C.ar      2 RES2   0.0000
    32 C15      8.3674   2.7590   0.5515   C.ar      2 RES2   0.0000
    33 H3       8.1827   3.2368  -0.2480   H         2 RES2   0.0000
    34 C16      4.9788   6.7418   1.3732   C.2       2 RES2   0.0000
    35 H4       4.5531   7.2003   0.6578   H         2 RES2   0.0000
    36 C17      6.7574   6.8359   3.1347   C.ar      2 RES2   0.0000
    37 C18      2.5217   5.6879   0.1899   C.ar      2 RES2   0.0000
    38 H5       2.6211   6.6195   0.0328   H         2 RES2   0.0000
    39 C19      6.0627   7.3949   2.0359   C.ar      2 RES2   0.0000
    40 C20      9.7057   1.1171   1.7306   C.ar      2 RES2   0.0000
    41 C21      6.3615   8.7143   1.5941   C.ar      2 RES2   0.0000
    42 H6       5.8964   9.0801   0.8512   H         2 RES2   0.0000
    43 C22      3.0377   5.5497   4.4123   C.ar      2 RES2   0.0000
    44 H7       2.8479   6.0480   3.6252   H         2 RES2   0.0000
    45 C23      3.9573   1.7635   2.4242   C.ar      2 RES2   0.0000
    46 H8       4.5505   1.3531   3.0420   H         2 RES2   0.0000
    47 C24      7.3112   9.4588   2.2329   C.ar      2 RES2   0.0000
    48 C25      1.2968   3.6245  -0.2096   C.ar      2 RES2   0.0000
    49 H9       0.5897   3.1647  -0.6457   H         2 RES2   0.0000
    50 C26      7.7708   7.6240   3.7369   C.ar      2 RES2   0.0000
    51 H10      8.2719   7.2683   4.4616   H         2 RES2   0.0000
    52 C27      9.4081   1.8569   0.5783   C.ar      2 RES2   0.0000
    53 H11      9.9362   1.7338  -0.2018   H         2 RES2   0.0000
    54 C28      3.5493   4.1207   6.7253   C.ar      2 RES2   0.0000
    55 C29      2.9813   0.9722   1.7897   C.ar      2 RES2   0.0000
    56 H12      2.9422   0.0396   1.9653   H         2 RES2   0.0000
    57 C30      1.4736   4.9730  -0.4179   C.ar      2 RES2   0.0000
    58 H13      0.8705   5.4351  -0.9878   H         2 RES2   0.0000
    59 C31      5.7412   2.3734   6.6297   C.ar      2 RES2   0.0000
    60 H14      6.4831   1.7797   6.6121   H         2 RES2   0.0000
    61 C32      4.9701   2.4920   7.7932   C.ar      2 RES2   0.0000
    62 H15      5.1899   1.9668   8.5538   H         2 RES2   0.0000
    63 C33      8.0351   8.8951   3.2881   C.ar      2 RES2   0.0000
    64 H16      8.7246   9.4012   3.7023   H         2 RES2   0.0000
    65 C34      2.1694   2.9236   0.6542   C.ar      2 RES2   0.0000
    66 C35      2.4641   5.0356   6.6831   C.ar      2 RES2   0.0000
    67 H17      1.9145   5.1612   7.4478   H         2 RES2   0.0000
    68 C36      3.8968   3.3583   7.8523   C.ar      2 RES2   0.0000
    69 H18      3.3939   3.4393   8.6544   H         2 RES2   0.0000
    70 C37      6.6597  11.4790   1.1523   C.3       2 RES2   0.0000
    71 H19      6.6384  11.1223   0.2400   H         2 RES2   0.0000
    72 H20      6.8992  12.4292   1.1260   H         2 RES2   0.0000
    73 H21      5.7772  11.3759   1.5648   H         2 RES2   0.0000
    74 C38      2.0938   1.5364   0.9258   C.ar      2 RES2   0.0000
    75 H22      1.4272   1.0025   0.5086   H         2 RES2   0.0000
    76 C39      2.2194   5.7259   5.5505   C.ar      2 RES2   0.0000
    77 H23      1.4912   6.3355   5.5180   H         2 RES2   0.0000
    78 C40     10.9908  -0.6276   2.7112   C.3       2 RES2   0.0000
    79 H24     11.7144  -1.2511   2.4927   H         2 RES2   0.0000
    80 H25     10.1737  -1.1312   2.9083   H         2 RES2   0.0000
    81 H26     11.2436  -0.0956   3.4949   H         2 RES2   0.0000
    82 S1       1.4850  -4.1603   2.6454   S.2       3 RES3  -1.0000
    83 C41      2.6395  -3.0630   2.8970   C.1       3 RES3   0.0000
    84 N5       3.4857  -2.2785   3.0377   N.1       3 RES3   0.0000
    85 O5       5.0055  -0.4687   4.4517   O.3       4 RES4   0.0000
    86 H27      4.5476  -1.0740   4.0918   H         4 RES4   0.0000
    87 C42      6.2004  -1.0129   4.9343   C.3       4 RES4   0.0000
    88 H28      6.9268  -0.8117   4.3076   H         4 RES4   0.0000
    89 H29      6.1047  -1.9839   5.0225   H         4 RES4   0.0000
    90 H30      6.4065  -0.6234   5.8093   H         4 RES4   0.0000
@<TRIPOS>BOND
     1     1    10    1
     2     2     8    1
     3     3     9    1
     4     4     7    1
     5     5    11    1
     6     6    12    1
     7     7     9   ar
     8     8    11   ar
     9     9    11   ar
    10    10     7   ar
    11    12     8   ar
    12    10    12   ar
    13    13    14    1
    14    14    24    1
    15    15    13    1
    16    16    47    1
    17    17    40    1
    18    18    13    1
    19    19    13    1
    20    20    13    1
    21    21    13    1
    22    22    18    2
    23    23    22    1
    24    24    27   ar
    25    25    26    1
    26    27    22    1
    27    28    18    1
    28    29    21    1
    29    30    19   ar
    30    31    20   ar
    31    32    24   ar
    32    33    32    1
    33    34    21    2
    34    35    34    1
    35    36    15    1
    36    37    29   ar
    37    38    37    1
    38    39    34    1
    39    40    25   ar
    40    41    39   ar
    41    42    41    1
    42    43    20   ar
    43    44    43    1
    44    45    19   ar
    45    46    45    1
    46    47    41   ar
    47    48    49    1
    48    50    36   ar
    49    51    50    1
    50    52    32   ar
    51    53    52    1
    52    54    31   ar
    53    55    45   ar
    54    56    55    1
    55    57    37   ar
    56    58    57    1
    57    59    28   ar
    58    60    59    1
    59    61    59   ar
    60    62    61    1
    61    63    47   ar
    62    64    63    1
    63    65    30   ar
    64    66    54   ar
    65    67    66    1
    66    68    54   ar
    67    69    68    1
    68    70    16    1
    69    71    70    1
    70    72    70    1
    71    73    70    1
    72    74    55   ar
    73    75    74    1
    74    76    43   ar
    75    77    76    1
    76    78    17    1
    77    79    78    1
    78    80    78    1
    79    81    78    1
    80    25    27   ar
    81    28    31   ar
    82    29    30   ar
    83    36    39   ar
    84    40    52   ar
    85    48    57   ar
    86    48    65   ar
    87    50    63   ar
    88    61    68   ar
    89    65    74   ar
    90    66    76   ar
    91    82    83    1
    92    83    84    3
    93    85    86    1
    94    87    85    1
    95    88    87    1
    96    89    87    1
    97    90    87    1
@<TRIPOS>SUBSTRUCTURE
     1 RES1        1 GROUP             0 ****  ****    0  
     2 RES2       13 GROUP             0 ****  ****    0  
     3 RES3       82 GROUP             0 ****  ****    0  
     4 RES4       85 GROUP             0 ****  ****    0  
@<TRIPOS>CRYSIN
   11.5525   12.5462   14.3870   95.3510  100.7680   90.0210     2     1
