@<TRIPOS>MOLECULE
OPEVUD09
    90    97     4     0     0
SMALL
USER_CHARGES
****
Generated from the CSD

@<TRIPOS>ATOM
     1 I1      11.1645   8.9972   5.2884   I         1 RES1   0.0000
     2 I2       6.4600  10.8131   8.7076   I         1 RES1   0.0000
     3 I3       9.9768   6.3448  10.5935   I         1 RES1   0.0000
     4 F1       7.7155   8.5149  10.4254   F         1 RES1   0.0000
     5 F2      11.3369   7.1009   7.8356   F         1 RES1   0.0000
     6 F3       8.6462  10.6532   6.3596   F         1 RES1   0.0000
     7 C1       8.1286   9.6173   8.4165   C.ar      1 RES1   0.0000
     8 C2      10.0261   8.8883   7.0518   C.ar      1 RES1   0.0000
     9 C3       9.5575   7.7809   9.1707   C.ar      1 RES1   0.0000
    10 C4       8.4596   8.6478   9.3244   C.ar      1 RES1   0.0000
    11 C5      10.2876   7.9256   8.0189   C.ar      1 RES1   0.0000
    12 C6       8.9334   9.7127   7.2759   C.ar      1 RES1   0.0000
    13 Fe1      3.3670   6.9946  11.1949   Fe        2 RES2   1.0000
    14 O1       2.0728   7.6566  12.4372   O.3       2 RES2   0.0000
    15 O2       2.3535   5.5244  10.5763   O.3       2 RES2   0.0000
    16 N1       4.3930   5.6947  12.4865   N.2       2 RES2   0.0000
    17 N2       2.6701   8.3781   9.7910   N.2       2 RES2   0.0000
    18 N3       4.8313   8.2626  12.0495   N.ar      2 RES2   0.0000
    19 O3       1.5697   0.3173  12.1736   O.3       2 RES2   0.0000
    20 O4      -1.8542  11.5224  12.3836   O.3       2 RES2   0.0000
    21 N4       4.7301   6.7451   9.5669   N.ar      2 RES2   0.0000
    22 C7       4.4355   7.4841   8.4503   C.ar      2 RES2   0.0000
    23 C8       5.6989   7.6478  12.9095   C.ar      2 RES2   0.0000
    24 C9       5.5058   6.2541  13.1576   C.ar      2 RES2   0.0000
    25 C10      1.1665   8.6053  12.3540   C.ar      2 RES2   0.0000
    26 C11      0.9423   9.3765  11.2036   C.ar      2 RES2   0.0000
    27 C12      3.3212   8.3550   8.5278   C.ar      2 RES2   0.0000
    28 C13      1.7009   9.2220  10.0025   C.2       2 RES2   0.0000
    29 H1       1.4760   9.7910   9.2890   H         2 RES2   0.0000
    30 C14      4.0252   4.4661  12.7234   C.2       2 RES2   0.0000
    31 H2       4.4977   4.0066  13.3942   H         2 RES2   0.0000
    32 C15      2.9869   3.7534  12.0763   C.ar      2 RES2   0.0000
    33 C16      2.1947   4.3019  11.0415   C.ar      2 RES2   0.0000
    34 C17      6.7514   8.3498  13.5340   C.ar      2 RES2   0.0000
    35 C18     -0.0762  10.3670  11.1938   C.ar      2 RES2   0.0000
    36 H3      -0.2239  10.8755  10.4177   H         2 RES2   0.0000
    37 C19     -0.8443  10.5883  12.3019   C.ar      2 RES2   0.0000
    38 C20      5.1820   7.3691   7.2449   C.ar      2 RES2   0.0000
    39 C21      7.6259   7.6403  14.3799   C.ar      2 RES2   0.0000
    40 H4       8.3351   8.0893  14.8016   H         2 RES2   0.0000
    41 C22      6.3922   5.6000  13.9711   C.ar      2 RES2   0.0000
    42 H5       6.2963   4.6767  14.1190   H         2 RES2   0.0000
    43 C23      4.9546   9.5689  11.8282   C.ar      2 RES2   0.0000
    44 H6       4.3519   9.9936  11.2459   H         2 RES2   0.0000
    45 C24      5.7650   5.9213   9.5246   C.ar      2 RES2   0.0000
    46 H7       5.9796   5.4184  10.2887   H         2 RES2   0.0000
    47 C25      1.2113   3.4923  10.4508   C.ar      2 RES2   0.0000
    48 H8       0.6697   3.8398   9.7660   H         2 RES2   0.0000
    49 C26      0.3424   8.8794  13.4931   C.ar      2 RES2   0.0000
    50 H9       0.4668   8.3855  14.2828   H         2 RES2   0.0000
    51 C27      2.9680   9.0884   7.4155   C.ar      2 RES2   0.0000
    52 H10      2.2265   9.6644   7.4487   H         2 RES2   0.0000
    53 C28      1.8284   1.6305  11.8733   C.ar      2 RES2   0.0000
    54 C29      2.7792   2.4069  12.4837   C.ar      2 RES2   0.0000
    55 H11      3.2992   2.0464  13.1790   H         2 RES2   0.0000
    56 C30      6.8468   9.7416  13.2662   C.ar      2 RES2   0.0000
    57 H12      7.5286  10.2511  13.6658   H         2 RES2   0.0000
    58 C31      5.9646  10.3289  12.4457   C.ar      2 RES2   0.0000
    59 H13      6.0218  11.2531  12.2807   H         2 RES2   0.0000
    60 C32      6.2791   6.4847   7.2604   C.ar      2 RES2   0.0000
    61 H14      6.8182   6.3935   6.4957   H         2 RES2   0.0000
    62 C33      7.4493   6.3054  14.5885   C.ar      2 RES2   0.0000
    63 H15      8.0425   5.8448  15.1541   H         2 RES2   0.0000
    64 C34      3.7158   8.9753   6.2285   C.ar      2 RES2   0.0000
    65 H16      3.4647   9.4777   5.4742   H         2 RES2   0.0000
    66 C35      1.0316   2.1874  10.8709   C.ar      2 RES2   0.0000
    67 H17      0.3591   1.6650  10.4733   H         2 RES2   0.0000
    68 C36      4.7873   8.1603   6.1523   C.ar      2 RES2   0.0000
    69 H18      5.2806   8.1196   5.3529   H         2 RES2   0.0000
    70 C37     -0.6187   9.8447  13.4494   C.ar      2 RES2   0.0000
    71 H19     -1.1389  10.0099  14.2146   H         2 RES2   0.0000
    72 C38      6.5570   5.7747   8.3601   C.ar      2 RES2   0.0000
    73 H20      7.2821   5.1758   8.3598   H         2 RES2   0.0000
    74 C39     -2.0728  12.3398  11.2896   C.3       2 RES2   0.0000
    75 H21     -2.3526  11.8009  10.5331   H         2 RES2   0.0000
    76 H22     -1.2526  12.8082  11.0664   H         2 RES2   0.0000
    77 H23     -2.7657  12.9854  11.5002   H         2 RES2   0.0000
    78 C40      2.5292  -0.3738  12.9546   C.3       2 RES2   0.0000
    79 H24      3.3781  -0.3862  12.4864   H         2 RES2   0.0000
    80 H25      2.2287  -1.2836  13.1050   H         2 RES2   0.0000
    81 H26      2.6363   0.0765  13.8072   H         2 RES2   0.0000
    82 S1       7.0326  15.9242  11.4661   S.2       3 RES3  -1.0000
    83 C41      6.1307  14.5875  11.1923   C.1       3 RES3   0.0000
    84 N5       5.4959  13.6535  11.0471   N.1       3 RES3   0.0000
    85 O5       3.8266  11.8543   9.7332   O.3       4 RES4   0.0000
    86 H27      4.1916  12.3752  10.2664   H         4 RES4   0.0000
    87 C42      2.8980  12.5316   8.9973   C.3       4 RES4   0.0000
    88 H28      2.8671  12.1641   8.0995   H         4 RES4   0.0000
    89 H29      3.1419  13.4694   8.9538   H         4 RES4   0.0000
    90 H30      2.0271  12.4422   9.4133   H         4 RES4   0.0000
@<TRIPOS>BOND
     1     1     8    1
     2     2     7    1
     3     3     9    1
     4     4    10    1
     5     5    11    1
     6     6    12    1
     7     7    10   ar
     8     8    11   ar
     9     9    10   ar
    10    11     9   ar
    11    12     7   ar
    12     8    12   ar
    13    13    14    1
    14    14    25    1
    15    15    13    1
    16    16    13    1
    17    17    13    1
    18    18    13    1
    19    19    53    1
    20    20    37    1
    21    21    13    1
    22    22    21   ar
    23    23    18   ar
    24    24    16    1
    25    25    26   ar
    26    26    28    1
    27    27    17    1
    28    28    17    2
    29    29    28    1
    30    30    16    2
    31    31    30    1
    32    32    30    1
    33    33    15    1
    34    34    23   ar
    35    35    26   ar
    36    36    35    1
    37    37    35   ar
    38    38    22   ar
    39    39    34   ar
    40    40    39    1
    41    41    24   ar
    42    42    41    1
    43    43    18   ar
    44    44    43    1
    45    45    21   ar
    46    46    45    1
    47    47    33   ar
    48    48    47    1
    49    49    25   ar
    50    50    49    1
    51    51    27   ar
    52    52    51    1
    53    53    54   ar
    54    54    32   ar
    55    55    54    1
    56    56    34   ar
    57    57    56    1
    58    58    43   ar
    59    59    58    1
    60    60    38   ar
    61    61    60    1
    62    62    39   ar
    63    63    62    1
    64    64    51   ar
    65    65    64    1
    66    66    47   ar
    67    67    66    1
    68    68    38   ar
    69    69    68    1
    70    70    37   ar
    71    71    70    1
    72    72    45   ar
    73    73    72    1
    74    74    20    1
    75    75    74    1
    76    76    74    1
    77    77    74    1
    78    78    19    1
    79    79    78    1
    80    80    78    1
    81    81    78    1
    82    22    27   ar
    83    23    24   ar
    84    32    33   ar
    85    41    62   ar
    86    49    70   ar
    87    53    66   ar
    88    56    58   ar
    89    60    72   ar
    90    64    68   ar
    91    82    83    1
    92    83    84    3
    93    85    86    1
    94    87    85    1
    95    88    87    1
    96    89    87    1
    97    90    87    1
@<TRIPOS>SUBSTRUCTURE
     1 RES1        1 GROUP             0 ****  ****    0  
     2 RES2       13 GROUP             0 ****  ****    0  
     3 RES3       82 GROUP             0 ****  ****    0  
     4 RES4       85 GROUP             0 ****  ****    0  
@<TRIPOS>CRYSIN
   11.3648   13.0024   14.3831   95.7610   99.7780   90.5670     2     1
