@<TRIPOS>MOLECULE
OPEVIR12
    84    92     3     0     0
SMALL
USER_CHARGES
****
Generated from the CSD

@<TRIPOS>ATOM
     1 I1      11.6107   8.9486   5.1833   I         1 RES1   0.0000
     2 I2       6.8340  11.1751   8.2333   I         1 RES1   0.0000
     3 I3       9.6582   6.3262  10.2563   I         1 RES1   0.0000
     4 F1       9.1736  10.8314   6.0705   F         1 RES1   0.0000
     5 F2      11.3363   6.9889   7.6645   F         1 RES1   0.0000
     6 F3       7.5521   8.6169   9.8555   F         1 RES1   0.0000
     7 C1      10.2656   8.9038   6.8141   C.ar      1 RES1   0.0000
     8 C2       9.4620   7.7912   8.8024   C.ar      1 RES1   0.0000
     9 C3      10.3430   7.9007   7.7754   C.ar      1 RES1   0.0000
    10 C4       9.2595   9.8175   6.9661   C.ar      1 RES1   0.0000
    11 C5       8.3164   9.7445   7.9767   C.ar      1 RES1   0.0000
    12 C6       8.4368   8.7142   8.8572   C.ar      1 RES1   0.0000
    13 Fe1      3.3143   6.9778  10.8644   Fe        2 RES2   1.0000
    14 O1       2.0538   7.7079  12.1095   O.3       2 RES2   0.0000
    15 O2       2.2103   5.5555  10.2855   O.3       2 RES2   0.0000
    16 N1       4.3313   5.6189  12.1067   N.2       2 RES2   0.0000
    17 N2       2.6973   8.4441   9.4844   N.2       2 RES2   0.0000
    18 O3      -2.0825  11.3150  11.9068   O.3       2 RES2   0.0000
    19 N3       4.8528   8.1790  11.7247   N.ar      2 RES2   0.0000
    20 N4       4.6534   6.6809   9.2036   N.ar      2 RES2   0.0000
    21 O4       1.4678   0.2871  11.6412   O.3       2 RES2   0.0000
    22 C7       5.4799   6.1438  12.7832   C.ar      2 RES2   0.0000
    23 C8       1.6562   9.2003   9.6432   C.2       2 RES2   0.0000
    24 H1       1.4202   9.7355   8.9192   H         2 RES2   0.0000
    25 C9       0.8368   9.3043  10.7976   C.ar      2 RES2   0.0000
    26 C10      3.9746   4.3948  12.3026   C.2       2 RES2   0.0000
    27 H2       4.4630   3.9119  12.9297   H         2 RES2   0.0000
    28 C11      2.9040   3.7065  11.6507   C.ar      2 RES2   0.0000
    29 C12      5.7163   7.5240  12.5586   C.ar      2 RES2   0.0000
    30 C13      1.0571   8.5590  11.9753   C.ar      2 RES2   0.0000
    31 C14      4.4810   7.5422   8.1643   C.ar      2 RES2   0.0000
    32 C15      2.0579   4.3177  10.6894   C.ar      2 RES2   0.0000
    33 C16      3.4513   8.5052   8.2766   C.ar      2 RES2   0.0000
    34 C17      0.2008   8.7886  13.0626   C.ar      2 RES2   0.0000
    35 H3       0.3320   8.3123  13.8506   H         2 RES2   0.0000
    36 C18     -1.0370  10.4244  11.8493   C.ar      2 RES2   0.0000
    37 C19      6.3532   5.4478  13.5802   C.ar      2 RES2   0.0000
    38 H4       6.2243   4.5394  13.7293   H         2 RES2   0.0000
    39 C20      5.0338   9.4772  11.5330   C.ar      2 RES2   0.0000
    40 H5       4.4427   9.9331  10.9784   H         2 RES2   0.0000
    41 C21      6.7932   8.1810  13.1790   C.ar      2 RES2   0.0000
    42 C22     -0.2281  10.2394  10.7538   C.ar      2 RES2   0.0000
    43 H6      -0.3798  10.7301   9.9796   H         2 RES2   0.0000
    44 C23      2.7096   2.3561  11.9917   C.ar      2 RES2   0.0000
    45 H7       3.2557   1.9637  12.6333   H         2 RES2   0.0000
    46 C24     -0.8171   9.6878  12.9941   C.ar      2 RES2   0.0000
    47 H8      -1.3726   9.8085  13.7293   H         2 RES2   0.0000
    48 C25      1.7237   1.6046  11.3892   C.ar      2 RES2   0.0000
    49 C26      1.0322   3.5276  10.1348   C.ar      2 RES2   0.0000
    50 H9       0.4477   3.9046   9.5178   H         2 RES2   0.0000
    51 C27      7.6647   7.4184  13.9855   C.ar      2 RES2   0.0000
    52 H10      8.3984   7.8230  14.3889   H         2 RES2   0.0000
    53 C28      7.4352   6.1044  14.1690   C.ar      2 RES2   0.0000
    54 H11      8.0179   5.6179  14.7068   H         2 RES2   0.0000
    55 C29      5.2939   7.4950   7.0071   C.ar      2 RES2   0.0000
    56 C30      5.5924   5.7559   9.1078   C.ar      2 RES2   0.0000
    57 H12      5.7076   5.1576   9.8099   H         2 RES2   0.0000
    58 C31      3.2672   9.4018   7.2550   C.ar      2 RES2   0.0000
    59 H13      2.6008  10.0475   7.3185   H         2 RES2   0.0000
    60 C32      6.9402   9.5516  12.9352   C.ar      2 RES2   0.0000
    61 H14      7.6381  10.0210  13.3321   H         2 RES2   0.0000
    62 C33      0.8835   2.2301  10.4854   C.ar      2 RES2   0.0000
    63 H15      0.1903   1.7396  10.1053   H         2 RES2   0.0000
    64 C34      6.0797  10.1904  12.1328   C.ar      2 RES2   0.0000
    65 H16      6.1760  11.1015  11.9747   H         2 RES2   0.0000
    66 C35      6.4197   5.6461   7.9835   C.ar      2 RES2   0.0000
    67 H17      7.0752   4.9875   7.9534   H         2 RES2   0.0000
    68 C36      4.0754   9.3482   6.1212   C.ar      2 RES2   0.0000
    69 H18      3.9368   9.9623   5.4370   H         2 RES2   0.0000
    70 C37      6.2693   6.4860   6.9510   C.ar      2 RES2   0.0000
    71 H19      6.8102   6.4025   6.1986   H         2 RES2   0.0000
    72 C38      5.0529   8.4296   5.9897   C.ar      2 RES2   0.0000
    73 H20      5.5723   8.4155   5.2176   H         2 RES2   0.0000
    74 C39     -2.1741  12.2928  10.8825   C.3       2 RES2   0.0000
    75 H21     -2.2479  11.8572  10.0304   H         2 RES2   0.0000
    76 H22     -1.3867  12.8418  10.8943   H         2 RES2   0.0000
    77 H23     -2.9484  12.8396  11.0312   H         2 RES2   0.0000
    78 C40      2.4100  -0.4282  12.3793   C.3       2 RES2   0.0000
    79 H24      3.2526  -0.4160  11.9194   H         2 RES2   0.0000
    80 H25      2.1144  -1.3356  12.4819   H         2 RES2   0.0000
    81 H26      2.5118  -0.0248  13.2445   H         2 RES2   0.0000
    82 S1      13.5713   8.6073   2.6528   S.2       3 RES3  -1.0000
    83 C41     14.4034   9.9491   2.9099   C.1       3 RES3   0.0000
    84 N5      15.0194  10.9450   3.0866   N.1       3 RES3   0.0000
@<TRIPOS>BOND
     1     1     7    1
     2     2    11    1
     3     3     8    1
     4     4    10    1
     5     5     9    1
     6     6    12    1
     7     7     9   ar
     8     8     9   ar
     9    10     7   ar
    10    11    10   ar
    11    12     8   ar
    12    11    12   ar
    13    13    14    1
    14    14    30    1
    15    15    13    1
    16    16    13    1
    17    17    13    1
    18    18    36    1
    19    19    13    1
    20    20    13    1
    21    21    48    1
    22    22    16    1
    23    23    17    2
    24    24    23    1
    25    25    23    1
    26    26    16    2
    27    27    26    1
    28    28    26    1
    29    29    19   ar
    30    30    25   ar
    31    31    20   ar
    32    32    15    1
    33    33    17    1
    34    34    30   ar
    35    35    34    1
    36    36    42   ar
    37    37    22   ar
    38    38    37    1
    39    39    19   ar
    40    40    39    1
    41    41    29   ar
    42    42    25   ar
    43    43    42    1
    44    44    28   ar
    45    45    44    1
    46    46    34   ar
    47    47    46    1
    48    48    44   ar
    49    49    32   ar
    50    50    49    1
    51    51    41   ar
    52    52    51    1
    53    53    37   ar
    54    54    53    1
    55    55    31   ar
    56    56    20   ar
    57    57    56    1
    58    58    33   ar
    59    59    58    1
    60    60    41   ar
    61    61    60    1
    62    62    48   ar
    63    63    62    1
    64    64    39   ar
    65    65    64    1
    66    66    56   ar
    67    67    66    1
    68    68    58   ar
    69    69    68    1
    70    70    55   ar
    71    71    70    1
    72    72    55   ar
    73    73    72    1
    74    74    18    1
    75    75    74    1
    76    76    74    1
    77    77    74    1
    78    78    21    1
    79    79    78    1
    80    80    78    1
    81    81    78    1
    82    22    29   ar
    83    28    32   ar
    84    31    33   ar
    85    36    46   ar
    86    49    62   ar
    87    51    53   ar
    88    60    64   ar
    89    66    70   ar
    90    68    72   ar
    91    82    83    1
    92    83    84    3
@<TRIPOS>SUBSTRUCTURE
     1 RES1        1 GROUP             0 ****  ****    0  
     2 RES2       13 GROUP             0 ****  ****    0  
     3 RES3       82 GROUP             0 ****  ****    0  
@<TRIPOS>CRYSIN
   11.6559   12.8494   14.0438   96.0920  101.2250   90.0810     2     1
