@<TRIPOS>MOLECULE
OPEVUD
    90    97     4     0     0
SMALL
USER_CHARGES
****
Generated from the CSD

@<TRIPOS>ATOM
     1 I1       6.5035  10.7064   8.6893   I         1 RES1   0.0000
     2 I2      11.2919   8.9285   5.3726   I         1 RES1   0.0000
     3 I3       9.9678   6.2134  10.6258   I         1 RES1   0.0000
     4 F1       7.7086   8.3653  10.4040   F         1 RES1   0.0000
     5 F2      11.4101   7.0145   7.8988   F         1 RES1   0.0000
     6 F3       8.7617  10.5959   6.4081   F         1 RES1   0.0000
     7 C1       8.1766   9.5061   8.4173   C.ar      1 RES1   0.0000
     8 C2       9.5813   7.6548   9.1979   C.ar      1 RES1   0.0000
     9 C3       8.4834   8.5299   9.3360   C.ar      1 RES1   0.0000
    10 C4       9.0232   9.6365   7.3225   C.ar      1 RES1   0.0000
    11 C5      10.1225   8.8148   7.1084   C.ar      1 RES1   0.0000
    12 C6      10.3655   7.8282   8.0792   C.ar      1 RES1   0.0000
    13 Fe1      3.4485   6.8854  11.1512   Fe        2 RES2   1.0000
    14 O1       2.3575   5.5375  10.4575   O.3       2 RES2   0.0000
    15 O2       2.2204   7.4067  12.4738   O.3       2 RES2   0.0000
    16 N1       4.7845   8.1692  11.9426   N.ar      2 RES2   0.0000
    17 O3      -1.8899  11.1152  12.4625   O.3       2 RES2   0.0000
    18 N2       4.3356   5.6421  12.4329   N.2       2 RES2   0.0000
    19 O4       1.3330   0.3909  12.1497   O.3       2 RES2   0.0000
    20 N3       2.7304   8.1702   9.8122   N.2       2 RES2   0.0000
    21 N4       4.7785   6.5665   9.6474   N.ar      2 RES2   0.0000
    22 C7       5.4597   6.1943  13.0980   C.ar      2 RES2   0.0000
    23 C8       5.6461   7.5786  12.8387   C.ar      2 RES2   0.0000
    24 C9       4.4898   7.2816   8.5075   C.ar      2 RES2   0.0000
    25 C10      3.9124   4.4481  12.7190   C.2       2 RES2   0.0000
    26 H1       4.3443   3.9887  13.4303   H         2 RES2   0.0000
    27 C11      0.9561   9.0573  11.2212   C.ar      2 RES2   0.0000
    28 C12      2.1349   4.3490  10.9690   C.ar      2 RES2   0.0000
    29 C13      2.8487   3.7709  12.0469   C.ar      2 RES2   0.0000
    30 C14      1.2600   8.3086  12.3794   C.ar      2 RES2   0.0000
    31 C15      3.3876   8.1508   8.5639   C.ar      2 RES2   0.0000
    32 C16      1.7011   8.9525  10.0151   C.2       2 RES2   0.0000
    33 H2       1.4258   9.4994   9.2894   H         2 RES2   0.0000
    34 C17     -0.0763  10.0158  11.2226   C.ar      2 RES2   0.0000
    35 H3      -0.2406  10.5293  10.4413   H         2 RES2   0.0000
    36 C18      6.7019   8.2990  13.4728   C.ar      2 RES2   0.0000
    37 C19      2.5701   2.4538  12.4724   C.ar      2 RES2   0.0000
    38 H4       3.0450   2.0901  13.2108   H         2 RES2   0.0000
    39 C20      7.5652   7.5890  14.3309   C.ar      2 RES2   0.0000
    40 H5       8.2727   8.0460  14.7696   H         2 RES2   0.0000
    41 C21      6.3436   5.5306  13.9251   C.ar      2 RES2   0.0000
    42 H6       6.2438   4.5977  14.0783   H         2 RES2   0.0000
    43 C22      1.1243   3.5329  10.3660   C.ar      2 RES2   0.0000
    44 H7       0.6099   3.8825   9.6476   H         2 RES2   0.0000
    45 C23      5.8081   5.7323   9.6347   C.ar      2 RES2   0.0000
    46 H8       6.0001   5.2288  10.4170   H         2 RES2   0.0000
    47 C24      5.2761   7.1514   7.3268   C.ar      2 RES2   0.0000
    48 C25      4.9139   9.4585  11.7200   C.ar      2 RES2   0.0000
    49 H9       4.3160   9.8759  11.1109   H         2 RES2   0.0000
    50 C26      3.0638   8.8867   7.4451   C.ar      2 RES2   0.0000
    51 H10      2.3178   9.4752   7.4619   H         2 RES2   0.0000
    52 C27      6.7825   9.6788  13.1952   C.ar      2 RES2   0.0000
    53 H11      7.4570  10.2055  13.6085   H         2 RES2   0.0000
    54 C28      1.6292   1.6977  11.8398   C.ar      2 RES2   0.0000
    55 C29     -0.8547  10.2176  12.3470   C.ar      2 RES2   0.0000
    56 C30      5.9063  10.2557  12.3470   C.ar      2 RES2   0.0000
    57 H12      5.9530  11.1885  12.1714   H         2 RES2   0.0000
    58 C31      7.3904   6.2351  14.5394   C.ar      2 RES2   0.0000
    59 H13      7.9909   5.7708  15.1104   H         2 RES2   0.0000
    60 C32      0.4412   8.5448  13.5165   C.ar      2 RES2   0.0000
    61 H14      0.5968   8.0427  14.3072   H         2 RES2   0.0000
    62 C33      0.8863   2.2511  10.8070   C.ar      2 RES2   0.0000
    63 H15      0.2002   1.7365  10.3985   H         2 RES2   0.0000
    64 C34     -0.5626   9.4739  13.5066   C.ar      2 RES2   0.0000
    65 H16     -1.0717   9.6191  14.2956   H         2 RES2   0.0000
    66 C35      4.8970   7.9177   6.2207   C.ar      2 RES2   0.0000
    67 H17      5.3895   7.8434   5.4118   H         2 RES2   0.0000
    68 C36      6.3588   6.2463   7.3761   C.ar      2 RES2   0.0000
    69 H18      6.9005   6.1165   6.6060   H         2 RES2   0.0000
    70 C37      6.6265   5.5665   8.5047   C.ar      2 RES2   0.0000
    71 H19      7.3692   4.9740   8.5387   H         2 RES2   0.0000
    72 C38      3.8417   8.7652   6.2785   C.ar      2 RES2   0.0000
    73 H20      3.6211   9.2866   5.5158   H         2 RES2   0.0000
    74 C39      2.2882  -0.3143  12.9345   C.3       2 RES2   0.0000
    75 H21      3.1730  -0.2362  12.5197   H         2 RES2   0.0000
    76 H22      2.0342  -1.2592  12.9860   H         2 RES2   0.0000
    77 H23      2.3157   0.0668  13.8366   H         2 RES2   0.0000
    78 C40     -2.1045  11.9523  11.3607   C.3       2 RES2   0.0000
    79 H24     -2.3533  11.4100  10.5832   H         2 RES2   0.0000
    80 H25     -1.2836  12.4493  11.1632   H         2 RES2   0.0000
    81 H26     -2.8270  12.5816  11.5650   H         2 RES2   0.0000
    82 S1       7.2601  15.5310  11.4458   S.2       3 RES3  -1.0000
    83 C41      6.1942  14.3716  11.1761   C.1       3 RES3   0.0000
    84 N5       5.4155  13.5353  11.0437   N.1       3 RES3   0.0000
    85 O5       3.8243  11.7225   9.6868   O.3       4 RES4   0.0000
    86 H27      4.2986  12.3130  10.0508   H         4 RES4   0.0000
    87 C42      2.7282  12.3149   9.0922   C.3       4 RES4   0.0000
    88 H28      2.5287  11.8577   8.2484   H         4 RES4   0.0000
    89 H29      2.9233  13.2583   8.9145   H         4 RES4   0.0000
    90 H30      1.9556  12.2474   9.6909   H         4 RES4   0.0000
@<TRIPOS>BOND
     1     1     7    1
     2     2    11    1
     3     3     8    1
     4     4     9    1
     5     5    12    1
     6     6    10    1
     7     7     9   ar
     8     8     9   ar
     9    10     7   ar
    10    11    10   ar
    11    12     8   ar
    12    11    12   ar
    13    13    14    1
    14    14    28    1
    15    15    13    1
    16    16    13    1
    17    17    55    1
    18    18    13    1
    19    19    54    1
    20    20    13    1
    21    21    13    1
    22    22    18    1
    23    23    16   ar
    24    24    21   ar
    25    25    18    2
    26    26    25    1
    27    27    30   ar
    28    28    29   ar
    29    29    25    1
    30    30    15    1
    31    31    20    1
    32    32    20    2
    33    33    32    1
    34    34    27   ar
    35    35    34    1
    36    36    23   ar
    37    37    29   ar
    38    38    37    1
    39    39    36   ar
    40    40    39    1
    41    41    22   ar
    42    42    41    1
    43    43    28   ar
    44    44    43    1
    45    45    21   ar
    46    46    45    1
    47    47    24   ar
    48    48    16   ar
    49    49    48    1
    50    50    31   ar
    51    51    50    1
    52    52    36   ar
    53    53    52    1
    54    54    37   ar
    55    55    34   ar
    56    56    48   ar
    57    57    56    1
    58    58    39   ar
    59    59    58    1
    60    60    30   ar
    61    61    60    1
    62    62    43   ar
    63    63    62    1
    64    64    55   ar
    65    65    64    1
    66    66    47   ar
    67    67    66    1
    68    68    47   ar
    69    69    68    1
    70    70    45   ar
    71    71    70    1
    72    72    50   ar
    73    73    72    1
    74    74    19    1
    75    75    74    1
    76    76    74    1
    77    77    74    1
    78    78    17    1
    79    79    78    1
    80    80    78    1
    81    81    78    1
    82    22    23   ar
    83    24    31   ar
    84    27    32    1
    85    41    58   ar
    86    52    56   ar
    87    54    62   ar
    88    60    64   ar
    89    66    72   ar
    90    68    70   ar
    91    82    83    1
    92    83    84    3
    93    85    86    1
    94    87    85    1
    95    88    87    1
    96    89    87    1
    97    90    87    1
@<TRIPOS>SUBSTRUCTURE
     1 RES1        1 GROUP             0 ****  ****    0  
     2 RES2       13 GROUP             0 ****  ****    0  
     3 RES3       82 GROUP             0 ****  ****    0  
     4 RES4       85 GROUP             0 ****  ****    0  
@<TRIPOS>CRYSIN
   11.4985   12.6968   14.4003   95.5470  100.4960   90.1850     2     1
