@<TRIPOS>MOLECULE
OPEVUD15
    90    97     4     0     0
SMALL
USER_CHARGES
****
Generated from the CSD

@<TRIPOS>ATOM
     1 I1      -2.3684   2.5615   8.8334   I         1 RES1   0.0000
     2 I2       2.3206   0.7288   5.4010   I         1 RES1   0.0000
     3 I3      -1.1859   5.1986   3.5194   I         1 RES1   0.0000
     4 F1       1.0664   3.0221   3.6813   F         1 RES1   0.0000
     5 F2      -2.5358   4.4481   6.2884   F         1 RES1   0.0000
     6 F3       0.1469   0.9023   7.7550   F         1 RES1   0.0000
     7 C1       0.6620   1.9332   5.7026   C.ar      1 RES1   0.0000
     8 C2       0.3272   2.8978   4.7865   C.ar      1 RES1   0.0000
     9 C3      -0.7692   3.7778   4.9446   C.ar      1 RES1   0.0000
    10 C4      -1.2257   2.6642   7.0775   C.ar      1 RES1   0.0000
    11 C5      -0.1405   1.8352   6.8432   C.ar      1 RES1   0.0000
    12 C6      -1.4970   3.6236   6.0979   C.ar      1 RES1   0.0000
    13 Fe1      5.4471   4.5570   2.9004   Fe        2 RES2   1.0000
    14 O1       6.7410   3.8794   1.6670   O.3       2 RES2   0.0000
    15 O2       6.4520   6.0345   3.5133   O.3       2 RES2   0.0000
    16 N1       4.4099   5.8648   1.6120   N.2       2 RES2   0.0000
    17 N2       6.1409   3.1621   4.3165   N.2       2 RES2   0.0000
    18 O3      10.6532   0.0071   1.7221   O.3       2 RES2   0.0000
    19 N3       3.9697   3.2971   2.0326   N.ar      2 RES2   0.0000
    20 O4       7.2244  11.2406   1.9183   O.3       2 RES2   0.0000
    21 N4       4.0785   4.7995   4.5452   N.ar      2 RES2   0.0000
    22 C7       7.1059   2.3090   4.1005   C.2       2 RES2   0.0000
    23 H1       7.3264   1.7406   4.8032   H         2 RES2   0.0000
    24 C8       4.3814   4.0682   5.6518   C.ar      2 RES2   0.0000
    25 C9       3.2946   5.3022   0.9373   C.ar      2 RES2   0.0000
    26 C10      7.8534   2.1584   2.9035   C.ar      2 RES2   0.0000
    27 C11      3.0942   3.9019   1.1885   C.ar      2 RES2   0.0000
    28 C12      5.4890   3.1870   5.5798   C.ar      2 RES2   0.0000
    29 C13      4.7553   7.0893   1.3819   C.2       2 RES2   0.0000
    30 H2       4.2660   7.5491   0.7378   H         2 RES2   0.0000
    31 C14      5.8183   7.8056   2.0213   C.ar      2 RES2   0.0000
    32 C15      6.6006   7.2636   3.0518   C.ar      2 RES2   0.0000
    33 C16      7.6526   2.9304   1.7447   C.ar      2 RES2   0.0000
    34 C17      8.8751   1.1683   2.9134   C.ar      2 RES2   0.0000
    35 H3       9.0205   0.6715   3.6865   H         2 RES2   0.0000
    36 C18      2.0461   3.2092   0.5604   C.ar      2 RES2   0.0000
    37 C19      9.6500   0.9339   1.8068   C.ar      2 RES2   0.0000
    38 C20      3.6235   4.1779   6.8643   C.ar      2 RES2   0.0000
    39 C21      6.0056   9.1585   1.6120   C.ar      2 RES2   0.0000
    40 H4       5.4821   9.5157   0.9324   H         2 RES2   0.0000
    41 C22      2.4037   5.9564   0.1200   C.ar      2 RES2   0.0000
    42 H5       2.5006   6.8691  -0.0304   H         2 RES2   0.0000
    43 C23      7.5922   8.0782   3.6375   C.ar      2 RES2   0.0000
    44 H6       8.1324   7.7351   4.3123   H         2 RES2   0.0000
    45 C24      1.1641   3.9211  -0.2724   C.ar      2 RES2   0.0000
    46 H7       0.4515   3.4795  -0.6754   H         2 RES2   0.0000
    47 C25      8.4642   2.6544   0.6126   C.ar      2 RES2   0.0000
    48 H8       8.3415   3.1389  -0.1717   H         2 RES2   0.0000
    49 C26      6.9611   9.9350   2.2246   C.ar      2 RES2   0.0000
    50 C27      5.8422   2.4590   6.6921   C.ar      2 RES2   0.0000
    51 H9       6.5716   1.8839   6.6552   H         2 RES2   0.0000
    52 C28      3.8340   1.9854   2.2599   C.ar      2 RES2   0.0000
    53 H10      4.4298   1.5653   2.8379   H         2 RES2   0.0000
    54 C29      3.0392   5.6250   4.5875   C.ar      2 RES2   0.0000
    55 H11      2.8253   6.1227   3.8312   H         2 RES2   0.0000
    56 C30      1.9414   1.8174   0.8300   C.ar      2 RES2   0.0000
    57 H12      1.2645   1.3176   0.4354   H         2 RES2   0.0000
    58 C31      7.7663   9.3749   3.2155   C.ar      2 RES2   0.0000
    59 H13      8.4372   9.8904   3.6004   H         2 RES2   0.0000
    60 C32      2.8221   1.2222   1.6571   C.ar      2 RES2   0.0000
    61 H14      2.7599   0.3096   1.8285   H         2 RES2   0.0000
    62 C33      2.5440   5.0561   6.8530   C.ar      2 RES2   0.0000
    63 H15      2.0210   5.1518   7.6155   H         2 RES2   0.0000
    64 C34      9.4225   1.6872   0.6648   C.ar      2 RES2   0.0000
    65 H16      9.9404   1.5259  -0.0908   H         2 RES2   0.0000
    66 C35      1.3481   5.2593  -0.4912   C.ar      2 RES2   0.0000
    67 H17      0.7633   5.7150  -1.0527   H         2 RES2   0.0000
    68 C36      5.1045   2.5798   7.8863   C.ar      2 RES2   0.0000
    69 H18      5.3715   2.1034   8.6389   H         2 RES2   0.0000
    70 C37      2.2493   5.7678   5.7464   C.ar      2 RES2   0.0000
    71 H19      1.5265   6.3524   5.7490   H         2 RES2   0.0000
    72 C38      4.0138   3.3803   7.9569   C.ar      2 RES2   0.0000
    73 H20      3.5137   3.4021   8.7414   H         2 RES2   0.0000
    74 C39      6.2700  11.9479   1.1419   C.3       2 RES2   0.0000
    75 H21      6.1710  11.5184   0.2886   H         2 RES2   0.0000
    76 H22      6.5685  12.8508   1.0128   H         2 RES2   0.0000
    77 H23      5.4262  11.9509   1.5985   H         2 RES2   0.0000
    78 C40     10.8661  -0.8227   2.8217   C.3       2 RES2   0.0000
    79 H24     11.5799  -1.4345   2.6265   H         2 RES2   0.0000
    80 H25     10.0644  -1.3155   3.0098   H         2 RES2   0.0000
    81 H26     11.1011  -0.2891   3.5838   H         2 RES2   0.0000
    82 S1       1.7794  -4.4056   2.6317   S.2       3 RES3  -1.0000
    83 C41      2.6648  -3.0633   2.8965   C.1       3 RES3   0.0000
    84 N5       3.2753  -2.1138   3.0645   N.1       3 RES3   0.0000
    85 O5       4.9672  -0.3192   4.3631   O.3       4 RES4   0.0000
    86 H27      4.5994  -0.8389   3.8466   H         4 RES4   0.0000
    87 C42      5.8876  -0.9980   5.1168   C.3       4 RES4   0.0000
    88 H28      6.7708  -0.8025   4.7964   H         4 RES4   0.0000
    89 H29      5.7234  -1.9417   5.0471   H         4 RES4   0.0000
    90 H30      5.8117  -0.7269   6.0342   H         4 RES4   0.0000
@<TRIPOS>BOND
     1     1    10    1
     2     2     7    1
     3     3     9    1
     4     4     8    1
     5     5    12    1
     6     6    11    1
     7     7     8   ar
     8     8     9   ar
     9     9    12   ar
    10    10    11   ar
    11    11     7   ar
    12    12    10   ar
    13    13    14    1
    14    14    33    1
    15    15    13    1
    16    16    13    1
    17    17    13    1
    18    18    37    1
    19    19    13    1
    20    20    49    1
    21    21    13    1
    22    22    17    2
    23    23    22    1
    24    24    21   ar
    25    25    16    1
    26    26    22    1
    27    27    19   ar
    28    28    17    1
    29    29    16    2
    30    30    29    1
    31    31    29    1
    32    32    15    1
    33    33    26   ar
    34    34    26   ar
    35    35    34    1
    36    36    27   ar
    37    37    34   ar
    38    38    24   ar
    39    39    31   ar
    40    40    39    1
    41    41    25   ar
    42    42    41    1
    43    43    32   ar
    44    44    43    1
    45    45    36   ar
    46    46    45    1
    47    47    33   ar
    48    48    47    1
    49    49    39   ar
    50    50    28   ar
    51    51    50    1
    52    52    19   ar
    53    53    52    1
    54    54    21   ar
    55    55    54    1
    56    56    36   ar
    57    57    56    1
    58    58    43   ar
    59    59    58    1
    60    60    52   ar
    61    61    60    1
    62    62    38   ar
    63    63    62    1
    64    64    37   ar
    65    65    64    1
    66    66    41   ar
    67    67    66    1
    68    68    50   ar
    69    69    68    1
    70    70    54   ar
    71    71    70    1
    72    72    38   ar
    73    73    72    1
    74    74    20    1
    75    75    74    1
    76    76    74    1
    77    77    74    1
    78    78    18    1
    79    79    78    1
    80    80    78    1
    81    81    78    1
    82    24    28   ar
    83    25    27   ar
    84    31    32   ar
    85    45    66   ar
    86    47    64   ar
    87    49    58   ar
    88    56    60   ar
    89    62    70   ar
    90    68    72   ar
    91    82    83    1
    92    83    84    3
    93    85    86    1
    94    87    85    1
    95    88    87    1
    96    89    87    1
    97    90    87    1
@<TRIPOS>SUBSTRUCTURE
     1 RES1        1 GROUP             0 ****  ****    0  
     2 RES2       13 GROUP             0 ****  ****    0  
     3 RES3       82 GROUP             0 ****  ****    0  
     4 RES4       85 GROUP             0 ****  ****    0  
@<TRIPOS>CRYSIN
   11.3879   13.0502   14.3987   95.7690   99.7220   90.5700     2     1
