@<TRIPOS>MOLECULE
OPEVIR34
    84    92     3     0     0
SMALL
USER_CHARGES
****
Generated from the CSD

@<TRIPOS>ATOM
     1 I1       0.2427   3.5855   5.2140   I         1 RES1   0.0000
     2 I2       5.2053   1.6812   8.1840   I         1 RES1   0.0000
     3 I3       2.2215   6.4914  10.1248   I         1 RES1   0.0000
     4 F1       0.5088   5.6591   7.5889   F         1 RES1   0.0000
     5 F2       2.8055   1.8475   6.0868   F         1 RES1   0.0000
     6 F3       4.4179   4.2853   9.7490   F         1 RES1   0.0000
     7 C1       2.4496   4.9762   8.7124   C.ar      1 RES1   0.0000
     8 C2       1.5336   4.8005   7.7056   C.ar      1 RES1   0.0000
     9 C3       3.6560   3.0333   7.9050   C.ar      1 RES1   0.0000
    10 C4       2.6769   2.8873   6.9295   C.ar      1 RES1   0.0000
    11 C5       1.6245   3.7849   6.7870   C.ar      1 RES1   0.0000
    12 C6       3.5026   4.1101   8.7978   C.ar      1 RES1   0.0000
    13 Fe1      8.5107   5.7957  10.7083   Fe        2 RES2   1.0000
    14 O1       9.6972   7.0250   9.9878   O.3       2 RES2   0.0000
    15 O2       9.7186   5.2977  12.0462   O.3       2 RES2   0.0000
    16 O3      14.0409   1.8842  11.8983   O.3       2 RES2   0.0000
    17 O4      10.8695  12.1996  11.5061   O.3       2 RES2   0.0000
    18 N1       9.1862   4.5002   9.4193   N.2       2 RES2   0.0000
    19 N2       7.7098   7.0576  11.9403   N.2       2 RES2   0.0000
    20 N3       7.1644   4.5852  11.4885   N.ar      2 RES2   0.0000
    21 N4       7.2123   6.1806   9.2592   N.ar      2 RES2   0.0000
    22 C7      10.2562   3.7949   9.5672   C.2       2 RES2   0.0000
    23 H1      10.5258   3.2503   8.8370   H         2 RES2   0.0000
    24 C8       9.9848   8.2239  10.4790   C.ar      2 RES2   0.0000
    25 C9       9.2612   8.8505  11.5441   C.ar      2 RES2   0.0000
    26 C10     10.7520   4.5000  11.9091   C.ar      2 RES2   0.0000
    27 C11     12.9690   2.7355  11.8128   C.ar      2 RES2   0.0000
    28 C12      6.5615   6.5770  12.6092   C.ar      2 RES2   0.0000
    29 C13      8.4108   4.4160   8.2388   C.ar      2 RES2   0.0000
    30 C14      6.3223   5.2020  12.3596   C.ar      2 RES2   0.0000
    31 C15      7.3732   5.3529   8.1764   C.ar      2 RES2   0.0000
    32 C16      8.1782   8.2346  12.2185   C.2       2 RES2   0.0000
    33 H2       7.7655   8.7175  12.9252   H         2 RES2   0.0000
    34 C17     11.6216   4.3262  13.0109   C.ar      2 RES2   0.0000
    35 H3      11.4534   4.8138  13.8092   H         2 RES2   0.0000
    36 C18     11.0627   3.7682  10.7300   C.ar      2 RES2   0.0000
    37 C19     12.1668   2.8819  10.7097   C.ar      2 RES2   0.0000
    38 H4      12.3543   2.3826   9.9238   H         2 RES2   0.0000
    39 C20      5.2532   4.5485  12.9987   C.ar      2 RES2   0.0000
    40 C21      6.2726   7.1123   9.2253   C.ar      2 RES2   0.0000
    41 H5       6.1654   7.6919   9.9706   H         2 RES2   0.0000
    42 C22      9.5747  10.1793  11.9132   C.ar      2 RES2   0.0000
    43 H6       9.0999  10.5885  12.6273   H         2 RES2   0.0000
    44 C23      6.5364   5.4522   7.0312   C.ar      2 RES2   0.0000
    45 C24      6.9799   3.2807  11.2592   C.ar      2 RES2   0.0000
    46 H7       7.5550   2.8404  10.6441   H         2 RES2   0.0000
    47 C25     12.6866   3.4906  12.9702   C.ar      2 RES2   0.0000
    48 H8      13.2503   3.4119  13.7312   H         2 RES2   0.0000
    49 C26     10.5475  10.8850  11.2660   C.ar      2 RES2   0.0000
    50 C27     11.0293   8.9667   9.8725   C.ar      2 RES2   0.0000
    51 H9      11.5528   8.5663   9.1883   H         2 RES2   0.0000
    52 C28     11.2946  10.2556  10.2592   C.ar      2 RES2   0.0000
    53 H10     11.9988  10.7315   9.8356   H         2 RES2   0.0000
    54 C29      4.4058   5.2834  13.8345   C.ar      2 RES2   0.0000
    55 H11      3.6819   4.8550  14.2746   H         2 RES2   0.0000
    56 C30      5.7100   7.2759  13.4234   C.ar      2 RES2   0.0000
    57 H12      5.8549   8.2013  13.5842   H         2 RES2   0.0000
    58 C31      7.7573   3.5981   6.0584   C.ar      2 RES2   0.0000
    59 H13      7.8812   2.9808   5.3471   H         2 RES2   0.0000
    60 C32      5.5352   6.4415   7.0339   C.ar      2 RES2   0.0000
    61 H14      4.9456   6.5312   6.2947   H         2 RES2   0.0000
    62 C33      5.4228   7.2638   8.1031   C.ar      2 RES2   0.0000
    63 H15      4.7666   7.9513   8.1007   H         2 RES2   0.0000
    64 C34      8.5960   3.5391   7.1886   C.ar      2 RES2   0.0000
    65 H16      9.2919   2.8929   7.2281   H         2 RES2   0.0000
    66 C35     14.1694   0.9150  10.8725   C.3       2 RES2   0.0000
    67 H17     14.3368   1.3640  10.0181   H         2 RES2   0.0000
    68 H18     13.3423   0.3928  10.8112   H         2 RES2   0.0000
    69 H19     14.9181   0.3174  11.0801   H         2 RES2   0.0000
    70 C36      6.7607   4.5423   5.9742   C.ar      2 RES2   0.0000
    71 H20      6.2171   4.5832   5.1962   H         2 RES2   0.0000
    72 C37      4.6247   6.6218  14.0163   C.ar      2 RES2   0.0000
    73 H21      4.0235   7.1196  14.5578   H         2 RES2   0.0000
    74 C38      5.1054   3.1451  12.7395   C.ar      2 RES2   0.0000
    75 H22      4.4110   2.6476  13.1556   H         2 RES2   0.0000
    76 C39      9.9423  12.9282  12.3107   C.3       2 RES2   0.0000
    77 H23      9.0576  12.9070  11.8913   H         2 RES2   0.0000
    78 H24     10.2425  13.8580  12.3942   H         2 RES2   0.0000
    79 H25      9.8922  12.5211  13.2011   H         2 RES2   0.0000
    80 C40      5.9766   2.5405  11.8874   C.ar      2 RES2   0.0000
    81 H26      5.9016   1.6089  11.7185   H         2 RES2   0.0000
    82 S1      -1.6998   3.9467   2.6533   S.2       3 RES3  -1.0000
    83 N5      -3.6457   1.9752   3.1058   N.1       3 RES3   0.0000
    84 C41     -2.8231   2.8105   2.9186   C.1       3 RES3   0.0000
@<TRIPOS>BOND
     1     1    11    1
     2     2     9    1
     3     3     7    1
     4     4     8    1
     5     5    10    1
     6     6    12    1
     7     7     8   ar
     8     8    11   ar
     9     9    10   ar
    10    10    11   ar
    11    12     7   ar
    12     9    12   ar
    13    13    14    1
    14    14    24    1
    15    15    13    1
    16    16    27    1
    17    17    49    1
    18    18    13    1
    19    19    13    1
    20    20    13    1
    21    21    13    1
    22    22    18    2
    23    23    22    1
    24    24    25   ar
    25    25    32    1
    26    26    15    1
    27    27    37   ar
    28    28    19    1
    29    29    18    1
    30    30    20   ar
    31    31    21   ar
    32    32    19    2
    33    33    32    1
    34    34    26   ar
    35    35    34    1
    36    36    22    1
    37    37    36   ar
    38    38    37    1
    39    39    30   ar
    40    40    21   ar
    41    41    40    1
    42    42    25   ar
    43    43    42    1
    44    44    31   ar
    45    45    20   ar
    46    46    45    1
    47    47    27   ar
    48    48    47    1
    49    49    42   ar
    50    50    24   ar
    51    51    50    1
    52    52    49   ar
    53    53    52    1
    54    54    39   ar
    55    55    54    1
    56    56    28   ar
    57    57    56    1
    58    58    59    1
    59    60    44   ar
    60    61    60    1
    61    62    40   ar
    62    63    62    1
    63    64    29   ar
    64    65    64    1
    65    66    16    1
    66    67    66    1
    67    68    66    1
    68    69    66    1
    69    70    44   ar
    70    71    70    1
    71    72    54   ar
    72    73    72    1
    73    74    39   ar
    74    75    74    1
    75    76    17    1
    76    77    76    1
    77    78    76    1
    78    79    76    1
    79    80    45   ar
    80    81    80    1
    81    26    36   ar
    82    28    30   ar
    83    29    31   ar
    84    34    47   ar
    85    50    52   ar
    86    56    72   ar
    87    58    64   ar
    88    58    70   ar
    89    60    62   ar
    90    74    80   ar
    91    82    84    1
    92    83    84    3
@<TRIPOS>SUBSTRUCTURE
     1 RES1        1 GROUP             0 ****  ****    0  
     2 RES2       13 GROUP             0 ****  ****    0  
     3 RES3       82 GROUP             0 ****  ****    0  
@<TRIPOS>CRYSIN
   11.7346   12.3624   14.0037   83.1400   77.4060   89.3020     2     1
