@<TRIPOS>MOLECULE
OPEVIR25
    84    92     3     0     0
SMALL
USER_CHARGES
****
Generated from the CSD

@<TRIPOS>ATOM
     1 I1       0.2520   3.5918   5.2206   I         1 RES1   0.0000
     2 I2       5.2425   1.7237   8.1888   I         1 RES1   0.0000
     3 I3       2.2728   6.5720  10.0713   I         1 RES1   0.0000
     4 F1       2.8130   1.8654   6.0962   F         1 RES1   0.0000
     5 F2       0.5411   5.7034   7.5620   F         1 RES1   0.0000
     6 F3       4.4788   4.3473   9.7065   F         1 RES1   0.0000
     7 C1       2.4946   5.0518   8.6774   C.ar      1 RES1   0.0000
     8 C2       3.6937   3.0891   7.9021   C.ar      1 RES1   0.0000
     9 C3       1.6580   3.7888   6.7763   C.ar      1 RES1   0.0000
    10 C4       1.5745   4.8403   7.6761   C.ar      1 RES1   0.0000
    11 C5       2.7120   2.9147   6.9400   C.ar      1 RES1   0.0000
    12 C6       3.5477   4.1655   8.7545   C.ar      1 RES1   0.0000
    13 Fe1      8.5959   5.8580  10.6831   Fe        2 RES2   1.0000
    14 O1       9.8079   5.3574  12.0257   O.3       2 RES2   0.0000
    15 O2       9.7974   7.0941   9.9517   O.3       2 RES2   0.0000
    16 O3      14.1849   1.9961  11.8504   O.3       2 RES2   0.0000
    17 N1       9.2588   4.5533   9.4053   N.2       2 RES2   0.0000
    18 O4      10.9729  12.2628  11.4566   O.3       2 RES2   0.0000
    19 N2       7.8062   7.1288  11.9099   N.2       2 RES2   0.0000
    20 N3       7.2948   6.2419   9.2308   N.ar      2 RES2   0.0000
    21 N4       7.2322   4.6398  11.4702   N.ar      2 RES2   0.0000
    22 C7      10.3475   3.8631   9.5393   C.2       2 RES2   0.0000
    23 H1      10.6182   3.3274   8.8031   H         2 RES2   0.0000
    24 C8       7.4375   5.4034   8.1524   C.ar      2 RES2   0.0000
    25 C9       9.3661   8.9213  11.4945   C.ar      2 RES2   0.0000
    26 C10     10.8557   4.5761  11.8707   C.ar      2 RES2   0.0000
    27 C11     11.1671   3.8436  10.6948   C.ar      2 RES2   0.0000
    28 C12      8.4841   4.4536   8.2254   C.ar      2 RES2   0.0000
    29 C13      6.3870   5.2830  12.3429   C.ar      2 RES2   0.0000
    30 C14      6.6445   6.6513  12.5797   C.ar      2 RES2   0.0000
    31 C15     12.2851   2.9692  10.6718   C.ar      2 RES2   0.0000
    32 H2      12.4753   2.4711   9.8855   H         2 RES2   0.0000
    33 C16      9.6716  10.2457  11.8720   C.ar      2 RES2   0.0000
    34 H3       9.2002  10.6547  12.5881   H         2 RES2   0.0000
    35 C17     11.7301   4.4166  12.9734   C.ar      2 RES2   0.0000
    36 H4      11.5591   4.8997  13.7729   H         2 RES2   0.0000
    37 C18     10.0767   8.2821  10.4405   C.ar      2 RES2   0.0000
    38 C19      7.8053   3.6140   6.0727   C.ar      2 RES2   0.0000
    39 H5       7.9241   2.9890   5.3682   H         2 RES2   0.0000
    40 C20     13.0968   2.8331  11.7733   C.ar      2 RES2   0.0000
    41 C21      8.2782   8.3111  12.1792   C.2       2 RES2   0.0000
    42 H6       7.8686   8.7999  12.8832   H         2 RES2   0.0000
    43 C22     11.1237   9.0208   9.8343   C.ar      2 RES2   0.0000
    44 H7      11.6496   8.6115   9.1574   H         2 RES2   0.0000
    45 C23      7.0545   3.3438  11.2577   C.ar      2 RES2   0.0000
    46 H8       7.6417   2.8946  10.6610   H         2 RES2   0.0000
    47 C24      8.6451   3.5544   7.1944   C.ar      2 RES2   0.0000
    48 H9       9.3245   2.8928   7.2425   H         2 RES2   0.0000
    49 C25     10.6541  10.9528  11.2022   C.ar      2 RES2   0.0000
    50 C26     11.3926  10.3084  10.2037   C.ar      2 RES2   0.0000
    51 H10     12.0970  10.7769   9.7718   H         2 RES2   0.0000
    52 C27      6.3579   7.1734   9.1888   C.ar      2 RES2   0.0000
    53 H11      6.2561   7.7599   9.9293   H         2 RES2   0.0000
    54 C28      6.5980   5.4721   7.0158   C.ar      2 RES2   0.0000
    55 C29      5.3137   4.6259  12.9694   C.ar      2 RES2   0.0000
    56 C30      5.7911   7.3650  13.3861   C.ar      2 RES2   0.0000
    57 H12      5.9426   8.2894  13.5422   H         2 RES2   0.0000
    58 C31     12.8145   3.5857  12.9139   C.ar      2 RES2   0.0000
    59 H13     13.3894   3.5182  13.6681   H         2 RES2   0.0000
    60 C32      4.4566   5.3853  13.8042   C.ar      2 RES2   0.0000
    61 H14      3.7232   4.9671  14.2408   H         2 RES2   0.0000
    62 C33      6.8190   4.5556   5.9739   C.ar      2 RES2   0.0000
    63 H15      6.2777   4.5895   5.1945   H         2 RES2   0.0000
    64 C34      5.6112   6.4970   7.0090   C.ar      2 RES2   0.0000
    65 H16      5.0333   6.6004   6.2633   H         2 RES2   0.0000
    66 C35      4.6880   6.7161  13.9801   C.ar      2 RES2   0.0000
    67 H17      4.0902   7.2224  14.5174   H         2 RES2   0.0000
    68 C36      5.5046   7.3241   8.0753   C.ar      2 RES2   0.0000
    69 H18      4.8482   8.0107   8.0731   H         2 RES2   0.0000
    70 C37      6.0357   2.6120  11.8788   C.ar      2 RES2   0.0000
    71 H19      5.9465   1.6810  11.7106   H         2 RES2   0.0000
    72 C38      5.1744   3.2404  12.7231   C.ar      2 RES2   0.0000
    73 H20      4.4810   2.7483  13.1463   H         2 RES2   0.0000
    74 C39     10.0563  13.0043  12.2387   C.3       2 RES2   0.0000
    75 H21      9.1768  12.9962  11.8057   H         2 RES2   0.0000
    76 H22     10.3706  13.9294  12.3205   H         2 RES2   0.0000
    77 H23      9.9861  12.6030  13.1292   H         2 RES2   0.0000
    78 C40     14.2833   0.9967  10.8464   C.3       2 RES2   0.0000
    79 H24     14.4014   1.4225   9.9718   H         2 RES2   0.0000
    80 H25     13.4636   0.4589  10.8396   H         2 RES2   0.0000
    81 H26     15.0514   0.4184  11.0349   H         2 RES2   0.0000
    82 S1      -1.7264   3.9268   2.6598   S.2       3 RES3  -1.0000
    83 C41     -2.8840   2.7787   2.9267   C.1       3 RES3   0.0000
    84 N5      -3.7043   1.9772   3.1175   N.1       3 RES3   0.0000
@<TRIPOS>BOND
     1     1     9    1
     2     2     8    1
     3     3     7    1
     4     4    11    1
     5     5    10    1
     6     6    12    1
     7     7    10   ar
     8     8    11   ar
     9     9    10   ar
    10    11     9   ar
    11    12     7   ar
    12     8    12   ar
    13    13    14    1
    14    14    26    1
    15    15    13    1
    16    16    40    1
    17    17    13    1
    18    18    49    1
    19    19    13    1
    20    20    13    1
    21    21    13    1
    22    22    17    2
    23    23    22    1
    24    24    20   ar
    25    25    33   ar
    26    26    27   ar
    27    27    22    1
    28    28    17    1
    29    29    21   ar
    30    30    19    1
    31    31    27   ar
    32    32    31    1
    33    33    34    1
    34    35    26   ar
    35    36    35    1
    36    37    15    1
    37    38    39    1
    38    40    31   ar
    39    41    19    2
    40    42    41    1
    41    43    37   ar
    42    44    43    1
    43    45    21   ar
    44    46    45    1
    45    47    28   ar
    46    48    47    1
    47    49    33   ar
    48    50    43   ar
    49    51    50    1
    50    52    20   ar
    51    53    52    1
    52    54    24   ar
    53    55    29   ar
    54    56    30   ar
    55    57    56    1
    56    58    35   ar
    57    59    58    1
    58    60    55   ar
    59    61    60    1
    60    62    38   ar
    61    63    62    1
    62    64    54   ar
    63    65    64    1
    64    66    56   ar
    65    67    66    1
    66    68    52   ar
    67    69    68    1
    68    70    45   ar
    69    71    70    1
    70    72    55   ar
    71    73    72    1
    72    74    18    1
    73    75    74    1
    74    76    74    1
    75    77    74    1
    76    78    16    1
    77    79    78    1
    78    80    78    1
    79    81    78    1
    80    24    28   ar
    81    25    37   ar
    82    25    41    1
    83    29    30   ar
    84    38    47   ar
    85    40    58   ar
    86    49    50   ar
    87    54    62   ar
    88    60    66   ar
    89    64    68   ar
    90    70    72   ar
    91    82    83    1
    92    83    84    3
@<TRIPOS>SUBSTRUCTURE
     1 RES1        1 GROUP             0 ****  ****    0  
     2 RES2       13 GROUP             0 ****  ****    0  
     3 RES3       82 GROUP             0 ****  ****    0  
@<TRIPOS>CRYSIN
   11.8332   12.3448   13.9874   82.7530   77.2090   89.2460     2     1
