@<TRIPOS>MOLECULE
OPEVUD11
    90    97     4     0     0
SMALL
USER_CHARGES
****
Generated from the CSD

@<TRIPOS>ATOM
     1 I1      -2.3682   2.5537   8.8321   I         1 RES1   0.0000
     2 I2       2.3331   0.7276   5.4012   I         1 RES1   0.0000
     3 I3      -1.1847   5.1988   3.5139   I         1 RES1   0.0000
     4 F1       1.0720   3.0275   3.6804   F         1 RES1   0.0000
     5 F2       0.1531   0.8989   7.7563   F         1 RES1   0.0000
     6 F3      -2.5475   4.4425   6.2819   F         1 RES1   0.0000
     7 C1       0.6719   1.9290   5.7028   C.ar      1 RES1   0.0000
     8 C2       0.3260   2.9019   4.7863   C.ar      1 RES1   0.0000
     9 C3      -0.7704   3.7718   4.9473   C.ar      1 RES1   0.0000
    10 C4      -1.2231   2.6522   7.0714   C.ar      1 RES1   0.0000
    11 C5      -1.5027   3.6210   6.0941   C.ar      1 RES1   0.0000
    12 C6      -0.1326   1.8363   6.8426   C.ar      1 RES1   0.0000
    13 Fe1      5.4429   4.5523   2.9055   Fe        2 RES2   1.0000
    14 O1       6.7327   3.8805   1.6623   O.3       2 RES2   0.0000
    15 O2       6.4527   6.0287   3.5209   O.3       2 RES2   0.0000
    16 N1       4.4063   5.8591   1.6185   N.2       2 RES2   0.0000
    17 N2       6.1377   3.1597   4.3146   N.2       2 RES2   0.0000
    18 O3      10.6598   0.0045   1.7216   O.3       2 RES2   0.0000
    19 N3       3.9709   3.2897   2.0394   N.ar      2 RES2   0.0000
    20 O4       7.2211  11.2446   1.9264   O.3       2 RES2   0.0000
    21 N4       4.0789   4.7967   4.5462   N.ar      2 RES2   0.0000
    22 C7       7.8635   2.1621   2.9009   C.ar      2 RES2   0.0000
    23 C8       7.1043   2.3071   4.0999   C.2       2 RES2   0.0000
    24 H1       7.3200   1.7351   4.8007   H         2 RES2   0.0000
    25 C9       4.3800   4.0632   5.6548   C.ar      2 RES2   0.0000
    26 C10      3.0982   3.8966   1.1948   C.ar      2 RES2   0.0000
    27 C11      5.8166   7.7992   2.0323   C.ar      2 RES2   0.0000
    28 C12      2.0468   3.1957   0.5635   C.ar      2 RES2   0.0000
    29 C13      3.2969   5.2981   0.9462   C.ar      2 RES2   0.0000
    30 C14      5.4872   3.1939   5.5757   C.ar      2 RES2   0.0000
    31 C15      6.6070   7.2555   3.0590   C.ar      2 RES2   0.0000
    32 C16      7.6513   2.9313   1.7498   C.ar      2 RES2   0.0000
    33 C17      4.7616   7.0944   1.3756   C.2       2 RES2   0.0000
    34 H2       4.2870   7.5523   0.7197   H         2 RES2   0.0000
    35 C18      8.8827   1.1703   2.9093   C.ar      2 RES2   0.0000
    36 H3       9.0266   0.6684   3.6789   H         2 RES2   0.0000
    37 C19      9.6523   0.9410   1.8063   C.ar      2 RES2   0.0000
    38 C20      6.0098   9.1544   1.6143   C.ar      2 RES2   0.0000
    39 H4       5.4897   9.5103   0.9311   H         2 RES2   0.0000
    40 C21      3.6157   4.1848   6.8652   C.ar      2 RES2   0.0000
    41 C22      5.8348   2.4530   6.6929   C.ar      2 RES2   0.0000
    42 H5       6.5619   1.8749   6.6538   H         2 RES2   0.0000
    43 C23      6.9609   9.9242   2.2230   C.ar      2 RES2   0.0000
    44 C24      2.4046   5.9448   0.1200   C.ar      2 RES2   0.0000
    45 H6       2.5047   6.8558  -0.0404   H         2 RES2   0.0000
    46 C25      1.1645   3.9119  -0.2782   C.ar      2 RES2   0.0000
    47 H7       0.4590   3.4711  -0.6956   H         2 RES2   0.0000
    48 C26      7.5940   8.0768   3.6480   C.ar      2 RES2   0.0000
    49 H8       8.1270   7.7371   4.3297   H         2 RES2   0.0000
    50 C27      3.0381   5.6330   4.5787   C.ar      2 RES2   0.0000
    51 H9       2.8293   6.1337   3.8231   H         2 RES2   0.0000
    52 C28      1.9497   1.8082   0.8290   C.ar      2 RES2   0.0000
    53 H10      1.2752   1.3066   0.4310   H         2 RES2   0.0000
    54 C29      9.4273   1.6851   0.6581   C.ar      2 RES2   0.0000
    55 H11      9.9451   1.5222  -0.0965   H         2 RES2   0.0000
    56 C30      3.8389   1.9819   2.2653   C.ar      2 RES2   0.0000
    57 H12      4.4328   1.5621   2.8453   H         2 RES2   0.0000
    58 C31      2.5362   5.0502   6.8567   C.ar      2 RES2   0.0000
    59 H13      2.0075   5.1357   7.6177   H         2 RES2   0.0000
    60 C32      2.2436   5.7715   5.7523   C.ar      2 RES2   0.0000
    61 H14      1.5231   6.3587   5.7585   H         2 RES2   0.0000
    62 C33      8.4632   2.6512   0.6087   C.ar      2 RES2   0.0000
    63 H15      8.3338   3.1314  -0.1773   H         2 RES2   0.0000
    64 C34      7.7753   9.3754   3.2229   C.ar      2 RES2   0.0000
    65 H16      8.4468   9.8940   3.6049   H         2 RES2   0.0000
    66 C35      1.3478   5.2485  -0.4802   C.ar      2 RES2   0.0000
    67 H17      0.7560   5.7088  -1.0295   H         2 RES2   0.0000
    68 C36      2.8248   1.2165   1.6524   C.ar      2 RES2   0.0000
    69 H18      2.7642   0.3041   1.8199   H         2 RES2   0.0000
    70 C37      5.0987   2.5667   7.8919   C.ar      2 RES2   0.0000
    71 H19      5.3544   2.0749   8.6384   H         2 RES2   0.0000
    72 C38      4.0214   3.3883   7.9653   C.ar      2 RES2   0.0000
    73 H20      3.5367   3.4294   8.7579   H         2 RES2   0.0000
    74 C39     10.8708  -0.8202   2.8175   C.3       2 RES2   0.0000
    75 H21     11.5417  -1.4720   2.6020   H         2 RES2   0.0000
    76 H22     10.0520  -1.2655   3.0444   H         2 RES2   0.0000
    77 H23     11.1657  -0.2914   3.5624   H         2 RES2   0.0000
    78 C40      6.2703  11.9406   1.1397   C.3       2 RES2   0.0000
    79 H24      6.1594  11.4908   0.2985   H         2 RES2   0.0000
    80 H25      6.5777  12.8369   0.9847   H         2 RES2   0.0000
    81 H26      5.4296  11.9660   1.6020   H         2 RES2   0.0000
    82 S1       1.7730  -4.4043   2.6341   S.2       3 RES3  -1.0000
    83 C41      2.6702  -3.0659   2.9093   C.1       3 RES3   0.0000
    84 N5       3.2890  -2.1142   3.0604   N.1       3 RES3   0.0000
    85 O5       4.9762  -0.3133   4.3598   O.3       4 RES4   0.0000
    86 H27      4.5816  -0.8415   3.8714   H         4 RES4   0.0000
    87 C42      5.8895  -0.9928   5.1252   C.3       4 RES4   0.0000
    88 H28      6.7453  -0.9777   4.6909   H         4 RES4   0.0000
    89 H29      5.6019  -1.9029   5.2334   H         4 RES4   0.0000
    90 H30      5.9593  -0.5750   5.9861   H         4 RES4   0.0000
@<TRIPOS>BOND
     1     1    10    1
     2     2     7    1
     3     3     9    1
     4     4     8    1
     5     5    12    1
     6     6    11    1
     7     7     8   ar
     8     8     9   ar
     9     9    11   ar
    10    10    11   ar
    11    12     7   ar
    12    10    12   ar
    13    13    14    1
    14    14    32    1
    15    15    13    1
    16    16    13    1
    17    17    13    1
    18    18    37    1
    19    19    13    1
    20    20    43    1
    21    21    13    1
    22    22    23    1
    23    23    17    2
    24    24    23    1
    25    25    21   ar
    26    26    19   ar
    27    27    31   ar
    28    28    26   ar
    29    29    16    1
    30    30    17    1
    31    31    15    1
    32    32    22   ar
    33    33    16    2
    34    34    33    1
    35    35    22   ar
    36    36    35    1
    37    37    35   ar
    38    38    27   ar
    39    39    38    1
    40    40    25   ar
    41    41    30   ar
    42    42    41    1
    43    43    38   ar
    44    44    29   ar
    45    45    44    1
    46    46    28   ar
    47    47    46    1
    48    48    31   ar
    49    49    48    1
    50    50    21   ar
    51    51    50    1
    52    52    28   ar
    53    53    52    1
    54    54    37   ar
    55    55    54    1
    56    56    19   ar
    57    57    56    1
    58    58    40   ar
    59    59    58    1
    60    60    50   ar
    61    61    60    1
    62    62    32   ar
    63    63    62    1
    64    64    43   ar
    65    65    64    1
    66    66    44   ar
    67    67    66    1
    68    68    52   ar
    69    69    68    1
    70    70    41   ar
    71    71    70    1
    72    72    40   ar
    73    73    72    1
    74    74    18    1
    75    75    74    1
    76    76    74    1
    77    77    74    1
    78    78    20    1
    79    79    78    1
    80    80    78    1
    81    81    78    1
    82    25    30   ar
    83    26    29   ar
    84    27    33    1
    85    46    66   ar
    86    48    64   ar
    87    54    62   ar
    88    56    68   ar
    89    58    60   ar
    90    70    72   ar
    91    82    83    1
    92    83    84    3
    93    85    86    1
    94    87    85    1
    95    88    87    1
    96    89    87    1
    97    90    87    1
@<TRIPOS>SUBSTRUCTURE
     1 RES1        1 GROUP             0 ****  ****    0  
     2 RES2       13 GROUP             0 ****  ****    0  
     3 RES3       82 GROUP             0 ****  ****    0  
     4 RES4       85 GROUP             0 ****  ****    0  
@<TRIPOS>CRYSIN
   11.3830   13.0392   14.4065   95.7630   99.7280   90.5730     2     1
