@<TRIPOS>MOLECULE
OPEVUD05
    90    97     4     0     0
SMALL
USER_CHARGES
****
Generated from the CSD

@<TRIPOS>ATOM
     1 I1      -2.3893   2.5037   8.7859   I         1 RES1   0.0000
     2 I2       2.3361   0.7001   5.3858   I         1 RES1   0.0000
     3 I3      -1.1739   5.1710   3.4932   I         1 RES1   0.0000
     4 F1      -2.5497   4.4034   6.2428   F         1 RES1   0.0000
     5 F2       1.0899   3.0030   3.6673   F         1 RES1   0.0000
     6 F3       0.1323   0.8469   7.7236   F         1 RES1   0.0000
     7 C1       0.6656   1.8993   5.6750   C.ar      1 RES1   0.0000
     8 C2      -0.7595   3.7277   4.9184   C.ar      1 RES1   0.0000
     9 C3       0.3369   2.8677   4.7649   C.ar      1 RES1   0.0000
    10 C4      -1.2427   2.6063   7.0219   C.ar      1 RES1   0.0000
    11 C5      -1.5096   3.5718   6.0653   C.ar      1 RES1   0.0000
    12 C6      -0.1540   1.7882   6.8134   C.ar      1 RES1   0.0000
    13 Fe1      5.4174   4.5151   2.9096   Fe        2 RES2   1.0000
    14 O1       6.7001   3.8805   1.6470   O.3       2 RES2   0.0000
    15 O2       6.4437   5.9638   3.5462   O.3       2 RES2   0.0000
    16 N1       4.4173   5.8015   1.6230   N.2       2 RES2   0.0000
    17 N2       6.1175   3.1551   4.2999   N.2       2 RES2   0.0000
    18 O3      10.6586   0.0293   1.6963   O.3       2 RES2   0.0000
    19 N3       3.9781   3.2449   2.0640   N.ar      2 RES2   0.0000
    20 O4       7.2733  11.1590   1.9316   O.3       2 RES2   0.0000
    21 N4       4.0554   4.7790   4.5099   N.ar      2 RES2   0.0000
    22 C7       7.0967   2.3154   4.0872   C.2       2 RES2   0.0000
    23 H1       7.3266   1.7474   4.7998   H         2 RES2   0.0000
    24 C8       3.1134   3.8571   1.1962   C.ar      2 RES2   0.0000
    25 C9       7.8517   2.1701   2.8882   C.ar      2 RES2   0.0000
    26 C10      4.3508   4.0359   5.6299   C.ar      2 RES2   0.0000
    27 C11      3.3062   5.2437   0.9482   C.ar      2 RES2   0.0000
    28 C12      5.4628   3.1742   5.5553   C.ar      2 RES2   0.0000
    29 C13      7.6250   2.9440   1.7329   C.ar      2 RES2   0.0000
    30 C14      4.7907   7.0227   1.3723   C.2       2 RES2   0.0000
    31 H2       4.3210   7.4813   0.6994   H         2 RES2   0.0000
    32 C15      5.8434   7.7317   2.0232   C.ar      2 RES2   0.0000
    33 C16      8.8749   1.1938   2.8967   C.ar      2 RES2   0.0000
    34 H3       9.0289   0.6922   3.6760   H         2 RES2   0.0000
    35 C17      2.0670   3.1523   0.5678   C.ar      2 RES2   0.0000
    36 C18      6.6189   7.1733   3.0714   C.ar      2 RES2   0.0000
    37 C19      3.5970   4.1585   6.8360   C.ar      2 RES2   0.0000
    38 C20      2.4182   5.8997   0.1324   C.ar      2 RES2   0.0000
    39 H4       2.5162   6.8223  -0.0180   H         2 RES2   0.0000
    40 C21      9.6482   0.9671   1.7851   C.ar      2 RES2   0.0000
    41 C22      1.1867   3.8563  -0.2747   C.ar      2 RES2   0.0000
    42 H5       0.4778   3.4050  -0.6954   H         2 RES2   0.0000
    43 C23      7.6026   7.9854   3.6631   C.ar      2 RES2   0.0000
    44 H6       8.1359   7.6380   4.3547   H         2 RES2   0.0000
    45 C24      8.4464   2.6630   0.5960   C.ar      2 RES2   0.0000
    46 H7       8.3120   3.1465  -0.1985   H         2 RES2   0.0000
    47 C25      5.8125   2.4316   6.6711   C.ar      2 RES2   0.0000
    48 H8       6.5519   1.8514   6.6376   H         2 RES2   0.0000
    49 C26      3.0201   5.6046   4.5451   C.ar      2 RES2   0.0000
    50 H9       2.8083   6.1077   3.7807   H         2 RES2   0.0000
    51 C27      3.8559   1.9390   2.2824   C.ar      2 RES2   0.0000
    52 H10      4.4606   1.5142   2.8634   H         2 RES2   0.0000
    53 C28      1.9665   1.7566   0.8411   C.ar      2 RES2   0.0000
    54 H11      1.2865   1.2440   0.4433   H         2 RES2   0.0000
    55 C29      1.3604   5.1987  -0.4833   C.ar      2 RES2   0.0000
    56 H12      0.7649   5.6603  -1.0450   H         2 RES2   0.0000
    57 C30      7.0096   9.8430   2.2359   C.ar      2 RES2   0.0000
    58 C31      6.0668   9.0732   1.6104   C.ar      2 RES2   0.0000
    59 H13      5.5628   9.4340   0.9032   H         2 RES2   0.0000
    60 C32      5.0622   2.5459   7.8574   C.ar      2 RES2   0.0000
    61 H14      5.3099   2.0428   8.6117   H         2 RES2   0.0000
    62 C33      2.8505   1.1808   1.6695   C.ar      2 RES2   0.0000
    63 H15      2.7941   0.2583   1.8405   H         2 RES2   0.0000
    64 C34      9.4099   1.7194   0.6382   C.ar      2 RES2   0.0000
    65 H16      9.9341   1.5654  -0.1266   H         2 RES2   0.0000
    66 C35      2.4989   5.0452   6.8176   C.ar      2 RES2   0.0000
    67 H17      1.9606   5.1447   7.5825   H         2 RES2   0.0000
    68 C36      2.2235   5.7470   5.7088   C.ar      2 RES2   0.0000
    69 H18      1.4942   6.3399   5.7031   H         2 RES2   0.0000
    70 C37      3.9848   3.3714   7.9307   C.ar      2 RES2   0.0000
    71 H19      3.4907   3.4148   8.7287   H         2 RES2   0.0000
    72 C38      7.7980   9.2888   3.2433   C.ar      2 RES2   0.0000
    73 H20      8.4717   9.8079   3.6427   H         2 RES2   0.0000
    74 C39     10.8792  -0.7851   2.7924   C.3       2 RES2   0.0000
    75 H21     11.5961  -1.4079   2.5939   H         2 RES2   0.0000
    76 H22     10.0694  -1.2798   2.9961   H         2 RES2   0.0000
    77 H23     11.1258  -0.2409   3.5562   H         2 RES2   0.0000
    78 C40      6.3170  11.8514   1.1525   C.3       2 RES2   0.0000
    79 H24      6.2341  11.4214   0.2864   H         2 RES2   0.0000
    80 H25      6.6030  12.7701   1.0307   H         2 RES2   0.0000
    81 H26      5.4595  11.8360   1.6044   H         2 RES2   0.0000
    82 S1       1.7244  -4.3605   2.6335   S.2       3 RES3  -1.0000
    83 C41      2.6604  -3.0529   2.9051   C.1       3 RES3   0.0000
    84 N5       3.3224  -2.1301   3.0517   N.1       3 RES3   0.0000
    85 O5       4.9739  -0.3213   4.3648   O.3       4 RES4   0.0000
    86 H27      4.5814  -0.8516   3.8612   H         4 RES4   0.0000
    87 C42      5.9334  -0.9986   5.0861   C.3       4 RES4   0.0000
    88 H28      6.7463  -1.0629   4.5615   H         4 RES4   0.0000
    89 H29      5.6119  -1.8891   5.2959   H         4 RES4   0.0000
    90 H30      6.1170  -0.5189   5.9095   H         4 RES4   0.0000
@<TRIPOS>BOND
     1     1    10    1
     2     2     7    1
     3     3     8    1
     4     4    11    1
     5     5     9    1
     6     6    12    1
     7     7     9   ar
     8     8     9   ar
     9    10    11   ar
    10    11     8   ar
    11    12     7   ar
    12    10    12   ar
    13    13    14    1
    14    14    29    1
    15    15    13    1
    16    16    13    1
    17    17    13    1
    18    18    40    1
    19    19    13    1
    20    20    57    1
    21    21    13    1
    22    22    17    2
    23    23    22    1
    24    24    19   ar
    25    25    22    1
    26    26    21   ar
    27    27    16    1
    28    28    17    1
    29    29    25   ar
    30    30    16    2
    31    31    30    1
    32    32    30    1
    33    33    25   ar
    34    34    33    1
    35    35    24   ar
    36    36    15    1
    37    37    26   ar
    38    38    27   ar
    39    39    38    1
    40    40    33   ar
    41    41    35   ar
    42    42    41    1
    43    43    36   ar
    44    44    43    1
    45    45    29   ar
    46    46    45    1
    47    47    28   ar
    48    48    47    1
    49    49    21   ar
    50    50    49    1
    51    51    19   ar
    52    52    51    1
    53    53    35   ar
    54    54    53    1
    55    55    38   ar
    56    56    55    1
    57    57    58   ar
    58    58    32   ar
    59    59    58    1
    60    60    47   ar
    61    61    60    1
    62    62    51   ar
    63    63    62    1
    64    64    40   ar
    65    65    64    1
    66    66    37   ar
    67    67    66    1
    68    68    49   ar
    69    69    68    1
    70    70    37   ar
    71    71    70    1
    72    72    43   ar
    73    73    72    1
    74    74    18    1
    75    75    74    1
    76    76    74    1
    77    77    74    1
    78    78    20    1
    79    79    78    1
    80    80    78    1
    81    81    78    1
    82    24    27   ar
    83    26    28   ar
    84    32    36   ar
    85    41    55   ar
    86    45    64   ar
    87    53    62   ar
    88    57    72   ar
    89    60    70   ar
    90    66    68   ar
    91    82    83    1
    92    83    84    3
    93    85    86    1
    94    87    85    1
    95    88    87    1
    96    89    87    1
    97    90    87    1
@<TRIPOS>SUBSTRUCTURE
     1 RES1        1 GROUP             0 ****  ****    0  
     2 RES2       13 GROUP             0 ****  ****    0  
     3 RES3       82 GROUP             0 ****  ****    0  
     4 RES4       85 GROUP             0 ****  ****    0  
@<TRIPOS>CRYSIN
   11.3834   12.9372   14.3791   95.7230   99.9270   90.4770     2     1
