@<TRIPOS>MOLECULE
OPEVIR31
    84    92     3     0     0
SMALL
USER_CHARGES
****
Generated from the CSD

@<TRIPOS>ATOM
     1 I1      14.6868  10.4066   8.3769   I         1 RES1   0.0000
     2 I2       9.7401  12.3379   5.4020   I         1 RES1   0.0000
     3 I3      12.7101   7.5295   3.4460   I         1 RES1   0.0000
     4 F1      14.4195   8.3474   5.9940   F         1 RES1   0.0000
     5 F2      12.1343  12.1606   7.5023   F         1 RES1   0.0000
     6 F3      10.5242   9.7341   3.8252   F         1 RES1   0.0000
     7 C1      13.3986   9.2130   5.8839   C.ar      1 RES1   0.0000
     8 C2      12.4923   9.0271   4.8729   C.ar      1 RES1   0.0000
     9 C3      12.2543  11.1243   6.6462   C.ar      1 RES1   0.0000
    10 C4      11.2835  10.9883   5.6801   C.ar      1 RES1   0.0000
    11 C5      13.3018  10.2333   6.7930   C.ar      1 RES1   0.0000
    12 C6      11.4386   9.9112   4.7832   C.ar      1 RES1   0.0000
    13 Fe1      6.4196   8.2196   2.8641   Fe        2 RES2   1.0000
    14 O1       5.2419   6.9890   3.5765   O.3       2 RES2   0.0000
    15 O2       5.2127   8.7241   1.5233   O.3       2 RES2   0.0000
    16 O3       0.8990  12.1475   1.6714   O.3       2 RES2   0.0000
    17 N1       7.2266   6.9522   1.6306   N.2       2 RES2   0.0000
    18 N2       5.7401   9.5180   4.1554   N.2       2 RES2   0.0000
    19 N3       7.7719   9.4342   2.0859   N.ar      2 RES2   0.0000
    20 O4       4.0775   1.8091   2.0600   O.3       2 RES2   0.0000
    21 N4       7.7131   7.8263   4.3226   N.ar      2 RES2   0.0000
    22 C7       4.6812  10.2226   4.0046   C.2       2 RES2   0.0000
    23 H1       4.4174  10.7630   4.7273   H         2 RES2   0.0000
    24 C8       4.9562   5.7879   3.0955   C.ar      2 RES2   0.0000
    25 C9       8.3692   7.4373   0.9580   C.ar      2 RES2   0.0000
    26 C10      6.7648   5.7747   1.3589   C.2       2 RES2   0.0000
    27 H2       7.1786   5.2930   0.6656   H         2 RES2   0.0000
    28 C11      5.6866   5.1626   2.0274   C.ar      2 RES2   0.0000
    29 C12      7.5577   8.6591   5.4056   C.ar      2 RES2   0.0000
    30 C13      4.1816   9.5214   1.6619   C.ar      2 RES2   0.0000
    31 C14      3.8775  10.2566   2.8414   C.ar      2 RES2   0.0000
    32 C15      8.6197   8.8124   1.2135   C.ar      2 RES2   0.0000
    33 C16      6.5122   9.6000   5.3444   C.ar      2 RES2   0.0000
    34 C17      3.3152   9.6980   0.5626   C.ar      2 RES2   0.0000
    35 H3       3.4782   9.2139  -0.2270   H         2 RES2   0.0000
    36 C18      9.6863   9.4757   0.5694   C.ar      2 RES2   0.0000
    37 C19      1.9554  11.2912   1.7557   C.ar      2 RES2   0.0000
    38 C20      7.9482  10.7359   2.3074   C.ar      2 RES2   0.0000
    39 H4       7.3704  11.1727   2.9052   H         2 RES2   0.0000
    40 C21      5.3732   3.8295   1.6660   C.ar      2 RES2   0.0000
    41 H5       5.8490   3.4246   0.9639   H         2 RES2   0.0000
    42 C22     10.5329   8.7370  -0.2650   C.ar      2 RES2   0.0000
    43 H6      11.2540   9.1550  -0.6996   H         2 RES2   0.0000
    44 C23      8.3823   8.5672   6.5497   C.ar      2 RES2   0.0000
    45 C24      8.6619   6.9080   4.3647   C.ar      2 RES2   0.0000
    46 H7       8.7748   6.3351   3.6274   H         2 RES2   0.0000
    47 C25      2.7755  11.1420   2.8672   C.ar      2 RES2   0.0000
    48 H8       2.5942  11.6349   3.6462   H         2 RES2   0.0000
    49 C26      3.9059   5.0376   3.6853   C.ar      2 RES2   0.0000
    50 H9       3.3709   5.4357   4.3476   H         2 RES2   0.0000
    51 C27      9.2232   6.7450   0.1386   C.ar      2 RES2   0.0000
    52 H10      9.0796   5.8316  -0.0287   H         2 RES2   0.0000
    53 C28      2.2531  10.5447   0.6061   C.ar      2 RES2   0.0000
    54 H11      1.7038  10.6327  -0.1518   H         2 RES2   0.0000
    55 C29      7.1643  10.4062   7.5281   C.ar      2 RES2   0.0000
    56 H12      7.0358  11.0133   8.2348   H         2 RES2   0.0000
    57 C30      3.6565   3.7485   3.3088   C.ar      2 RES2   0.0000
    58 H13      2.9663   3.2732   3.7347   H         2 RES2   0.0000
    59 C31      4.4016   3.1151   2.3074   C.ar      2 RES2   0.0000
    60 C32      8.1624   9.4701   7.6083   C.ar      2 RES2   0.0000
    61 H14      8.7038   9.4306   8.3755   H         2 RES2   0.0000
    62 C33      0.7635  13.1057   2.6946   C.3       2 RES2   0.0000
    63 H15     -0.0019  13.6719   2.5076   H         2 RES2   0.0000
    64 H16      1.5654  13.6499   2.7358   H         2 RES2   0.0000
    65 H17      0.6334  12.6560   3.5437   H         2 RES2   0.0000
    66 C34      6.3241  10.4654   6.3894   C.ar      2 RES2   0.0000
    67 H18      5.6328  11.1014   6.3506   H         2 RES2   0.0000
    68 C35      9.3904   7.5789   6.5457   C.ar      2 RES2   0.0000
    69 H19      9.9730   7.4907   7.2782   H         2 RES2   0.0000
    70 C36      9.5080   6.7614   5.4762   C.ar      2 RES2   0.0000
    71 H20     10.1621   6.0865   5.4757   H         2 RES2   0.0000
    72 C37     10.2977   7.3983  -0.4430   C.ar      2 RES2   0.0000
    73 H21     10.8898   6.9031  -0.9807   H         2 RES2   0.0000
    74 C38      9.8236  10.8696   0.8371   C.ar      2 RES2   0.0000
    75 H22     10.5100  11.3651   0.4271   H         2 RES2   0.0000
    76 C39      5.0058   1.0622   1.2610   C.3       2 RES2   0.0000
    77 H23      5.0513   1.4481   0.3721   H         2 RES2   0.0000
    78 H24      4.7088   0.1404   1.1979   H         2 RES2   0.0000
    79 H25      5.8833   1.0916   1.6720   H         2 RES2   0.0000
    80 C40      8.9566  11.4777   1.6877   C.ar      2 RES2   0.0000
    81 H26      9.0348  12.3983   1.8595   H         2 RES2   0.0000
    82 S1      16.6213  10.0434  10.9375   S.2       3 RES3  -1.0000
    83 N5      18.5430  12.0128  10.4905   N.1       3 RES3   0.0000
    84 C41     17.7138  11.1778  10.6698   C.1       3 RES3   0.0000
@<TRIPOS>BOND
     1     1    11    1
     2     2    10    1
     3     3     8    1
     4     4     7    1
     5     5     9    1
     6     6    12    1
     7     7     8   ar
     8     8    12   ar
     9     9    10   ar
    10    10    12   ar
    11    11     7   ar
    12     9    11   ar
    13    13    14    1
    14    14    24    1
    15    15    13    1
    16    16    37    1
    17    17    13    1
    18    18    13    1
    19    19    13    1
    20    20    59    1
    21    21    13    1
    22    22    18    2
    23    23    22    1
    24    24    28   ar
    25    25    17    1
    26    26    17    2
    27    27    26    1
    28    28    26    1
    29    29    21   ar
    30    30    15    1
    31    31    22    1
    32    32    19   ar
    33    33    18    1
    34    34    30   ar
    35    35    34    1
    36    36    32   ar
    37    37    47   ar
    38    38    19   ar
    39    39    38    1
    40    40    28   ar
    41    41    40    1
    42    42    36   ar
    43    43    42    1
    44    44    29   ar
    45    45    21   ar
    46    46    45    1
    47    47    31   ar
    48    48    47    1
    49    49    24   ar
    50    50    49    1
    51    51    25   ar
    52    52    51    1
    53    53    34   ar
    54    54    53    1
    55    55    56    1
    56    57    49   ar
    57    58    57    1
    58    59    40   ar
    59    60    44   ar
    60    61    60    1
    61    62    16    1
    62    63    62    1
    63    64    62    1
    64    65    62    1
    65    66    33   ar
    66    67    66    1
    67    68    44   ar
    68    69    68    1
    69    70    45   ar
    70    71    70    1
    71    72    42   ar
    72    73    72    1
    73    74    36   ar
    74    75    74    1
    75    76    20    1
    76    77    76    1
    77    78    76    1
    78    79    76    1
    79    80    38   ar
    80    81    80    1
    81    25    32   ar
    82    29    33   ar
    83    30    31   ar
    84    37    53   ar
    85    51    72   ar
    86    55    60   ar
    87    55    66   ar
    88    57    59   ar
    89    68    70   ar
    90    74    80   ar
    91    82    84    1
    92    83    84    3
@<TRIPOS>SUBSTRUCTURE
     1 RES1        1 GROUP             0 ****  ****    0  
     2 RES2       13 GROUP             0 ****  ****    0  
     3 RES3       82 GROUP             0 ****  ****    0  
@<TRIPOS>CRYSIN
   11.7352   12.3945   14.0177   83.2290   77.4820   89.3100     2     1
