@<TRIPOS>MOLECULE
OPEVUD24
    90    97     4     0     0
SMALL
USER_CHARGES
****
Generated from the CSD

@<TRIPOS>ATOM
     1 I1      11.1946   8.9873   5.3023   I         1 RES1   0.0000
     2 I2       6.4672  10.7903   8.7058   I         1 RES1   0.0000
     3 I3       9.9763   6.3158  10.5952   I         1 RES1   0.0000
     4 F1       7.7095   8.4825  10.4247   F         1 RES1   0.0000
     5 F2      11.3548   7.0924   7.8425   F         1 RES1   0.0000
     6 F3       8.6762  10.6450   6.3681   F         1 RES1   0.0000
     7 C1       8.1424   9.5912   8.4133   C.ar      1 RES1   0.0000
     8 C2      10.0491   8.8751   7.0630   C.ar      1 RES1   0.0000
     9 C3       9.5545   7.7621   9.1660   C.ar      1 RES1   0.0000
    10 C4       8.4756   8.6204   9.3196   C.ar      1 RES1   0.0000
    11 C5       8.9572   9.6958   7.2787   C.ar      1 RES1   0.0000
    12 C6      10.3074   7.9140   8.0257   C.ar      1 RES1   0.0000
    13 Fe1      3.3763   6.9699  11.1855   Fe        2 RES2   1.0000
    14 O1       2.0904   7.6125  12.4445   O.3       2 RES2   0.0000
    15 O2       2.3543   5.5179  10.5501   O.3       2 RES2   0.0000
    16 N1       4.3820   5.6797  12.4741   N.2       2 RES2   0.0000
    17 O3      -1.8681  11.4576  12.3966   O.3       2 RES2   0.0000
    18 N2       2.6768   8.3425   9.7890   N.2       2 RES2   0.0000
    19 N3       4.8166   8.2387  12.0386   N.ar      2 RES2   0.0000
    20 O4       1.5228   0.3149  12.1654   O.3       2 RES2   0.0000
    21 N4       4.7408   6.7053   9.5776   N.ar      2 RES2   0.0000
    22 C7       4.4392   7.4521   8.4584   C.ar      2 RES2   0.0000
    23 C8       5.5021   6.2349  13.1408   C.ar      2 RES2   0.0000
    24 C9       3.3382   8.3176   8.5303   C.ar      2 RES2   0.0000
    25 C10      5.6927   7.6284  12.8913   C.ar      2 RES2   0.0000
    26 C11      0.9473   9.3170  11.2069   C.ar      2 RES2   0.0000
    27 C12      1.6933   9.1763  10.0032   C.2       2 RES2   0.0000
    28 H1       1.4541   9.7402   9.2898   H         2 RES2   0.0000
    29 C13      2.1782   4.2978  11.0251   C.ar      2 RES2   0.0000
    30 C14      2.9593   3.7523  12.0639   C.ar      2 RES2   0.0000
    31 C15      4.0158   4.4573  12.7222   C.2       2 RES2   0.0000
    32 H2       4.4866   3.9954  13.3915   H         2 RES2   0.0000
    33 C16      1.1665   8.5524  12.3613   C.ar      2 RES2   0.0000
    34 C17      6.7398   8.3268  13.5256   C.ar      2 RES2   0.0000
    35 C18     -0.0805  10.3047  11.1872   C.ar      2 RES2   0.0000
    36 H3      -0.2344  10.8033  10.4060   H         2 RES2   0.0000
    37 C19     -0.8506  10.5314  12.3106   C.ar      2 RES2   0.0000
    38 C20      6.3817   5.5726  13.9569   C.ar      2 RES2   0.0000
    39 H4       6.2836   4.6493  14.1048   H         2 RES2   0.0000
    40 C21      4.9445   9.5430  11.8130   C.ar      2 RES2   0.0000
    41 H5       4.3436   9.9677  11.2274   H         2 RES2   0.0000
    42 C22      5.1983   7.3338   7.2505   C.ar      2 RES2   0.0000
    43 C23      1.1901   3.4847  10.4359   C.ar      2 RES2   0.0000
    44 H6       0.6538   3.8334   9.7472   H         2 RES2   0.0000
    45 C24      2.7360   2.4014  12.4769   C.ar      2 RES2   0.0000
    46 H7       3.2478   2.0362  13.1759   H         2 RES2   0.0000
    47 C25      7.6164   7.6210  14.3741   C.ar      2 RES2   0.0000
    48 H8       8.3224   8.0719  14.8005   H         2 RES2   0.0000
    49 C26      2.9878   9.0612   7.4168   C.ar      2 RES2   0.0000
    50 H9       2.2481   9.6395   7.4513   H         2 RES2   0.0000
    51 C27      5.7770   5.8860   9.5353   C.ar      2 RES2   0.0000
    52 H10      5.9935   5.3883  10.3020   H         2 RES2   0.0000
    53 C28      6.8463   9.7210  13.2564   C.ar      2 RES2   0.0000
    54 H11      7.5292  10.2317  13.6511   H         2 RES2   0.0000
    55 C29      1.7893   1.6413  11.8638   C.ar      2 RES2   0.0000
    56 C30      7.4380   6.2841  14.5771   C.ar      2 RES2   0.0000
    57 H12      8.0311   5.8226  15.1421   H         2 RES2   0.0000
    58 C31      5.9530  10.3033  12.4248   C.ar      2 RES2   0.0000
    59 H13      6.0079  11.2257  12.2545   H         2 RES2   0.0000
    60 C32     -0.6187   9.7773  13.4509   C.ar      2 RES2   0.0000
    61 H14     -1.1454   9.9311  14.2143   H         2 RES2   0.0000
    62 C33      0.3411   8.8308  13.4988   C.ar      2 RES2   0.0000
    63 H15      0.4709   8.3446  14.2921   H         2 RES2   0.0000
    64 C34      0.9965   2.1969  10.8518   C.ar      2 RES2   0.0000
    65 H16      0.3227   1.6769  10.4535   H         2 RES2   0.0000
    66 C35      3.7400   8.9506   6.2342   C.ar      2 RES2   0.0000
    67 H17      3.4908   9.4574   5.4829   H         2 RES2   0.0000
    68 C36      4.8176   8.1291   6.1511   C.ar      2 RES2   0.0000
    69 H18      5.3139   8.0911   5.3534   H         2 RES2   0.0000
    70 C37      6.2878   6.4511   7.2702   C.ar      2 RES2   0.0000
    71 H19      6.8252   6.3586   6.5046   H         2 RES2   0.0000
    72 C38      6.5707   5.7340   8.3781   C.ar      2 RES2   0.0000
    73 H20      7.2954   5.1350   8.3788   H         2 RES2   0.0000
    74 C39      2.4836  -0.3731  12.9420   C.3       2 RES2   0.0000
    75 H21      3.3436  -0.3421  12.4953   H         2 RES2   0.0000
    76 H22      2.2091  -1.2978  13.0509   H         2 RES2   0.0000
    77 H23      2.5560   0.0466  13.8135   H         2 RES2   0.0000
    78 C40     -2.0820  12.2805  11.2929   C.3       2 RES2   0.0000
    79 H24     -2.3967  11.7463  10.5468   H         2 RES2   0.0000
    80 H25     -1.2514  12.7185  11.0489   H         2 RES2   0.0000
    81 H26     -2.7478  12.9512  11.5132   H         2 RES2   0.0000
    82 S1       7.0642  15.8552  11.4584   S.2       3 RES3  -1.0000
    83 C41      6.1448  14.5397  11.1886   C.1       3 RES3   0.0000
    84 N5       5.4765  13.6176  11.0378   N.1       3 RES3   0.0000
    85 O5       3.8174  11.8118   9.7298   O.3       4 RES4   0.0000
    86 H27      4.2879  12.3508  10.1503   H         4 RES4   0.0000
    87 C42      2.8702  12.4970   9.0053   C.3       4 RES4   0.0000
    88 H28      2.7681  12.0839   8.1337   H         4 RES4   0.0000
    89 H29      3.1507  13.4186   8.8961   H         4 RES4   0.0000
    90 H30      2.0225  12.4705   9.4767   H         4 RES4   0.0000
@<TRIPOS>BOND
     1     1     8    1
     2     2     7    1
     3     3     9    1
     4     4    10    1
     5     5    12    1
     6     6    11    1
     7     7    10   ar
     8     8    11   ar
     9     9    10   ar
    10    11     7   ar
    11    12     8   ar
    12     9    12   ar
    13    13    14    1
    14    14    33    1
    15    15    13    1
    16    16    13    1
    17    17    37    1
    18    18    13    1
    19    19    13    1
    20    20    55    1
    21    21    13    1
    22    22    21   ar
    23    23    16    1
    24    24    18    1
    25    25    19   ar
    26    26    27    1
    27    27    18    2
    28    28    27    1
    29    29    15    1
    30    30    29   ar
    31    31    16    2
    32    32    31    1
    33    33    26   ar
    34    34    25   ar
    35    35    26   ar
    36    36    35    1
    37    37    35   ar
    38    38    23   ar
    39    39    38    1
    40    40    19   ar
    41    41    40    1
    42    42    22   ar
    43    43    29   ar
    44    44    43    1
    45    45    30   ar
    46    46    45    1
    47    47    34   ar
    48    48    47    1
    49    49    24   ar
    50    50    49    1
    51    51    21   ar
    52    52    51    1
    53    53    34   ar
    54    54    53    1
    55    55    45   ar
    56    56    38   ar
    57    57    56    1
    58    58    40   ar
    59    59    58    1
    60    60    37   ar
    61    61    60    1
    62    62    33   ar
    63    63    62    1
    64    64    43   ar
    65    65    64    1
    66    66    49   ar
    67    67    66    1
    68    68    42   ar
    69    69    68    1
    70    70    42   ar
    71    71    70    1
    72    72    51   ar
    73    73    72    1
    74    74    20    1
    75    75    74    1
    76    76    74    1
    77    77    74    1
    78    78    17    1
    79    79    78    1
    80    80    78    1
    81    81    78    1
    82    22    24   ar
    83    23    25   ar
    84    30    31    1
    85    47    56   ar
    86    53    58   ar
    87    55    64   ar
    88    60    62   ar
    89    66    68   ar
    90    70    72   ar
    91    82    83    1
    92    83    84    3
    93    85    86    1
    94    87    85    1
    95    88    87    1
    96    89    87    1
    97    90    87    1
@<TRIPOS>SUBSTRUCTURE
     1 RES1        1 GROUP             0 ****  ****    0  
     2 RES2       13 GROUP             0 ****  ****    0  
     3 RES3       82 GROUP             0 ****  ****    0  
     4 RES4       85 GROUP             0 ****  ****    0  
@<TRIPOS>CRYSIN
   11.3906   12.9519   14.3860   95.7460   99.9280   90.4860     2     1
