@<TRIPOS>MOLECULE
OPEVUD08
    90    97     4     0     0
SMALL
USER_CHARGES
****
Generated from the CSD

@<TRIPOS>ATOM
     1 I1      11.1713   8.9932   5.2908   I         1 RES1   0.0000
     2 I2       6.4626  10.8065   8.7068   I         1 RES1   0.0000
     3 I3       9.9787   6.3392  10.5939   I         1 RES1   0.0000
     4 F1      11.3402   7.0972   7.8372   F         1 RES1   0.0000
     5 F2       7.7174   8.5100  10.4280   F         1 RES1   0.0000
     6 F3       8.6539  10.6497   6.3642   F         1 RES1   0.0000
     7 C1       8.1338   9.6051   8.4152   C.ar      1 RES1   0.0000
     8 C2       9.5538   7.7737   9.1636   C.ar      1 RES1   0.0000
     9 C3       8.4742   8.6456   9.3229   C.ar      1 RES1   0.0000
    10 C4      10.0339   8.8843   7.0521   C.ar      1 RES1   0.0000
    11 C5      10.2946   7.9200   8.0191   C.ar      1 RES1   0.0000
    12 C6       8.9400   9.7126   7.2692   C.ar      1 RES1   0.0000
    13 Fe1      3.3716   6.9893  11.1913   Fe        2 RES2   1.0000
    14 O1       2.0810   7.6449  12.4395   O.3       2 RES2   0.0000
    15 O2       2.3560   5.5220  10.5690   O.3       2 RES2   0.0000
    16 N1       4.3940   5.6934  12.4818   N.2       2 RES2   0.0000
    17 N2       4.8292   8.2560  12.0462   N.ar      2 RES2   0.0000
    18 N3       2.6740   8.3701   9.7867   N.2       2 RES2   0.0000
    19 O3       1.5612   0.3169  12.1703   O.3       2 RES2   0.0000
    20 O4      -1.8527  11.5125  12.3831   O.3       2 RES2   0.0000
    21 N4       4.7338   6.7352   9.5696   N.ar      2 RES2   0.0000
    22 C7       4.4364   7.4800   8.4532   C.ar      2 RES2   0.0000
    23 C8       0.9492   9.3612  11.1991   C.ar      2 RES2   0.0000
    24 C9       1.6985   9.2167  10.0023   C.2       2 RES2   0.0000
    25 H1       1.4706   9.7870   9.2902   H         2 RES2   0.0000
    26 C10      3.3302   8.3435   8.5307   C.ar      2 RES2   0.0000
    27 C11      5.7002   7.6407  12.9047   C.ar      2 RES2   0.0000
    28 C12      5.5034   6.2507  13.1556   C.ar      2 RES2   0.0000
    29 C13      1.1712   8.5899  12.3577   C.ar      2 RES2   0.0000
    30 C14      4.0253   4.4613  12.7256   C.2       2 RES2   0.0000
    31 H2       4.4949   4.0006  13.3977   H         2 RES2   0.0000
    32 C15     -0.0775  10.3517  11.1920   C.ar      2 RES2   0.0000
    33 H3      -0.2292  10.8559  10.4135   H         2 RES2   0.0000
    34 C16      2.9802   3.7567  12.0688   C.ar      2 RES2   0.0000
    35 C17      2.1941   4.3020  11.0342   C.ar      2 RES2   0.0000
    36 C18      6.7492   8.3484  13.5319   C.ar      2 RES2   0.0000
    37 C19     -0.8452  10.5793  12.3014   C.ar      2 RES2   0.0000
    38 C20      5.1894   7.3651   7.2466   C.ar      2 RES2   0.0000
    39 C21      0.3511   8.8683  13.4910   C.ar      2 RES2   0.0000
    40 H4       0.4780   8.3754  14.2822   H         2 RES2   0.0000
    41 C22      4.9558   9.5579  11.8306   C.ar      2 RES2   0.0000
    42 H5       4.3489   9.9845  11.2530   H         2 RES2   0.0000
    43 C23      6.3897   5.5961  13.9675   C.ar      2 RES2   0.0000
    44 H6       6.2907   4.6731  14.1164   H         2 RES2   0.0000
    45 C24      1.2099   3.4878  10.4449   C.ar      2 RES2   0.0000
    46 H7       0.6715   3.8358   9.7573   H         2 RES2   0.0000
    47 C25      2.9704   9.0818   7.4144   C.ar      2 RES2   0.0000
    48 H8       2.2285   9.6582   7.4505   H         2 RES2   0.0000
    49 C26      7.6259   7.6319  14.3763   C.ar      2 RES2   0.0000
    50 H9       8.3358   8.0803  14.7988   H         2 RES2   0.0000
    51 C27      5.7752   5.9133   9.5287   C.ar      2 RES2   0.0000
    52 H10      5.9940   5.4151  10.2959   H         2 RES2   0.0000
    53 C28      2.7713   2.4080  12.4846   C.ar      2 RES2   0.0000
    54 H11      3.2854   2.0486  13.1851   H         2 RES2   0.0000
    55 C29      6.8518   9.7372  13.2669   C.ar      2 RES2   0.0000
    56 H12      7.5341  10.2451  13.6684   H         2 RES2   0.0000
    57 C30      1.8235   1.6344  11.8672   C.ar      2 RES2   0.0000
    58 C31      5.9689  10.3246  12.4395   C.ar      2 RES2   0.0000
    59 H13      6.0278  11.2469  12.2665   H         2 RES2   0.0000
    60 C32      7.4508   6.2918  14.5849   C.ar      2 RES2   0.0000
    61 H14      8.0457   5.8289  15.1466   H         2 RES2   0.0000
    62 C33      3.7190   8.9676   6.2261   C.ar      2 RES2   0.0000
    63 H15      3.4655   9.4691   5.4722   H         2 RES2   0.0000
    64 C34      1.0219   2.1870  10.8622   C.ar      2 RES2   0.0000
    65 H16      0.3481   1.6653  10.4659   H         2 RES2   0.0000
    66 C35      6.2748   6.4769   7.2565   C.ar      2 RES2   0.0000
    67 H17      6.8038   6.3761   6.4860   H         2 RES2   0.0000
    68 C36      4.7961   8.1494   6.1500   C.ar      2 RES2   0.0000
    69 H18      5.2882   8.1070   5.3498   H         2 RES2   0.0000
    70 C37      6.5627   5.7665   8.3672   C.ar      2 RES2   0.0000
    71 H19      7.2910   5.1714   8.3671   H         2 RES2   0.0000
    72 C38     -0.6131   9.8335  13.4530   C.ar      2 RES2   0.0000
    73 H20     -1.1316   9.9973  14.2192   H         2 RES2   0.0000
    74 C39      2.5204  -0.3748  12.9512   C.3       2 RES2   0.0000
    75 H21      3.3765  -0.3639  12.4961   H         2 RES2   0.0000
    76 H22      2.2331  -1.2925  13.0786   H         2 RES2   0.0000
    77 H23      2.6076   0.0591  13.8147   H         2 RES2   0.0000
    78 C40     -2.0603  12.3225  11.2893   C.3       2 RES2   0.0000
    79 H24     -2.3265  11.7802  10.5308   H         2 RES2   0.0000
    80 H25     -1.2395  12.7948  11.0767   H         2 RES2   0.0000
    81 H26     -2.7592  12.9643  11.4898   H         2 RES2   0.0000
    82 S1       7.0445  15.9085  11.4620   S.2       3 RES3  -1.0000
    83 C41      6.1379  14.5844  11.1977   C.1       3 RES3   0.0000
    84 N5       5.4948  13.6534  11.0440   N.1       3 RES3   0.0000
    85 O5       3.8252  11.8413   9.7331   O.3       4 RES4   0.0000
    86 H27      4.2037  12.3668  10.2519   H         4 RES4   0.0000
    87 C42      2.8918  12.5254   8.9874   C.3       4 RES4   0.0000
    88 H28      2.8737  12.1696   8.0850   H         4 RES4   0.0000
    89 H29      3.1266  13.4664   8.9588   H         4 RES4   0.0000
    90 H30      2.0162  12.4233   9.3925   H         4 RES4   0.0000
@<TRIPOS>BOND
     1     1    10    1
     2     2     7    1
     3     3     8    1
     4     4    11    1
     5     5     9    1
     6     6    12    1
     7     7     9   ar
     8     8     9   ar
     9    10    11   ar
    10    11     8   ar
    11    12     7   ar
    12    10    12   ar
    13    13    14    1
    14    14    29    1
    15    15    13    1
    16    16    13    1
    17    17    13    1
    18    18    13    1
    19    19    57    1
    20    20    37    1
    21    21    13    1
    22    22    21   ar
    23    23    24    1
    24    24    18    2
    25    25    24    1
    26    26    18    1
    27    27    17   ar
    28    28    16    1
    29    29    23   ar
    30    30    16    2
    31    31    30    1
    32    32    23   ar
    33    33    32    1
    34    34    30    1
    35    35    15    1
    36    36    27   ar
    37    37    32   ar
    38    38    22   ar
    39    39    29   ar
    40    40    39    1
    41    41    17   ar
    42    42    41    1
    43    43    28   ar
    44    44    43    1
    45    45    35   ar
    46    46    45    1
    47    47    26   ar
    48    48    47    1
    49    49    36   ar
    50    50    49    1
    51    51    21   ar
    52    52    51    1
    53    53    34   ar
    54    54    53    1
    55    55    36   ar
    56    56    55    1
    57    57    53   ar
    58    58    41   ar
    59    59    58    1
    60    60    43   ar
    61    61    60    1
    62    62    47   ar
    63    63    62    1
    64    64    45   ar
    65    65    64    1
    66    66    38   ar
    67    67    66    1
    68    68    38   ar
    69    69    68    1
    70    70    51   ar
    71    71    70    1
    72    72    37   ar
    73    73    72    1
    74    74    19    1
    75    75    74    1
    76    76    74    1
    77    77    74    1
    78    78    20    1
    79    79    78    1
    80    80    78    1
    81    81    78    1
    82    22    26   ar
    83    27    28   ar
    84    34    35   ar
    85    39    72   ar
    86    49    60   ar
    87    55    58   ar
    88    57    64   ar
    89    62    68   ar
    90    66    70   ar
    91    82    83    1
    92    83    84    3
    93    85    86    1
    94    87    85    1
    95    88    87    1
    96    89    87    1
    97    90    87    1
@<TRIPOS>SUBSTRUCTURE
     1 RES1        1 GROUP             0 ****  ****    0  
     2 RES2       13 GROUP             0 ****  ****    0  
     3 RES3       82 GROUP             0 ****  ****    0  
     4 RES4       85 GROUP             0 ****  ****    0  
@<TRIPOS>CRYSIN
   11.3684   12.9901   14.3817   95.7560   99.8030   90.5370     2     1
