@<TRIPOS>MOLECULE
OPEVIR19
    84    92     3     0     0
SMALL
USER_CHARGES
****
Generated from the CSD

@<TRIPOS>ATOM
     1 I1       0.0669   3.8572   5.1733   I         1 RES1   0.0000
     2 I2       4.8957   1.7366   8.2266   I         1 RES1   0.0000
     3 I3       2.0303   6.5958  10.1810   I         1 RES1   0.0000
     4 F1       2.5361   2.0181   6.0705   F         1 RES1   0.0000
     5 F2       0.3429   5.8618   7.6073   F         1 RES1   0.0000
     6 F3       4.1653   4.3238   9.8101   F         1 RES1   0.0000
     7 C1       1.4268   3.9541   6.7803   C.ar      1 RES1   0.0000
     8 C2       1.3433   4.9613   7.7231   C.ar      1 RES1   0.0000
     9 C3       2.4497   3.0438   6.9424   C.ar      1 RES1   0.0000
    10 C4       2.2408   5.1096   8.7543   C.ar      1 RES1   0.0000
    11 C5       3.3982   3.1498   7.9506   C.ar      1 RES1   0.0000
    12 C6       3.2682   4.1835   8.8143   C.ar      1 RES1   0.0000
    13 Fe1      8.3785   5.9280  10.7980   Fe        2 RES2   1.0000
    14 O1       9.6371   5.2357  12.0539   O.3       2 RES2   0.0000
    15 O2       9.4949   7.3275  10.1902   O.3       2 RES2   0.0000
    16 N1       7.4002   7.2724  12.0389   N.2       2 RES2   0.0000
    17 N2       8.9916   4.4784   9.4341   N.2       2 RES2   0.0000
    18 O3      13.8131   1.6608  11.8455   O.3       2 RES2   0.0000
    19 N3       7.0401   6.2341   9.1767   N.ar      2 RES2   0.0000
    20 N4       6.8641   4.7231  11.6520   N.ar      2 RES2   0.0000
    21 O4      10.3212  12.5701  11.5798   O.3       2 RES2   0.0000
    22 C7       6.2524   6.7663  12.7092   C.ar      2 RES2   0.0000
    23 C8      10.0446   3.7392   9.5881   C.2       2 RES2   0.0000
    24 H1      10.2868   3.2067   8.8657   H         2 RES2   0.0000
    25 C9       7.2010   5.3634   8.1386   C.ar      2 RES2   0.0000
    26 C10      6.0035   5.3889  12.4885   C.ar      2 RES2   0.0000
    27 C11     10.6356   4.3934  11.9163   C.ar      2 RES2   0.0000
    28 C12      8.8553   9.1649  11.5893   C.ar      2 RES2   0.0000
    29 C13     10.8710   3.6558  10.7406   C.ar      2 RES2   0.0000
    30 C14      9.6734   8.5547  10.6085   C.ar      2 RES2   0.0000
    31 C15      7.7745   8.5017  12.2474   C.2       2 RES2   0.0000
    32 H2       7.2983   8.9900  12.8797   H         2 RES2   0.0000
    33 C16      8.2373   4.3985   8.2367   C.ar      2 RES2   0.0000
    34 C17      4.9213   4.7344  13.1111   C.ar      2 RES2   0.0000
    35 C18     11.9441   2.7222  10.6943   C.ar      2 RES2   0.0000
    36 H3      12.0946   2.2250   9.9227   H         2 RES2   0.0000
    37 C19     12.7582   2.5553  11.7882   C.ar      2 RES2   0.0000
    38 C20     11.5024   4.1847  13.0116   C.ar      2 RES2   0.0000
    39 H4      11.3698   4.6644  13.7972   H         2 RES2   0.0000
    40 C21      5.3779   7.4708  13.5061   C.ar      2 RES2   0.0000
    41 H5       5.5144   8.3784  13.6544   H         2 RES2   0.0000
    42 C22      9.0666  10.5141  11.9395   C.ar      2 RES2   0.0000
    43 H6       8.5315  10.9085  12.5897   H         2 RES2   0.0000
    44 C23      6.6771   3.4254  11.4477   C.ar      2 RES2   0.0000
    45 H7       7.2554   2.9739  10.8755   H         2 RES2   0.0000
    46 C24      6.0986   7.1554   9.0867   C.ar      2 RES2   0.0000
    47 H8       5.9815   7.7448   9.7968   H         2 RES2   0.0000
    48 C25     10.0559  11.2594  11.3291   C.ar      2 RES2   0.0000
    49 C26      4.7797   3.3581  12.8672   C.ar      2 RES2   0.0000
    50 H9       4.0835   2.8898  13.2668   H         2 RES2   0.0000
    51 C27      8.4009   3.5007   7.2176   C.ar      2 RES2   0.0000
    52 H10      9.0618   2.8501   7.2806   H         2 RES2   0.0000
    53 C28      4.0532   5.4960  13.9271   C.ar      2 RES2   0.0000
    54 H11      3.3284   5.0892  14.3442   H         2 RES2   0.0000
    55 C29      4.2796   6.8188  14.0960   C.ar      2 RES2   0.0000
    56 H12      3.6911   7.3138  14.6201   H         2 RES2   0.0000
    57 C30     12.5367   3.2858  12.9353   C.ar      2 RES2   0.0000
    58 H13     13.0962   3.1682  13.6695   H         2 RES2   0.0000
    59 C31      6.3784   5.4203   6.9765   C.ar      2 RES2   0.0000
    60 C32     10.7042   9.3249  10.0581   C.ar      2 RES2   0.0000
    61 H14     11.2840   8.9345   9.4446   H         2 RES2   0.0000
    62 C33      5.4053   6.4271   6.9302   C.ar      2 RES2   0.0000
    63 H15      4.8540   6.5050   6.1860   H         2 RES2   0.0000
    64 C34      5.6398   2.7113  12.0621   C.ar      2 RES2   0.0000
    65 H16      5.5469   1.7973  11.9141   H         2 RES2   0.0000
    66 C35      5.2675   7.2790   7.9615   C.ar      2 RES2   0.0000
    67 H17      4.6225   7.9489   7.9284   H         2 RES2   0.0000
    68 C36      7.5854   3.5495   6.0842   C.ar      2 RES2   0.0000
    69 H18      7.7166   2.9321   5.4009   H         2 RES2   0.0000
    70 C37     10.8794  10.6295  10.3973   C.ar      2 RES2   0.0000
    71 H19     11.5661  11.1135   9.9981   H         2 RES2   0.0000
    72 C38      6.6177   4.4697   5.9629   C.ar      2 RES2   0.0000
    73 H20      6.0935   4.4812   5.1955   H         2 RES2   0.0000
    74 C39     13.8884   0.6652  10.8292   C.3       2 RES2   0.0000
    75 H21     13.9923   1.0892   9.9739   H         2 RES2   0.0000
    76 H22     13.0832   0.1434  10.8321   H         2 RES2   0.0000
    77 H23     14.6414   0.0938  10.9965   H         2 RES2   0.0000
    78 C40      9.3760  13.2797  12.3332   C.3       2 RES2   0.0000
    79 H24      8.5335  13.2786  11.8726   H         2 RES2   0.0000
    80 H25      9.6744  14.1848  12.4512   H         2 RES2   0.0000
    81 H26      9.2720  12.8628  13.1914   H         2 RES2   0.0000
    82 S1      -1.9073   4.1829   2.6527   S.2       3 RES3  -1.0000
    83 N5      -3.4564   1.8840   3.0925   N.1       3 RES3   0.0000
    84 C41     -2.8123   2.8511   2.9154   C.1       3 RES3   0.0000
@<TRIPOS>BOND
     1     1     7    1
     2     2    11    1
     3     3    10    1
     4     4     9    1
     5     5     8    1
     6     6    12    1
     7     7     8   ar
     8     8    10   ar
     9     9     7   ar
    10    10    12   ar
    11    11     9   ar
    12    12    11   ar
    13    13    14    1
    14    14    27    1
    15    15    13    1
    16    16    13    1
    17    17    13    1
    18    18    37    1
    19    19    13    1
    20    20    13    1
    21    21    48    1
    22    22    16    1
    23    23    17    2
    24    24    23    1
    25    25    19   ar
    26    26    20   ar
    27    27    29   ar
    28    28    30   ar
    29    29    23    1
    30    30    15    1
    31    31    16    2
    32    32    31    1
    33    33    17    1
    34    34    26   ar
    35    35    29   ar
    36    36    35    1
    37    37    35   ar
    38    38    27   ar
    39    39    38    1
    40    40    22   ar
    41    41    40    1
    42    42    28   ar
    43    43    42    1
    44    44    20   ar
    45    45    44    1
    46    46    19   ar
    47    47    46    1
    48    48    42   ar
    49    49    34   ar
    50    50    49    1
    51    51    33   ar
    52    52    51    1
    53    53    34   ar
    54    54    53    1
    55    55    40   ar
    56    56    55    1
    57    57    37   ar
    58    58    57    1
    59    59    25   ar
    60    60    30   ar
    61    61    60    1
    62    62    59   ar
    63    63    62    1
    64    64    44   ar
    65    65    64    1
    66    66    46   ar
    67    67    66    1
    68    68    51   ar
    69    69    68    1
    70    70    48   ar
    71    71    70    1
    72    72    59   ar
    73    73    72    1
    74    74    18    1
    75    75    74    1
    76    76    74    1
    77    77    74    1
    78    78    21    1
    79    79    78    1
    80    80    78    1
    81    81    78    1
    82    22    26   ar
    83    25    33   ar
    84    28    31    1
    85    38    57   ar
    86    49    64   ar
    87    53    55   ar
    88    60    70   ar
    89    62    66   ar
    90    68    72   ar
    91    82    84    1
    92    83    84    3
@<TRIPOS>SUBSTRUCTURE
     1 RES1        1 GROUP             0 ****  ****    0  
     2 RES2       13 GROUP             0 ****  ****    0  
     3 RES3       82 GROUP             0 ****  ****    0  
@<TRIPOS>CRYSIN
   11.6613   12.7484   14.0028   83.3950   78.4150   89.8860     2     1
