@<TRIPOS>MOLECULE
OPEVIR16
    84    92     3     0     0
SMALL
USER_CHARGES
****
Generated from the CSD

@<TRIPOS>ATOM
     1 I1      14.3756  10.4769   8.4790   I         1 RES1   0.0000
     2 I2       9.5749  12.6506   5.4230   I         1 RES1   0.0000
     3 I3      12.4199   7.7934   3.4380   I         1 RES1   0.0000
     4 F1      11.9223  12.3356   7.5890   F         1 RES1   0.0000
     5 F2      14.0995   8.4897   6.0242   F         1 RES1   0.0000
     6 F3      10.3011  10.0759   3.8232   F         1 RES1   0.0000
     7 C1      13.0257  10.4036   6.8626   C.ar      1 RES1   0.0000
     8 C2      13.1060   9.3966   5.9150   C.ar      1 RES1   0.0000
     9 C3      12.2171   9.2727   4.8746   C.ar      1 RES1   0.0000
    10 C4      11.0647  11.2266   5.6924   C.ar      1 RES1   0.0000
    11 C5      12.0063  11.3237   6.7001   C.ar      1 RES1   0.0000
    12 C6      11.1951  10.2038   4.8199   C.ar      1 RES1   0.0000
    13 Fe1      6.0742   8.4535   2.8260   Fe        2 RES2   1.0000
    14 O1       4.8145   9.1677   1.5771   O.3       2 RES2   0.0000
    15 O2       4.9659   7.0384   3.4177   O.3       2 RES2   0.0000
    16 N1       7.0794   7.0970   1.5866   N.2       2 RES2   0.0000
    17 N2       5.4599   9.9156   4.2028   N.2       2 RES2   0.0000
    18 O3       0.6626  12.7627   1.7846   O.3       2 RES2   0.0000
    19 N3       7.6071   9.6529   1.9689   N.ar      2 RES2   0.0000
    20 N4       7.4120   8.1570   4.4677   N.ar      2 RES2   0.0000
    21 O4       4.1792   1.7851   2.0536   O.3       2 RES2   0.0000
    22 C7       8.2195   7.6193   0.9121   C.ar      2 RES2   0.0000
    23 C8       4.4148  10.6647   4.0457   C.2       2 RES2   0.0000
    24 H1       4.1770  11.2005   4.7683   H         2 RES2   0.0000
    25 C9       3.5879  10.7582   2.8797   C.ar      2 RES2   0.0000
    26 C10      8.4656   8.9900   1.1306   C.ar      2 RES2   0.0000
    27 C11      6.7132   5.8741   1.3845   C.2       2 RES2   0.0000
    28 H2       7.1956   5.3896   0.7547   H         2 RES2   0.0000
    29 C12      3.8211  10.0171   1.7150   C.ar      2 RES2   0.0000
    30 C13      5.6347   5.1936   2.0413   C.ar      2 RES2   0.0000
    31 C14      7.2466   9.0215   5.5013   C.ar      2 RES2   0.0000
    32 C15      6.2138   9.9869   5.3989   C.ar      2 RES2   0.0000
    33 C16      4.7975   5.8085   3.0080   C.ar      2 RES2   0.0000
    34 C17      1.7129  11.8714   1.8406   C.ar      2 RES2   0.0000
    35 C18      9.5434   9.6459   0.5052   C.ar      2 RES2   0.0000
    36 C19      2.5198  11.6919   2.9370   C.ar      2 RES2   0.0000
    37 H3       2.3662  12.1785   3.7141   H         2 RES2   0.0000
    38 C20      9.0950   6.9152   0.1174   C.ar      2 RES2   0.0000
    39 H4       8.9610   6.0060  -0.0222   H         2 RES2   0.0000
    40 C21      7.7847  10.9520   2.1656   C.ar      2 RES2   0.0000
    41 H5       7.1954  11.4040   2.7261   H         2 RES2   0.0000
    42 C22      2.9514  10.2377   0.6308   C.ar      2 RES2   0.0000
    43 H6       3.0787   9.7561  -0.1547   H         2 RES2   0.0000
    44 C23      5.4308   3.8463   1.6918   C.ar      2 RES2   0.0000
    45 H7       5.9689   3.4533   1.0431   H         2 RES2   0.0000
    46 C24      6.0436  10.8794   6.4202   C.ar      2 RES2   0.0000
    47 H8       5.3778  11.5260   6.3561   H         2 RES2   0.0000
    48 C25      1.9316  11.1339   0.6964   C.ar      2 RES2   0.0000
    49 H9       1.3744  11.2509  -0.0389   H         2 RES2   0.0000
    50 C26      8.3491   7.2306   4.5632   C.ar      2 RES2   0.0000
    51 H10      8.4639   6.6352   3.8583   H         2 RES2   0.0000
    52 C27     10.1883   7.5586  -0.4834   C.ar      2 RES2   0.0000
    53 H11     10.7699   7.0679  -1.0174   H         2 RES2   0.0000
    54 C28      3.7676   5.0225   3.5597   C.ar      2 RES2   0.0000
    55 H12      3.1799   5.4047   4.1713   H         2 RES2   0.0000
    56 C29     10.4129   8.8860  -0.2963   C.ar      2 RES2   0.0000
    57 H13     11.1443   9.2928  -0.7012   H         2 RES2   0.0000
    58 C30      8.0727   8.9704   6.6687   C.ar      2 RES2   0.0000
    59 C31      4.4416   3.1027   2.3007   C.ar      2 RES2   0.0000
    60 C32      9.6858  11.0269   0.7578   C.ar      2 RES2   0.0000
    61 H14     10.3855  11.4946   0.3614   H         2 RES2   0.0000
    62 C33      9.1777   7.1142   5.6856   C.ar      2 RES2   0.0000
    63 H15      9.8248   6.4470   5.7177   H         2 RES2   0.0000
    64 C34      3.6154   3.7235   3.2183   C.ar      2 RES2   0.0000
    65 H16      2.9324   3.2318   3.6147   H         2 RES2   0.0000
    66 C35      8.8280  11.6729   1.5593   C.ar      2 RES2   0.0000
    67 H17      8.9230  12.5849   1.7134   H         2 RES2   0.0000
    68 C36      9.0384   7.9707   6.7274   C.ar      2 RES2   0.0000
    69 H18      9.5844   7.8905   7.4756   H         2 RES2   0.0000
    70 C37      6.8527  10.8356   7.5617   C.ar      2 RES2   0.0000
    71 H19      6.7171  11.4529   8.2444   H         2 RES2   0.0000
    72 C38      7.8268   9.9123   7.6846   C.ar      2 RES2   0.0000
    73 H20      8.3460   9.8982   8.4551   H         2 RES2   0.0000
    74 C39      0.5872  13.7566   2.7964   C.3       2 RES2   0.0000
    75 H21     -0.1733  14.3199   2.6343   H         2 RES2   0.0000
    76 H22      1.3869  14.2872   2.7833   H         2 RES2   0.0000
    77 H23      0.4962  13.3344   3.6532   H         2 RES2   0.0000
    78 C40      5.1314   1.0657   1.3040   C.3       2 RES2   0.0000
    79 H24      5.2245   1.4662   0.4359   H         2 RES2   0.0000
    80 H25      4.8421   0.1558   1.2068   H         2 RES2   0.0000
    81 H26      5.9776   1.0860   1.7573   H         2 RES2   0.0000
    82 S1      16.3441  10.1464  11.0015   S.2       3 RES3  -1.0000
    83 N5      17.8352  12.4641  10.5656   N.1       3 RES3   0.0000
    84 C41     17.2043  11.4848  10.7472   C.1       3 RES3   0.0000
@<TRIPOS>BOND
     1     1     7    1
     2     2    10    1
     3     3     9    1
     4     4    11    1
     5     5     8    1
     6     6    12    1
     7     7     8   ar
     8     8     9   ar
     9     9    12   ar
    10    10    11   ar
    11    11     7   ar
    12    12    10   ar
    13    13    14    1
    14    14    29    1
    15    15    13    1
    16    16    13    1
    17    17    13    1
    18    18    34    1
    19    19    13    1
    20    20    13    1
    21    21    59    1
    22    22    16    1
    23    23    17    2
    24    24    23    1
    25    25    23    1
    26    26    19   ar
    27    27    16    2
    28    28    27    1
    29    29    25   ar
    30    30    27    1
    31    31    20   ar
    32    32    17    1
    33    33    15    1
    34    34    36   ar
    35    35    26   ar
    36    36    25   ar
    37    37    36    1
    38    38    22   ar
    39    39    38    1
    40    40    19   ar
    41    41    40    1
    42    42    29   ar
    43    43    42    1
    44    44    30   ar
    45    45    44    1
    46    46    32   ar
    47    47    46    1
    48    48    34   ar
    49    49    48    1
    50    50    20   ar
    51    51    50    1
    52    52    38   ar
    53    53    52    1
    54    54    33   ar
    55    55    54    1
    56    56    35   ar
    57    57    56    1
    58    58    31   ar
    59    59    44   ar
    60    60    35   ar
    61    61    60    1
    62    62    50   ar
    63    63    62    1
    64    64    54   ar
    65    65    64    1
    66    66    40   ar
    67    67    66    1
    68    68    58   ar
    69    69    68    1
    70    70    46   ar
    71    71    70    1
    72    72    58   ar
    73    73    72    1
    74    74    18    1
    75    75    74    1
    76    76    74    1
    77    77    74    1
    78    78    21    1
    79    79    78    1
    80    80    78    1
    81    81    78    1
    82    22    26   ar
    83    30    33   ar
    84    31    32   ar
    85    42    48   ar
    86    52    56   ar
    87    59    64   ar
    88    60    66   ar
    89    62    68   ar
    90    70    72   ar
    91    82    84    1
    92    83    84    3
@<TRIPOS>SUBSTRUCTURE
     1 RES1        1 GROUP             0 ****  ****    0  
     2 RES2       13 GROUP             0 ****  ****    0  
     3 RES3       82 GROUP             0 ****  ****    0  
@<TRIPOS>CRYSIN
   11.6488   12.8048   14.0189   83.6140   78.6120   89.9880     2     1
