@<TRIPOS>MOLECULE
OPEVUD19
    90    97     4     0     0
SMALL
USER_CHARGES
****
Generated from the CSD

@<TRIPOS>ATOM
     1 I1      -2.3697   2.5662   8.8385   I         1 RES1   0.0000
     2 I2       2.3101   0.7250   5.4060   I         1 RES1   0.0000
     3 I3      -1.1863   5.1996   3.5265   I         1 RES1   0.0000
     4 F1       1.0550   3.0192   3.6877   F         1 RES1   0.0000
     5 F2      -2.5295   4.4547   6.2912   F         1 RES1   0.0000
     6 F3       0.1344   0.9023   7.7581   F         1 RES1   0.0000
     7 C1       0.6634   1.9338   5.7123   C.ar      1 RES1   0.0000
     8 C2       0.3157   2.8980   4.7862   C.ar      1 RES1   0.0000
     9 C3      -0.7699   3.7673   4.9556   C.ar      1 RES1   0.0000
    10 C4      -1.2354   2.6715   7.0790   C.ar      1 RES1   0.0000
    11 C5      -0.1416   1.8395   6.8404   C.ar      1 RES1   0.0000
    12 C6      -1.5083   3.6173   6.1034   C.ar      1 RES1   0.0000
    13 Fe1      5.4502   4.5616   2.9005   Fe        2 RES2   1.0000
    14 O1       6.7514   3.8858   1.6702   O.3       2 RES2   0.0000
    15 O2       6.4564   6.0484   3.5028   O.3       2 RES2   0.0000
    16 N1       4.4072   5.8698   1.6109   N.2       2 RES2   0.0000
    17 N2       3.9655   3.2967   2.0316   N.ar      2 RES2   0.0000
    18 N3       6.1495   3.1665   4.3160   N.2       2 RES2   0.0000
    19 O3      10.6533   0.0079   1.7253   O.3       2 RES2   0.0000
    20 O4       7.2150  11.2462   1.9173   O.3       2 RES2   0.0000
    21 N4       4.0863   4.8045   4.5433   N.ar      2 RES2   0.0000
    22 C7       7.1105   2.3077   4.0958   C.2       2 RES2   0.0000
    23 H1       7.3271   1.7363   4.7972   H         2 RES2   0.0000
    24 C8       4.3870   4.0633   5.6488   C.ar      2 RES2   0.0000
    25 C9       3.0954   3.9060   1.1888   C.ar      2 RES2   0.0000
    26 C10      3.2908   5.3073   0.9304   C.ar      2 RES2   0.0000
    27 C11      7.6520   2.9314   1.7521   C.ar      2 RES2   0.0000
    28 C12      7.8575   2.1580   2.9028   C.ar      2 RES2   0.0000
    29 C13      6.6050   7.2694   3.0454   C.ar      2 RES2   0.0000
    30 C14      5.4900   3.1883   5.5839   C.ar      2 RES2   0.0000
    31 C15      5.8029   7.8058   2.0246   C.ar      2 RES2   0.0000
    32 C16      4.7589   7.1002   1.3751   C.2       2 RES2   0.0000
    33 H2       4.2821   7.5588   0.7220   H         2 RES2   0.0000
    34 C17      8.8805   1.1669   2.9112   C.ar      2 RES2   0.0000
    35 H3       9.0259   0.6641   3.6808   H         2 RES2   0.0000
    36 C18      2.0422   3.2180   0.5591   C.ar      2 RES2   0.0000
    37 C19      9.6488   0.9429   1.8043   C.ar      2 RES2   0.0000
    38 C20      6.0029   9.1666   1.6039   C.ar      2 RES2   0.0000
    39 H4       5.4814   9.5254   0.9226   H         2 RES2   0.0000
    40 C21      3.6314   4.1829   6.8672   C.ar      2 RES2   0.0000
    41 C22      2.3959   5.9560   0.1228   C.ar      2 RES2   0.0000
    42 H5       2.4840   6.8711  -0.0196   H         2 RES2   0.0000
    43 C23      7.5898   8.0824   3.6285   C.ar      2 RES2   0.0000
    44 H6       8.1323   7.7367   4.3003   H         2 RES2   0.0000
    45 C24      8.4575   2.6534   0.6240   C.ar      2 RES2   0.0000
    46 H7       8.3274   3.1353  -0.1610   H         2 RES2   0.0000
    47 C25      6.9621   9.9338   2.2124   C.ar      2 RES2   0.0000
    48 C26      5.8394   2.4547   6.6907   C.ar      2 RES2   0.0000
    49 H8       6.5652   1.8749   6.6502   H         2 RES2   0.0000
    50 C27      3.8286   1.9950   2.2618   C.ar      2 RES2   0.0000
    51 H9       4.4220   1.5762   2.8433   H         2 RES2   0.0000
    52 C28      3.0427   5.6231   4.5984   C.ar      2 RES2   0.0000
    53 H10      2.8213   6.1179   3.8437   H         2 RES2   0.0000
    54 C29      7.7623   9.3871   3.2190   C.ar      2 RES2   0.0000
    55 H11      8.4207   9.9094   3.6171   H         2 RES2   0.0000
    56 C30      1.1632   3.9345  -0.2725   C.ar      2 RES2   0.0000
    57 H12      0.4488   3.4982  -0.6768   H         2 RES2   0.0000
    58 C31      1.9344   1.8324   0.8302   C.ar      2 RES2   0.0000
    59 H13      1.2538   1.3331   0.4386   H         2 RES2   0.0000
    60 C32      2.5494   5.0553   6.8573   C.ar      2 RES2   0.0000
    61 H14      2.0238   5.1454   7.6186   H         2 RES2   0.0000
    62 C33      2.8185   1.2338   1.6575   C.ar      2 RES2   0.0000
    63 H15      2.7588   0.3205   1.8240   H         2 RES2   0.0000
    64 C34      9.4263   1.6860   0.6678   C.ar      2 RES2   0.0000
    65 H16      9.9459   1.5280  -0.0876   H         2 RES2   0.0000
    66 C35      5.1038   2.5742   7.8852   C.ar      2 RES2   0.0000
    67 H17      5.3688   2.0911   8.6340   H         2 RES2   0.0000
    68 C36      1.3535   5.2610  -0.4899   C.ar      2 RES2   0.0000
    69 H18      0.7757   5.7154  -1.0588   H         2 RES2   0.0000
    70 C37      2.2561   5.7679   5.7632   C.ar      2 RES2   0.0000
    71 H19      1.5362   6.3575   5.7690   H         2 RES2   0.0000
    72 C38      4.0183   3.3797   7.9656   C.ar      2 RES2   0.0000
    73 H20      3.5216   3.4054   8.7519   H         2 RES2   0.0000
    74 C39      6.2578  11.9528   1.1436   C.3       2 RES2   0.0000
    75 H21      6.1440  11.5137   0.2973   H         2 RES2   0.0000
    76 H22      6.5627  12.8511   0.9999   H         2 RES2   0.0000
    77 H23      5.4189  11.9697   1.6103   H         2 RES2   0.0000
    78 C40     10.8631  -0.8245   2.8152   C.3       2 RES2   0.0000
    79 H24     11.5561  -1.4556   2.6073   H         2 RES2   0.0000
    80 H25     10.0515  -1.2963   3.0178   H         2 RES2   0.0000
    81 H26     11.1255  -0.2989   3.5738   H         2 RES2   0.0000
    82 S1       1.7918  -4.4046   2.6325   S.2       3 RES3  -1.0000
    83 C41      2.6786  -3.0581   2.8999   C.1       3 RES3   0.0000
    84 N5       3.2847  -2.1135   3.0623   N.1       3 RES3   0.0000
    85 O5       4.9751  -0.3225   4.3626   O.3       4 RES4   0.0000
    86 H27      4.6084  -0.8434   3.8466   H         4 RES4   0.0000
    87 C42      5.8854  -0.9923   5.1095   C.3       4 RES4   0.0000
    88 H28      6.7541  -0.9020   4.7113   H         4 RES4   0.0000
    89 H29      5.6456  -1.9205   5.1488   H         4 RES4   0.0000
    90 H30      5.9007  -0.6272   5.9974   H         4 RES4   0.0000
@<TRIPOS>BOND
     1     1    10    1
     2     2     7    1
     3     3     9    1
     4     4     8    1
     5     5    12    1
     6     6    11    1
     7     7     8   ar
     8     8     9   ar
     9     9    12   ar
    10    10    11   ar
    11    11     7   ar
    12    12    10   ar
    13    13    14    1
    14    14    27    1
    15    15    13    1
    16    16    13    1
    17    17    13    1
    18    18    13    1
    19    19    37    1
    20    20    47    1
    21    21    13    1
    22    22    18    2
    23    23    22    1
    24    24    21   ar
    25    25    17   ar
    26    26    16    1
    27    27    28   ar
    28    28    22    1
    29    29    15    1
    30    30    18    1
    31    31    29   ar
    32    32    16    2
    33    33    32    1
    34    34    28   ar
    35    35    34    1
    36    36    25   ar
    37    37    34   ar
    38    38    31   ar
    39    39    38    1
    40    40    24   ar
    41    41    26   ar
    42    42    41    1
    43    43    29   ar
    44    44    43    1
    45    45    27   ar
    46    46    45    1
    47    47    38   ar
    48    48    30   ar
    49    49    48    1
    50    50    17   ar
    51    51    50    1
    52    52    21   ar
    53    53    52    1
    54    54    43   ar
    55    55    54    1
    56    56    36   ar
    57    57    56    1
    58    58    36   ar
    59    59    58    1
    60    60    40   ar
    61    61    60    1
    62    62    50   ar
    63    63    62    1
    64    64    37   ar
    65    65    64    1
    66    66    48   ar
    67    67    66    1
    68    68    41   ar
    69    69    68    1
    70    70    52   ar
    71    71    70    1
    72    72    40   ar
    73    73    72    1
    74    74    20    1
    75    75    74    1
    76    76    74    1
    77    77    74    1
    78    78    19    1
    79    79    78    1
    80    80    78    1
    81    81    78    1
    82    24    30   ar
    83    25    26   ar
    84    31    32    1
    85    45    64   ar
    86    47    54   ar
    87    56    68   ar
    88    58    62   ar
    89    60    70   ar
    90    66    72   ar
    91    82    83    1
    92    83    84    3
    93    85    86    1
    94    87    85    1
    95    88    87    1
    96    89    87    1
    97    90    87    1
@<TRIPOS>SUBSTRUCTURE
     1 RES1        1 GROUP             0 ****  ****    0  
     2 RES2       13 GROUP             0 ****  ****    0  
     3 RES3       82 GROUP             0 ****  ****    0  
     4 RES4       85 GROUP             0 ****  ****    0  
@<TRIPOS>CRYSIN
   11.3964   13.0645   14.4014   95.7770   99.7050   90.5920     2     1
