@<TRIPOS>MOLECULE
OPEVIR05
    84    92     3     0     0
SMALL
USER_CHARGES
****
Generated from the CSD

@<TRIPOS>ATOM
     1 I1      14.8176  10.4645   8.3298   I         1 RES1   0.0000
     2 I2       9.8425  12.3567   5.3614   I         1 RES1   0.0000
     3 I3      12.8050   7.5133   3.4610   I         1 RES1   0.0000
     4 F1      12.2627  12.1992   7.4559   F         1 RES1   0.0000
     5 F2      14.5346   8.3638   5.9761   F         1 RES1   0.0000
     6 F3      10.6050   9.7380   3.8310   F         1 RES1   0.0000
     7 C1      12.5809   9.0251   4.8703   C.ar      1 RES1   0.0000
     8 C2      13.4284  10.2701   6.7675   C.ar      1 RES1   0.0000
     9 C3      11.3866  10.9923   5.6346   C.ar      1 RES1   0.0000
    10 C4      13.5005   9.2322   5.8691   C.ar      1 RES1   0.0000
    11 C5      12.3649  11.1547   6.6130   C.ar      1 RES1   0.0000
    12 C6      11.5289   9.9156   4.7823   C.ar      1 RES1   0.0000
    13 Fe1      6.4814   8.2226   2.8517   Fe        2 RES2   1.0000
    14 O1       5.2747   8.7255   1.5099   O.3       2 RES2   0.0000
    15 O2       5.2858   6.9808   3.5804   O.3       2 RES2   0.0000
    16 N1       5.8175   9.5299   4.1331   N.2       2 RES2   0.0000
    17 O3       0.9078  12.1018   1.6871   O.3       2 RES2   0.0000
    18 N2       7.2776   6.9554   1.6248   N.2       2 RES2   0.0000
    19 O4       4.1264   1.8112   2.0733   O.3       2 RES2   0.0000
    20 N3       7.7820   7.8404   4.3093   N.ar      2 RES2   0.0000
    21 N4       7.8467   9.4345   2.0639   N.ar      2 RES2   0.0000
    22 C7       4.7305  10.2243   4.0003   C.2       2 RES2   0.0000
    23 H1       4.4583  10.7507   4.7289   H         2 RES2   0.0000
    24 C8       7.6340   8.6774   5.3812   C.ar      2 RES2   0.0000
    25 C9       4.2245   9.5163   1.6614   C.ar      2 RES2   0.0000
    26 C10      5.7200   5.1529   2.0435   C.ar      2 RES2   0.0000
    27 C11      5.0142   5.7879   3.0924   C.ar      2 RES2   0.0000
    28 C12      8.4360   7.4324   0.9527   C.ar      2 RES2   0.0000
    29 C13      3.9212  10.2458   2.8322   C.ar      2 RES2   0.0000
    30 C14      3.3533   9.6788   0.5624   C.ar      2 RES2   0.0000
    31 H2       3.5228   9.2022  -0.2304   H         2 RES2   0.0000
    32 C15      2.8045  11.1264   2.8620   C.ar      2 RES2   0.0000
    33 H3       2.6224  11.6246   3.6389   H         2 RES2   0.0000
    34 C16      6.5935   9.6245   5.3202   C.ar      2 RES2   0.0000
    35 C17      8.6913   8.8010   1.1952   C.ar      2 RES2   0.0000
    36 C18      5.4229   3.8321   1.6600   C.ar      2 RES2   0.0000
    37 H4       5.8918   3.4321   0.9497   H         2 RES2   0.0000
    38 C19      1.9920  11.2543   1.7630   C.ar      2 RES2   0.0000
    39 C20      6.8132   5.7722   1.3524   C.2       2 RES2   0.0000
    40 H5       7.2218   5.2901   0.6565   H         2 RES2   0.0000
    41 C21      8.0260  10.7340   2.2780   C.ar      2 RES2   0.0000
    42 H6       7.4461  11.1797   2.8688   H         2 RES2   0.0000
    43 C22      4.4396   3.1185   2.3295   C.ar      2 RES2   0.0000
    44 C23      8.7214   6.9156   4.3513   C.ar      2 RES2   0.0000
    45 H7       8.8266   6.3378   3.6169   H         2 RES2   0.0000
    46 C24      7.2646  10.4604   7.4654   C.ar      2 RES2   0.0000
    47 H8       7.1493  11.0820   8.1612   H         2 RES2   0.0000
    48 C25      9.7732   9.4574   0.5624   C.ar      2 RES2   0.0000
    49 C26      3.9641   5.0508   3.6927   C.ar      2 RES2   0.0000
    50 H9       3.4411   5.4539   4.3617   H         2 RES2   0.0000
    51 C27      8.4721   8.6025   6.5277   C.ar      2 RES2   0.0000
    52 C28      2.2760  10.5045   0.6179   C.ar      2 RES2   0.0000
    53 H10      1.7088  10.5723  -0.1292   H         2 RES2   0.0000
    54 C29      6.4194  10.5183   6.3515   C.ar      2 RES2   0.0000
    55 H11      5.7368  11.1641   6.3082   H         2 RES2   0.0000
    56 C30     10.6210   8.6999  -0.2697   C.ar      2 RES2   0.0000
    57 H12     11.3474   9.1117  -0.7017   H         2 RES2   0.0000
    58 C31      9.2953   6.7162   0.1436   C.ar      2 RES2   0.0000
    59 H13      9.1519   5.8005  -0.0106   H         2 RES2   0.0000
    60 C32      3.6984   3.7710   3.3201   C.ar      2 RES2   0.0000
    61 H14      2.9955   3.3098   3.7407   H         2 RES2   0.0000
    62 C33      9.4611   7.5896   6.5371   C.ar      2 RES2   0.0000
    63 H15     10.0327   7.4879   7.2766   H         2 RES2   0.0000
    64 C34      9.5723   6.7684   5.4639   C.ar      2 RES2   0.0000
    65 H16     10.2256   6.0927   5.4622   H         2 RES2   0.0000
    66 C35      8.2513   9.5256   7.5657   C.ar      2 RES2   0.0000
    67 H17      8.7888   9.4975   8.3367   H         2 RES2   0.0000
    68 C36      9.0484  11.4658   1.6546   C.ar      2 RES2   0.0000
    69 H18      9.1351  12.3876   1.8180   H         2 RES2   0.0000
    70 C37     10.3888   7.3752  -0.4485   C.ar      2 RES2   0.0000
    71 H19     10.9797   6.8793  -0.9861   H         2 RES2   0.0000
    72 C38      9.9070  10.8454   0.8212   C.ar      2 RES2   0.0000
    73 H20     10.5960  11.3348   0.4099   H         2 RES2   0.0000
    74 C39      5.0447   1.0816   1.2955   C.3       2 RES2   0.0000
    75 H21      5.0903   1.4659   0.4053   H         2 RES2   0.0000
    76 H22      4.7549   0.1583   1.2340   H         2 RES2   0.0000
    77 H23      5.9207   1.1197   1.7090   H         2 RES2   0.0000
    78 C40      0.8055  13.0984   2.6899   C.3       2 RES2   0.0000
    79 H24      0.0569  13.6817   2.4907   H         2 RES2   0.0000
    80 H25      1.6240  13.6188   2.7131   H         2 RES2   0.0000
    81 H26      0.6665  12.6762   3.5520   H         2 RES2   0.0000
    82 S1      16.7888  10.1254  10.8920   S.2       3 RES3  -1.0000
    83 C41     17.9288  11.2807  10.6201   C.1       3 RES3   0.0000
    84 N5      18.7434  12.0929  10.4304   N.1       3 RES3   0.0000
@<TRIPOS>BOND
     1     1     8    1
     2     2     9    1
     3     3     7    1
     4     4    11    1
     5     5    10    1
     6     6    12    1
     7     7    10   ar
     8     8    10   ar
     9     9    11   ar
    10    11     8   ar
    11    12     7   ar
    12     9    12   ar
    13    13    14    1
    14    14    25    1
    15    15    13    1
    16    16    13    1
    17    17    38    1
    18    18    13    1
    19    19    43    1
    20    20    13    1
    21    21    13    1
    22    22    16    2
    23    23    22    1
    24    24    20   ar
    25    25    29   ar
    26    26    27   ar
    27    27    15    1
    28    28    18    1
    29    29    22    1
    30    30    25   ar
    31    31    30    1
    32    32    29   ar
    33    33    32    1
    34    34    16    1
    35    35    21   ar
    36    36    26   ar
    37    37    36    1
    38    38    32   ar
    39    39    18    2
    40    40    39    1
    41    41    21   ar
    42    42    41    1
    43    43    36   ar
    44    44    20   ar
    45    45    44    1
    46    46    47    1
    47    48    35   ar
    48    49    27   ar
    49    50    49    1
    50    51    24   ar
    51    52    30   ar
    52    53    52    1
    53    54    34   ar
    54    55    54    1
    55    56    48   ar
    56    57    56    1
    57    58    28   ar
    58    59    58    1
    59    60    43   ar
    60    61    60    1
    61    62    51   ar
    62    63    62    1
    63    64    44   ar
    64    65    64    1
    65    66    46   ar
    66    67    66    1
    67    68    41   ar
    68    69    68    1
    69    70    56   ar
    70    71    70    1
    71    72    48   ar
    72    73    72    1
    73    74    19    1
    74    75    74    1
    75    76    74    1
    76    77    74    1
    77    78    17    1
    78    79    78    1
    79    80    78    1
    80    81    78    1
    81    24    34   ar
    82    26    39    1
    83    28    35   ar
    84    38    52   ar
    85    46    54   ar
    86    49    60   ar
    87    51    66   ar
    88    58    70   ar
    89    62    64   ar
    90    68    72   ar
    91    82    83    1
    92    83    84    3
@<TRIPOS>SUBSTRUCTURE
     1 RES1        1 GROUP             0 ****  ****    0  
     2 RES2       13 GROUP             0 ****  ****    0  
     3 RES3       82 GROUP             0 ****  ****    0  
@<TRIPOS>CRYSIN
   11.8305   12.3683   13.9991   82.8580   77.3210   89.2760     2     1
