@<TRIPOS>MOLECULE
OPEVUD37
    90    97     4     0     0
SMALL
USER_CHARGES
****
Generated from the CSD

@<TRIPOS>ATOM
     1 I1       6.5142  10.6695   8.6602   I         1 RES1   0.0000
     2 I2      11.3437   8.8990   5.3947   I         1 RES1   0.0000
     3 I3       9.9654   6.1765  10.6277   I         1 RES1   0.0000
     4 F1      11.4449   6.9804   7.9275   F         1 RES1   0.0000
     5 F2       7.6919   8.3263  10.3766   F         1 RES1   0.0000
     6 F3       8.8075  10.5697   6.4101   F         1 RES1   0.0000
     7 C1       8.4776   8.4752   9.3252   C.ar      1 RES1   0.0000
     8 C2       8.1918   9.4706   8.4060   C.ar      1 RES1   0.0000
     9 C3      10.1672   8.7870   7.1294   C.ar      1 RES1   0.0000
    10 C4      10.3814   7.8064   8.0907   C.ar      1 RES1   0.0000
    11 C5       9.5885   7.6352   9.2041   C.ar      1 RES1   0.0000
    12 C6       9.0644   9.6082   7.3292   C.ar      1 RES1   0.0000
    13 Fe1      3.4884   6.8549  11.1245   Fe        2 RES2   1.0000
    14 O1       2.2769   7.3415  12.4781   O.3       2 RES2   0.0000
    15 O2       2.3597   5.5490  10.4146   O.3       2 RES2   0.0000
    16 O3       1.2478   0.4295  12.1558   O.3       2 RES2   0.0000
    17 N1       2.7557   8.0978   9.8136   N.2       2 RES2   0.0000
    18 O4      -1.8990  10.9795  12.4641   O.3       2 RES2   0.0000
    19 N2       4.7907   8.1398  11.8968   N.ar      2 RES2   0.0000
    20 N3       4.7954   6.5034   9.6602   N.ar      2 RES2   0.0000
    21 N4       4.3270   5.6345  12.3979   N.2       2 RES2   0.0000
    22 C7       3.4245   8.0930   8.5580   C.ar      2 RES2   0.0000
    23 C8       1.2974   8.2174  12.3698   C.ar      2 RES2   0.0000
    24 C9       5.4566   6.1784  13.0637   C.ar      2 RES2   0.0000
    25 C10      4.5334   7.2166   8.5144   C.ar      2 RES2   0.0000
    26 C11      1.7073   8.8542   9.9952   C.2       2 RES2   0.0000
    27 H1       1.4072   9.3698   9.2556   H         2 RES2   0.0000
    28 C12     -0.0929   9.8974  11.2170   C.ar      2 RES2   0.0000
    29 H2      -0.2875  10.3917  10.4293   H         2 RES2   0.0000
    30 C13      0.9743   8.9690  11.2170   C.ar      2 RES2   0.0000
    31 C14      5.6548   7.5550  12.7920   C.ar      2 RES2   0.0000
    32 C15      0.4850   8.4457  13.5226   C.ar      2 RES2   0.0000
    33 H3       0.6636   7.9626  14.3211   H         2 RES2   0.0000
    34 C16      2.1087   4.3605  10.9383   C.ar      2 RES2   0.0000
    35 C17      2.8073   3.8052  12.0348   C.ar      2 RES2   0.0000
    36 C18      3.8778   4.4572  12.7005   C.2       2 RES2   0.0000
    37 H4       4.2959   3.9976  13.4189   H         2 RES2   0.0000
    38 C19     -0.8477  10.0876  12.3472   C.ar      2 RES2   0.0000
    39 C20      2.5091   2.4774  12.4795   C.ar      2 RES2   0.0000
    40 H5       2.9718   2.1134  13.2253   H         2 RES2   0.0000
    41 C21      3.1121   8.8369   7.4461   C.ar      2 RES2   0.0000
    42 H6       2.3787   9.4401   7.4666   H         2 RES2   0.0000
    43 C22      6.3338   5.5110  13.8899   C.ar      2 RES2   0.0000
    44 H7       6.2290   4.5810  14.0511   H         2 RES2   0.0000
    45 C23      4.9109   9.4408  11.6533   C.ar      2 RES2   0.0000
    46 H8       4.3245   9.8485  11.0275   H         2 RES2   0.0000
    47 C24      5.8293   5.6606   9.6588   C.ar      2 RES2   0.0000
    48 H9       6.0251   5.1691  10.4480   H         2 RES2   0.0000
    49 C25      5.8816  10.2319  12.2966   C.ar      2 RES2   0.0000
    50 H10      5.9158  11.1666  12.1286   H         2 RES2   0.0000
    51 C26     -0.5458   9.3459  13.5014   C.ar      2 RES2   0.0000
    52 H11     -1.0690   9.4724  14.2838   H         2 RES2   0.0000
    53 C27      1.5647   1.7351  11.8377   C.ar      2 RES2   0.0000
    54 C28      6.6895   8.2771  13.4212   C.ar      2 RES2   0.0000
    55 C29      7.5604   7.5719  14.2869   C.ar      2 RES2   0.0000
    56 H12      8.2672   8.0308  14.7253   H         2 RES2   0.0000
    57 C30      7.3835   6.2241  14.4952   C.ar      2 RES2   0.0000
    58 H13      7.9894   5.7618  15.0620   H         2 RES2   0.0000
    59 C31      1.0985   3.5690  10.3386   C.ar      2 RES2   0.0000
    60 H14      0.5948   3.9240   9.6144   H         2 RES2   0.0000
    61 C32      3.8777   8.7051   6.2834   C.ar      2 RES2   0.0000
    62 H15      3.6507   9.2184   5.5161   H         2 RES2   0.0000
    63 C33      0.8355   2.2986  10.7862   C.ar      2 RES2   0.0000
    64 H16      0.1454   1.7922  10.3743   H         2 RES2   0.0000
    65 C34      5.3064   7.0869   7.3433   C.ar      2 RES2   0.0000
    66 C35      6.3966   6.1734   7.3982   C.ar      2 RES2   0.0000
    67 H17      6.9531   6.0532   6.6381   H         2 RES2   0.0000
    68 C36      2.2180  -0.2821  12.9187   C.3       2 RES2   0.0000
    69 H18      3.0996  -0.1789  12.5047   H         2 RES2   0.0000
    70 H19      1.9785  -1.2322  12.9462   H         2 RES2   0.0000
    71 H20      2.2414   0.0748  13.8314   H         2 RES2   0.0000
    72 C37      6.7737   9.6640  13.1594   C.ar      2 RES2   0.0000
    73 H21      7.4418  10.1928  13.5779   H         2 RES2   0.0000
    74 C38      4.9573   7.8465   6.2243   C.ar      2 RES2   0.0000
    75 H22      5.4620   7.7713   5.4234   H         2 RES2   0.0000
    76 C39      6.6392   5.4796   8.5243   C.ar      2 RES2   0.0000
    77 H23      7.3628   4.8639   8.5531   H         2 RES2   0.0000
    78 C40     -2.1298  11.8351  11.3662   C.3       2 RES2   0.0000
    79 H24     -2.4002  11.3034  10.5884   H         2 RES2   0.0000
    80 H25     -1.3074  12.3255  11.1559   H         2 RES2   0.0000
    81 H26     -2.8407  12.4709  11.5903   H         2 RES2   0.0000
    82 S1       7.3654  15.3749  11.4298   S.2       3 RES3  -1.0000
    83 C41      6.2213  14.2666  11.1761   C.1       3 RES3   0.0000
    84 N5       5.3836  13.4855  11.0297   N.1       3 RES3   0.0000
    85 O5       3.8489  11.6713   9.6348   O.3       4 RES4   0.0000
    86 H27      4.3275  12.2816   9.9565   H         4 RES4   0.0000
    87 C42      2.6767  12.2202   9.1267   C.3       4 RES4   0.0000
    88 H28      2.5036  11.8543   8.2350   H         4 RES4   0.0000
    89 H29      2.7712  13.1942   9.0682   H         4 RES4   0.0000
    90 H30      1.9291  12.0004   9.7214   H         4 RES4   0.0000
@<TRIPOS>BOND
     1     1     8    1
     2     2     9    1
     3     3    11    1
     4     4    10    1
     5     5     7    1
     6     6    12    1
     7     7     8   ar
     8     8    12   ar
     9     9    10   ar
    10    10    11   ar
    11    11     7   ar
    12    12     9   ar
    13    13    14    1
    14    14    23    1
    15    15    13    1
    16    16    53    1
    17    17    13    1
    18    18    38    1
    19    19    13    1
    20    20    13    1
    21    21    13    1
    22    22    17    1
    23    23    30   ar
    24    24    21    1
    25    25    20   ar
    26    26    17    2
    27    27    26    1
    28    28    29    1
    29    30    26    1
    30    31    19   ar
    31    32    23   ar
    32    33    32    1
    33    34    15    1
    34    35    34   ar
    35    36    21    2
    36    37    36    1
    37    38    28   ar
    38    39    35   ar
    39    40    39    1
    40    41    22   ar
    41    42    41    1
    42    43    24   ar
    43    44    43    1
    44    45    19   ar
    45    46    45    1
    46    47    20   ar
    47    48    47    1
    48    49    45   ar
    49    50    49    1
    50    51    32   ar
    51    52    51    1
    52    53    39   ar
    53    54    31   ar
    54    55    54   ar
    55    56    55    1
    56    57    43   ar
    57    58    57    1
    58    59    34   ar
    59    60    59    1
    60    61    41   ar
    61    62    61    1
    62    63    53   ar
    63    64    63    1
    64    65    25   ar
    65    66    65   ar
    66    67    66    1
    67    68    16    1
    68    69    68    1
    69    70    68    1
    70    71    68    1
    71    72    49   ar
    72    73    72    1
    73    74    61   ar
    74    75    74    1
    75    76    47   ar
    76    77    76    1
    77    78    18    1
    78    79    78    1
    79    80    78    1
    80    81    78    1
    81    22    25   ar
    82    24    31   ar
    83    28    30   ar
    84    35    36    1
    85    38    51   ar
    86    54    72   ar
    87    55    57   ar
    88    59    63   ar
    89    65    74   ar
    90    66    76   ar
    91    82    83    1
    92    83    84    3
    93    85    86    1
    94    87    85    1
    95    88    87    1
    96    89    87    1
    97    90    87    1
@<TRIPOS>SUBSTRUCTURE
     1 RES1        1 GROUP             0 ****  ****    0  
     2 RES2       13 GROUP             0 ****  ****    0  
     3 RES3       82 GROUP             0 ****  ****    0  
     4 RES4       85 GROUP             0 ****  ****    0  
@<TRIPOS>CRYSIN
   11.5520   12.5620   14.3922   95.3890  100.7260   90.0580     2     1
