@<TRIPOS>MOLECULE
OPEVUD07
    90    97     4     0     0
SMALL
USER_CHARGES
****
Generated from the CSD

@<TRIPOS>ATOM
     1 I1      11.1749   8.9893   5.2941   I         1 RES1   0.0000
     2 I2       6.4621  10.7996   8.7060   I         1 RES1   0.0000
     3 I3       9.9773   6.3311  10.5945   I         1 RES1   0.0000
     4 F1       7.7100   8.5000  10.4199   F         1 RES1   0.0000
     5 F2      11.3468   7.0941   7.8378   F         1 RES1   0.0000
     6 F3       8.6595  10.6452   6.3635   F         1 RES1   0.0000
     7 C1       9.5503   7.7641   9.1711   C.ar      1 RES1   0.0000
     8 C2       8.1390   9.5982   8.4142   C.ar      1 RES1   0.0000
     9 C3       8.4658   8.6383   9.3247   C.ar      1 RES1   0.0000
    10 C4      10.0283   8.8790   7.0542   C.ar      1 RES1   0.0000
    11 C5      10.2915   7.9157   8.0224   C.ar      1 RES1   0.0000
    12 C6       8.9433   9.7056   7.2783   C.ar      1 RES1   0.0000
    13 Fe1      3.3728   6.9831  11.1884   Fe        2 RES2   1.0000
    14 O1       2.0817   7.6326  12.4396   O.3       2 RES2   0.0000
    15 O2       2.3547   5.5204  10.5622   O.3       2 RES2   0.0000
    16 N1       2.6763   8.3632   9.7870   N.2       2 RES2   0.0000
    17 N2       4.3894   5.6952  12.4790   N.2       2 RES2   0.0000
    18 N3       4.8254   8.2542  12.0393   N.ar      2 RES2   0.0000
    19 O3      -1.8558  11.4958  12.3860   O.3       2 RES2   0.0000
    20 O4       1.5502   0.3153  12.1704   O.3       2 RES2   0.0000
    21 N4       4.7365   6.7264   9.5686   N.ar      2 RES2   0.0000
    22 C7       1.6987   9.2052  10.0013   C.2       2 RES2   0.0000
    23 H1       1.4693   9.7748   9.2891   H         2 RES2   0.0000
    24 C8       0.9443   9.3503  11.2035   C.ar      2 RES2   0.0000
    25 C9       4.4362   7.4674   8.4537   C.ar      2 RES2   0.0000
    26 C10      5.6944   7.6419  12.9004   C.ar      2 RES2   0.0000
    27 C11      5.5018   6.2485  13.1499   C.ar      2 RES2   0.0000
    28 C12      3.3308   8.3377   8.5326   C.ar      2 RES2   0.0000
    29 C13      1.1686   8.5805  12.3578   C.ar      2 RES2   0.0000
    30 C14     -0.0758  10.3371  11.1979   C.ar      2 RES2   0.0000
    31 H2      -0.2266  10.8443  10.4204   H         2 RES2   0.0000
    32 C15      2.9724   3.7521  12.0731   C.ar      2 RES2   0.0000
    33 C16      6.7436   8.3410  13.5290   C.ar      2 RES2   0.0000
    34 C17      4.0244   4.4605  12.7243   C.2       2 RES2   0.0000
    35 H3       4.5000   3.9997  13.3905   H         2 RES2   0.0000
    36 C18      2.1886   4.3057  11.0273   C.ar      2 RES2   0.0000
    37 C19      6.3894   5.5890  13.9660   C.ar      2 RES2   0.0000
    38 H4       6.2936   4.6658  14.1159   H         2 RES2   0.0000
    39 C20     -0.8430  10.5593  12.3071   C.ar      2 RES2   0.0000
    40 C21      5.1985   7.3523   7.2501   C.ar      2 RES2   0.0000
    41 C22      7.6255   7.6358  14.3733   C.ar      2 RES2   0.0000
    42 H5       8.3351   8.0846  14.7953   H         2 RES2   0.0000
    43 C23      4.9557   9.5524  11.8194   C.ar      2 RES2   0.0000
    44 H6       4.3572   9.9777  11.2320   H         2 RES2   0.0000
    45 C24      0.3541   8.8571  13.4938   C.ar      2 RES2   0.0000
    46 H7       0.4843   8.3670  14.2851   H         2 RES2   0.0000
    47 C25      6.8484   9.7350  13.2612   C.ar      2 RES2   0.0000
    48 H8       7.5326  10.2439  13.6580   H         2 RES2   0.0000
    49 C26      1.2025   3.4881  10.4410   C.ar      2 RES2   0.0000
    50 H9       0.6626   3.8351   9.7546   H         2 RES2   0.0000
    51 C27      2.9743   9.0766   7.4136   C.ar      2 RES2   0.0000
    52 H10      2.2341   9.6544   7.4471   H         2 RES2   0.0000
    53 C28      5.7736   5.9061   9.5333   C.ar      2 RES2   0.0000
    54 H11      5.9899   5.4076  10.3007   H         2 RES2   0.0000
    55 C29      2.7590   2.4088  12.4776   C.ar      2 RES2   0.0000
    56 H12      3.2733   2.0459  13.1758   H         2 RES2   0.0000
    57 C30      5.9639  10.3161  12.4381   C.ar      2 RES2   0.0000
    58 H13      6.0163  11.2405  12.2738   H         2 RES2   0.0000
    59 C31      1.8121   1.6385  11.8603   C.ar      2 RES2   0.0000
    60 C32      3.7258   8.9596   6.2268   C.ar      2 RES2   0.0000
    61 H14      3.4741   9.4605   5.4724   H         2 RES2   0.0000
    62 C33      7.4426   6.2976  14.5776   C.ar      2 RES2   0.0000
    63 H15      8.0366   5.8363  15.1414   H         2 RES2   0.0000
    64 C34      6.2863   6.4702   7.2599   C.ar      2 RES2   0.0000
    65 H16      6.8199   6.3747   6.4928   H         2 RES2   0.0000
    66 C35     -0.6116   9.8191  13.4515   C.ar      2 RES2   0.0000
    67 H17     -1.1308   9.9841  14.2169   H         2 RES2   0.0000
    68 C36      6.5682   5.7584   8.3677   C.ar      2 RES2   0.0000
    69 H18      7.2945   5.1612   8.3688   H         2 RES2   0.0000
    70 C37      4.8021   8.1399   6.1493   C.ar      2 RES2   0.0000
    71 H19      5.2921   8.0959   5.3482   H         2 RES2   0.0000
    72 C38      1.0158   2.1860  10.8596   C.ar      2 RES2   0.0000
    73 H20      0.3429   1.6638  10.4625   H         2 RES2   0.0000
    74 C39      2.5106  -0.3675  12.9484   C.3       2 RES2   0.0000
    75 H21      3.3704  -0.3366  12.5003   H         2 RES2   0.0000
    76 H22      2.2380  -1.2918  13.0609   H         2 RES2   0.0000
    77 H23      2.5835   0.0561  13.8177   H         2 RES2   0.0000
    78 C40     -2.0666  12.3168  11.2881   C.3       2 RES2   0.0000
    79 H24     -2.3566  11.7798  10.5344   H         2 RES2   0.0000
    80 H25     -1.2406  12.7722  11.0626   H         2 RES2   0.0000
    81 H26     -2.7496  12.9713  11.5013   H         2 RES2   0.0000
    82 S1       7.0507  15.8897  11.4606   S.2       3 RES3  -1.0000
    83 C41      6.1335  14.5676  11.1922   C.1       3 RES3   0.0000
    84 N5       5.4934  13.6389  11.0386   N.1       3 RES3   0.0000
    85 O5       3.8232  11.8377   9.7278   O.3       4 RES4   0.0000
    86 H27      4.2414  12.3720  10.2060   H         4 RES4   0.0000
    87 C42      2.8971  12.5165   8.9879   C.3       4 RES4   0.0000
    88 H28      2.8506  12.1343   8.0978   H         4 RES4   0.0000
    89 H29      3.1532  13.4501   8.9263   H         4 RES4   0.0000
    90 H30      2.0281  12.4477   9.4147   H         4 RES4   0.0000
@<TRIPOS>BOND
     1     1    10    1
     2     2     8    1
     3     3     7    1
     4     4     9    1
     5     5    11    1
     6     6    12    1
     7     7     9   ar
     8     8     9   ar
     9    10    11   ar
    10    11     7   ar
    11    12     8   ar
    12    10    12   ar
    13    13    14    1
    14    14    29    1
    15    15    13    1
    16    16    13    1
    17    17    13    1
    18    18    13    1
    19    19    39    1
    20    20    59    1
    21    21    13    1
    22    22    16    2
    23    23    22    1
    24    24    22    1
    25    25    21   ar
    26    26    18   ar
    27    27    17    1
    28    28    16    1
    29    29    24   ar
    30    30    24   ar
    31    31    30    1
    32    32    34    1
    33    33    26   ar
    34    34    17    2
    35    35    34    1
    36    36    15    1
    37    37    27   ar
    38    38    37    1
    39    39    30   ar
    40    40    25   ar
    41    41    33   ar
    42    42    41    1
    43    43    18   ar
    44    44    43    1
    45    45    29   ar
    46    46    45    1
    47    47    33   ar
    48    48    47    1
    49    49    36   ar
    50    50    49    1
    51    51    28   ar
    52    52    51    1
    53    53    21   ar
    54    54    53    1
    55    55    32   ar
    56    56    55    1
    57    57    43   ar
    58    58    57    1
    59    59    55   ar
    60    60    51   ar
    61    61    60    1
    62    62    37   ar
    63    63    62    1
    64    64    40   ar
    65    65    64    1
    66    66    39   ar
    67    67    66    1
    68    68    53   ar
    69    69    68    1
    70    70    40   ar
    71    71    70    1
    72    72    49   ar
    73    73    72    1
    74    74    20    1
    75    75    74    1
    76    76    74    1
    77    77    74    1
    78    78    19    1
    79    79    78    1
    80    80    78    1
    81    81    78    1
    82    25    28   ar
    83    26    27   ar
    84    32    36   ar
    85    41    62   ar
    86    45    66   ar
    87    47    57   ar
    88    59    72   ar
    89    60    70   ar
    90    64    68   ar
    91    82    83    1
    92    83    84    3
    93    85    86    1
    94    87    85    1
    95    88    87    1
    96    89    87    1
    97    90    87    1
@<TRIPOS>SUBSTRUCTURE
     1 RES1        1 GROUP             0 ****  ****    0  
     2 RES2       13 GROUP             0 ****  ****    0  
     3 RES3       82 GROUP             0 ****  ****    0  
     4 RES4       85 GROUP             0 ****  ****    0  
@<TRIPOS>CRYSIN
   11.3719   12.9758   14.3812   95.7460   99.8350   90.5180     2     1
