@<TRIPOS>MOLECULE
OPEVIR30
    84    92     3     0     0
SMALL
USER_CHARGES
****
Generated from the CSD

@<TRIPOS>ATOM
     1 I1      14.6617  10.3998   8.3833   I         1 RES1   0.0000
     2 I2       9.7243  12.3435   5.4065   I         1 RES1   0.0000
     3 I3      12.6909   7.5369   3.4461   I         1 RES1   0.0000
     4 F1      14.3975   8.3481   5.9957   F         1 RES1   0.0000
     5 F2      12.1132  12.1542   7.5086   F         1 RES1   0.0000
     6 F3      10.5021   9.7447   3.8236   F         1 RES1   0.0000
     7 C1      12.4616   9.0248   4.8635   C.ar      1 RES1   0.0000
     8 C2      12.2384  11.1186   6.6482   C.ar      1 RES1   0.0000
     9 C3      11.2705  10.9848   5.6817   C.ar      1 RES1   0.0000
    10 C4      13.2842  10.2257   6.7990   C.ar      1 RES1   0.0000
    11 C5      13.3774   9.2108   5.8829   C.ar      1 RES1   0.0000
    12 C6      11.4142   9.9212   4.7737   C.ar      1 RES1   0.0000
    13 Fe1      6.4024   8.2248   2.8634   Fe        2 RES2   1.0000
    14 O1       5.2284   6.9857   3.5735   O.3       2 RES2   0.0000
    15 O2       5.1974   8.7362   1.5305   O.3       2 RES2   0.0000
    16 O3       0.8955  12.1656   1.6692   O.3       2 RES2   0.0000
    17 N1       5.7202   9.5296   4.1566   N.2       2 RES2   0.0000
    18 N2       7.2136   6.9673   1.6284   N.2       2 RES2   0.0000
    19 N3       7.7539   9.4386   2.0797   N.ar      2 RES2   0.0000
    20 N4       7.6930   7.8386   4.3252   N.ar      2 RES2   0.0000
    21 O4       4.0898   1.8136   2.0606   O.3       2 RES2   0.0000
    22 C7       4.6679  10.2365   4.0071   C.2       2 RES2   0.0000
    23 H1       4.4053  10.7764   4.7306   H         2 RES2   0.0000
    24 C8       4.9425   5.7872   3.0896   C.ar      2 RES2   0.0000
    25 C9       4.1691   9.5312   1.6651   C.ar      2 RES2   0.0000
    26 C10      5.6814   5.1641   2.0348   C.ar      2 RES2   0.0000
    27 C11      3.2987   9.7174   0.5614   C.ar      2 RES2   0.0000
    28 H2       3.4601   9.2378  -0.2312   H         2 RES2   0.0000
    29 C12      6.7527   5.7714   1.3552   C.2       2 RES2   0.0000
    30 H3       7.1646   5.2897   0.6612   H         2 RES2   0.0000
    31 C13      7.5452   8.6671   5.4072   C.ar      2 RES2   0.0000
    32 C14      3.8647  10.2743   2.8436   C.ar      2 RES2   0.0000
    33 C15      8.3535   7.4398   0.9528   C.ar      2 RES2   0.0000
    34 C16      8.6123   8.8199   1.2097   C.ar      2 RES2   0.0000
    35 C17      1.9455  11.3094   1.7630   C.ar      2 RES2   0.0000
    36 C18      6.4975   9.6059   5.3406   C.ar      2 RES2   0.0000
    37 C19      2.7685  11.1606   2.8681   C.ar      2 RES2   0.0000
    38 H4       2.5940  11.6594   3.6458   H         2 RES2   0.0000
    39 C20      5.3718   3.8349   1.6624   C.ar      2 RES2   0.0000
    40 H5       5.8446   3.4338   0.9556   H         2 RES2   0.0000
    41 C21      8.6458   6.9133   4.3700   C.ar      2 RES2   0.0000
    42 H6       8.7612   6.3386   3.6352   H         2 RES2   0.0000
    43 C22      9.6666   9.4805   0.5723   C.ar      2 RES2   0.0000
    44 C23      4.4002   3.1228   2.3053   C.ar      2 RES2   0.0000
    45 C24      7.9305  10.7403   2.3135   C.ar      2 RES2   0.0000
    46 H7       7.3597  11.1759   2.9211   H         2 RES2   0.0000
    47 C25      2.2377  10.5679   0.6090   C.ar      2 RES2   0.0000
    48 H8       1.6883  10.6605  -0.1480   H         2 RES2   0.0000
    49 C26      8.3562   8.5692   6.5557   C.ar      2 RES2   0.0000
    50 C27     10.5090   8.7326  -0.2678   C.ar      2 RES2   0.0000
    51 H9      11.2283   9.1517  -0.7052   H         2 RES2   0.0000
    52 C28      9.2048   6.7472   0.1400   C.ar      2 RES2   0.0000
    53 H10      9.0654   5.8323  -0.0225   H         2 RES2   0.0000
    54 C29      3.9010   5.0316   3.6890   C.ar      2 RES2   0.0000
    55 H11      3.3729   5.4241   4.3597   H         2 RES2   0.0000
    56 C30      9.3766   7.5821   6.5489   C.ar      2 RES2   0.0000
    57 H12      9.9673   7.4989   7.2753   H         2 RES2   0.0000
    58 C31      7.1496  10.4084   7.5276   C.ar      2 RES2   0.0000
    59 H13      7.0253  11.0164   8.2344   H         2 RES2   0.0000
    60 C32      3.6537   3.7443   3.3044   C.ar      2 RES2   0.0000
    61 H14      2.9624   3.2652   3.7254   H         2 RES2   0.0000
    62 C33      9.4818   6.7707   5.4860   C.ar      2 RES2   0.0000
    63 H15     10.1323   6.0918   5.4898   H         2 RES2   0.0000
    64 C34     10.2855   7.4112  -0.4472   C.ar      2 RES2   0.0000
    65 H16     10.8790   6.9208  -0.9867   H         2 RES2   0.0000
    66 C35      0.7480  13.1225   2.7036   C.3       2 RES2   0.0000
    67 H17      0.0030  13.7089   2.4980   H         2 RES2   0.0000
    68 H18      1.5611  13.6470   2.7763   H         2 RES2   0.0000
    69 H19      0.5800  12.6680   3.5432   H         2 RES2   0.0000
    70 C36      6.3099  10.4757   6.3940   C.ar      2 RES2   0.0000
    71 H20      5.6220  11.1149   6.3571   H         2 RES2   0.0000
    72 C37      9.8103  10.8686   0.8332   C.ar      2 RES2   0.0000
    73 H21     10.4995  11.3594   0.4249   H         2 RES2   0.0000
    74 C38      8.9412  11.4797   1.6814   C.ar      2 RES2   0.0000
    75 H22      9.0176  12.4018   1.8438   H         2 RES2   0.0000
    76 C39      8.1376   9.4752   7.6105   C.ar      2 RES2   0.0000
    77 H23      8.6787   9.4362   8.3785   H         2 RES2   0.0000
    78 C40      4.9988   1.0699   1.2668   C.3       2 RES2   0.0000
    79 H24      5.0414   1.4546   0.3783   H         2 RES2   0.0000
    80 H25      4.6964   0.1497   1.2073   H         2 RES2   0.0000
    81 H26      5.8787   1.0949   1.6739   H         2 RES2   0.0000
    82 S1      16.5986  10.0393  10.9436   S.2       3 RES3  -1.0000
    83 N5      18.5146  12.0308  10.4922   N.1       3 RES3   0.0000
    84 C41     17.6832  11.1830  10.6784   C.1       3 RES3   0.0000
@<TRIPOS>BOND
     1     1    10    1
     2     2     9    1
     3     3     7    1
     4     4    11    1
     5     5     8    1
     6     6    12    1
     7     7    11   ar
     8     8     9   ar
     9     9    12   ar
    10    10     8   ar
    11    11    10   ar
    12    12     7   ar
    13    13    14    1
    14    14    24    1
    15    15    13    1
    16    16    35    1
    17    17    13    1
    18    18    13    1
    19    19    13    1
    20    20    13    1
    21    21    44    1
    22    22    17    2
    23    23    22    1
    24    24    26   ar
    25    25    15    1
    26    26    29    1
    27    27    25   ar
    28    28    27    1
    29    29    18    2
    30    30    29    1
    31    31    20   ar
    32    32    22    1
    33    33    18    1
    34    34    19   ar
    35    35    37   ar
    36    36    17    1
    37    37    32   ar
    38    38    37    1
    39    39    26   ar
    40    40    39    1
    41    41    20   ar
    42    42    41    1
    43    43    34   ar
    44    44    39   ar
    45    45    19   ar
    46    46    45    1
    47    47    27   ar
    48    48    47    1
    49    49    31   ar
    50    50    43   ar
    51    51    50    1
    52    52    33   ar
    53    53    52    1
    54    54    24   ar
    55    55    54    1
    56    56    49   ar
    57    57    56    1
    58    58    59    1
    59    60    44   ar
    60    61    60    1
    61    62    41   ar
    62    63    62    1
    63    64    50   ar
    64    65    64    1
    65    66    16    1
    66    67    66    1
    67    68    66    1
    68    69    66    1
    69    70    36   ar
    70    71    70    1
    71    72    43   ar
    72    73    72    1
    73    74    45   ar
    74    75    74    1
    75    76    49   ar
    76    77    76    1
    77    78    21    1
    78    79    78    1
    79    80    78    1
    80    81    78    1
    81    25    32   ar
    82    31    36   ar
    83    33    34   ar
    84    35    47   ar
    85    52    64   ar
    86    54    60   ar
    87    56    62   ar
    88    58    70   ar
    89    58    76   ar
    90    72    74   ar
    91    82    84    1
    92    83    84    3
@<TRIPOS>SUBSTRUCTURE
     1 RES1        1 GROUP             0 ****  ****    0  
     2 RES2       13 GROUP             0 ****  ****    0  
     3 RES3       82 GROUP             0 ****  ****    0  
@<TRIPOS>CRYSIN
   11.7255   12.4076   14.0167   83.2960   77.5440   89.3540     2     1
