@<TRIPOS>MOLECULE
OPEVIR22
    84    92     3     0     0
SMALL
USER_CHARGES
****
Generated from the CSD

@<TRIPOS>ATOM
     1 I1      14.5599  10.5020   8.4122   I         1 RES1   0.0000
     2 I2       9.6803  12.5383   5.3795   I         1 RES1   0.0000
     3 I3      12.5821   7.6833   3.4538   I         1 RES1   0.0000
     4 F1      12.0584  12.3005   7.5217   F         1 RES1   0.0000
     5 F2      14.2820   8.4629   6.0101   F         1 RES1   0.0000
     6 F3      10.4227   9.9355   3.8186   F         1 RES1   0.0000
     7 C1      11.1988  11.1409   5.6716   C.ar      1 RES1   0.0000
     8 C2      12.3582   9.1741   4.8790   C.ar      1 RES1   0.0000
     9 C3      13.1870  10.3668   6.8148   C.ar      1 RES1   0.0000
    10 C4      12.1497  11.2704   6.6531   C.ar      1 RES1   0.0000
    11 C5      13.2603   9.3418   5.8945   C.ar      1 RES1   0.0000
    12 C6      11.3298  10.1007   4.8029   C.ar      1 RES1   0.0000
    13 Fe1      6.2352   8.3626   2.8322   Fe        2 RES2   1.0000
    14 O1       5.0941   7.0185   3.4801   O.3       2 RES2   0.0000
    15 O2       4.9991   8.9927   1.5498   O.3       2 RES2   0.0000
    16 N1       5.6040   9.7663   4.1721   N.2       2 RES2   0.0000
    17 N2       7.1549   7.0390   1.5919   N.2       2 RES2   0.0000
    18 N3       7.7052   9.5710   2.0052   N.ar      2 RES2   0.0000
    19 O3       0.7544  12.5119   1.7510   O.3       2 RES2   0.0000
    20 N4       7.5636   8.0346   4.3991   N.ar      2 RES2   0.0000
    21 O4       4.1507   1.7981   2.0527   O.3       2 RES2   0.0000
    22 C7       4.5462  10.4945   4.0226   C.2       2 RES2   0.0000
    23 H1       4.3014  11.0301   4.7418   H         2 RES2   0.0000
    24 C8       8.3113   7.5383   0.9203   C.ar      2 RES2   0.0000
    25 C9       6.7488   5.8272   1.3689   C.2       2 RES2   0.0000
    26 H2       7.2021   5.3394   0.7202   H         2 RES2   0.0000
    27 C10      3.9828   9.8146   1.6925   C.ar      2 RES2   0.0000
    28 C11      8.5576   8.9111   1.1487   C.ar      2 RES2   0.0000
    29 C12      7.4089   8.8902   5.4527   C.ar      2 RES2   0.0000
    30 C13      4.8825   5.8027   3.0370   C.ar      2 RES2   0.0000
    31 C14      3.7182  10.5565   2.8602   C.ar      2 RES2   0.0000
    32 C15      6.3703   9.8603   5.3602   C.ar      2 RES2   0.0000
    33 C16      5.6682   5.1821   2.0364   C.ar      2 RES2   0.0000
    34 C17      9.6406   9.5615   0.5247   C.ar      2 RES2   0.0000
    35 C18      3.1067  10.0092   0.5927   C.ar      2 RES2   0.0000
    36 H3       3.2460   9.5303  -0.1917   H         2 RES2   0.0000
    37 C19      9.1788   6.8290   0.1251   C.ar      2 RES2   0.0000
    38 H4       9.0395   5.9208  -0.0199   H         2 RES2   0.0000
    39 C20      2.6336  11.4789   2.9051   C.ar      2 RES2   0.0000
    40 H5       2.4794  11.9765   3.6762   H         2 RES2   0.0000
    41 C21      8.5073   7.1079   4.4848   C.ar      2 RES2   0.0000
    42 H6       8.6202   6.5175   3.7744   H         2 RES2   0.0000
    43 C22      1.8168  11.6368   1.8148   C.ar      2 RES2   0.0000
    44 C23      8.2366   8.8381   6.6028   C.ar      2 RES2   0.0000
    45 C24      7.8942  10.8725   2.2077   C.ar      2 RES2   0.0000
    46 H7       7.3187  11.3254   2.7801   H         2 RES2   0.0000
    47 C25      5.4223   3.8357   1.6830   C.ar      2 RES2   0.0000
    48 H8       5.9378   3.4322   1.0229   H         2 RES2   0.0000
    49 C26     10.4991   8.8032  -0.2896   C.ar      2 RES2   0.0000
    50 H9      11.2244   9.2108  -0.7057   H         2 RES2   0.0000
    51 C27      7.0333  10.7022   7.5163   C.ar      2 RES2   0.0000
    52 H10      6.9120  11.3203   8.2013   H         2 RES2   0.0000
    53 C28     10.2740   7.4754  -0.4690   C.ar      2 RES2   0.0000
    54 H11     10.8590   6.9823  -0.9970   H         2 RES2   0.0000
    55 C29      6.2070  10.7508   6.3893   C.ar      2 RES2   0.0000
    56 H12      5.5383  11.3951   6.3368   H         2 RES2   0.0000
    57 C30      9.2178   7.8253   6.6354   C.ar      2 RES2   0.0000
    58 H13      9.7784   7.7423   7.3727   H         2 RES2   0.0000
    59 C31      9.3386   6.9831   5.5981   C.ar      2 RES2   0.0000
    60 H14      9.9804   6.3110   5.6227   H         2 RES2   0.0000
    61 C32      4.4325   3.1196   2.3056   C.ar      2 RES2   0.0000
    62 C33      9.7885  10.9452   0.7803   C.ar      2 RES2   0.0000
    63 H15     10.4845  11.4184   0.3841   H         2 RES2   0.0000
    64 C34      8.0030   9.7732   7.6251   C.ar      2 RES2   0.0000
    65 H16      8.5289   9.7498   8.3923   H         2 RES2   0.0000
    66 C35      8.9252  11.5794   1.5919   C.ar      2 RES2   0.0000
    67 H17      9.0171  12.4922   1.7447   H         2 RES2   0.0000
    68 C36      3.8390   5.0365   3.6011   C.ar      2 RES2   0.0000
    69 H18      3.2762   5.4320   4.2259   H         2 RES2   0.0000
    70 C37      2.0639  10.8844   0.6648   C.ar      2 RES2   0.0000
    71 H19      1.5039  10.9835  -0.0716   H         2 RES2   0.0000
    72 C38      3.6344   3.7457   3.2586   C.ar      2 RES2   0.0000
    73 H20      2.9497   3.2668   3.6675   H         2 RES2   0.0000
    74 C39      0.6770  13.5101   2.7624   C.3       2 RES2   0.0000
    75 H21     -0.0738  14.0834   2.5895   H         2 RES2   0.0000
    76 H22      1.4836  14.0311   2.7609   H         2 RES2   0.0000
    77 H23      0.5686  13.0911   3.6192   H         2 RES2   0.0000
    78 C40      5.0834   1.0806   1.2942   C.3       2 RES2   0.0000
    79 H24      5.1412   1.4616   0.4152   H         2 RES2   0.0000
    80 H25      4.8050   0.1645   1.2288   H         2 RES2   0.0000
    81 H26      5.9426   1.1249   1.7197   H         2 RES2   0.0000
    82 S1       9.9113  16.7369   2.6535   S.2       3 RES3  -1.0000
    83 C41      8.9479  15.4571   2.9241   C.1       3 RES3   0.0000
    84 N5       8.2476  14.5364   3.1009   N.1       3 RES3   0.0000
@<TRIPOS>BOND
     1     1     9    1
     2     2     7    1
     3     3     8    1
     4     4    10    1
     5     5    11    1
     6     6    12    1
     7     7    10   ar
     8     8    11   ar
     9     9    10   ar
    10    11     9   ar
    11    12     7   ar
    12     8    12   ar
    13    13    14    1
    14    14    30    1
    15    15    13    1
    16    16    13    1
    17    17    13    1
    18    18    13    1
    19    19    43    1
    20    20    13    1
    21    21    61    1
    22    22    16    2
    23    23    22    1
    24    24    17    1
    25    25    17    2
    26    26    25    1
    27    27    15    1
    28    28    18   ar
    29    29    20   ar
    30    30    33   ar
    31    31    22    1
    32    32    16    1
    33    33    25    1
    34    34    28   ar
    35    35    27   ar
    36    36    35    1
    37    37    24   ar
    38    38    37    1
    39    39    31   ar
    40    40    39    1
    41    41    20   ar
    42    42    41    1
    43    43    39   ar
    44    44    29   ar
    45    45    18   ar
    46    46    45    1
    47    47    33   ar
    48    48    47    1
    49    49    34   ar
    50    50    49    1
    51    51    52    1
    52    53    37   ar
    53    54    53    1
    54    55    32   ar
    55    56    55    1
    56    57    44   ar
    57    58    57    1
    58    59    41   ar
    59    60    59    1
    60    61    47   ar
    61    62    34   ar
    62    63    62    1
    63    64    44   ar
    64    65    64    1
    65    66    45   ar
    66    67    66    1
    67    68    30   ar
    68    69    68    1
    69    70    35   ar
    70    71    70    1
    71    72    61   ar
    72    73    72    1
    73    74    19    1
    74    75    74    1
    75    76    74    1
    76    77    74    1
    77    78    21    1
    78    79    78    1
    79    80    78    1
    80    81    78    1
    81    24    28   ar
    82    27    31   ar
    83    29    32   ar
    84    43    70   ar
    85    49    53   ar
    86    51    55   ar
    87    51    64   ar
    88    57    59   ar
    89    62    66   ar
    90    68    72   ar
    91    82    83    1
    92    83    84    3
@<TRIPOS>SUBSTRUCTURE
     1 RES1        1 GROUP             0 ****  ****    0  
     2 RES2       13 GROUP             0 ****  ****    0  
     3 RES3       82 GROUP             0 ****  ****    0  
@<TRIPOS>CRYSIN
   11.7141   12.6300   13.9981   83.1580   78.0450   89.7150     2     1
