@<TRIPOS>MOLECULE
OPEVIR02
    84    92     3     0     0
SMALL
USER_CHARGES
****
Generated from the CSD

@<TRIPOS>ATOM
     1 I1      14.7575  10.4676   8.3589   I         1 RES1   0.0000
     2 I2       9.8071  12.3976   5.3765   I         1 RES1   0.0000
     3 I3      12.7555   7.5554   3.4629   I         1 RES1   0.0000
     4 F1      12.2177  12.2235   7.4785   F         1 RES1   0.0000
     5 F2      14.4783   8.3879   5.9936   F         1 RES1   0.0000
     6 F3      10.5657   9.7892   3.8315   F         1 RES1   0.0000
     7 C1      12.5382   9.0602   4.8698   C.ar      1 RES1   0.0000
     8 C2      12.3160  11.1782   6.6356   C.ar      1 RES1   0.0000
     9 C3      11.3458  11.0293   5.6543   C.ar      1 RES1   0.0000
    10 C4      13.3693  10.2906   6.7849   C.ar      1 RES1   0.0000
    11 C5      13.4459   9.2569   5.8755   C.ar      1 RES1   0.0000
    12 C6      11.4847   9.9507   4.7938   C.ar      1 RES1   0.0000
    13 Fe1      6.4294   8.2555   2.8509   Fe        2 RES2   1.0000
    14 O1       5.2447   6.9968   3.5644   O.3       2 RES2   0.0000
    15 O2       5.2195   8.7835   1.5234   O.3       2 RES2   0.0000
    16 N1       7.2501   6.9770   1.6192   N.2       2 RES2   0.0000
    17 N2       5.7744   9.5814   4.1410   N.2       2 RES2   0.0000
    18 O3       0.8806  12.1852   1.6925   O.3       2 RES2   0.0000
    19 N3       7.7296   7.8832   4.3283   N.ar      2 RES2   0.0000
    20 N4       7.8106   9.4735   2.0562   N.ar      2 RES2   0.0000
    21 O4       4.1236   1.8220   2.0752   O.3       2 RES2   0.0000
    22 C7       4.6898  10.2754   4.0039   C.2       2 RES2   0.0000
    23 H1       4.4172  10.7997   4.7343   H         2 RES2   0.0000
    24 C8       7.5838   8.7186   5.4032   C.ar      2 RES2   0.0000
    25 C9       8.4054   7.4582   0.9487   C.ar      2 RES2   0.0000
    26 C10      6.8027   5.7862   1.3573   C.2       2 RES2   0.0000
    27 H2       7.2258   5.2985   0.6738   H         2 RES2   0.0000
    28 C11      4.9836   5.7975   3.0837   C.ar      2 RES2   0.0000
    29 C12      5.7107   5.1731   2.0372   C.ar      2 RES2   0.0000
    30 C13      8.6560   8.8289   1.1876   C.ar      2 RES2   0.0000
    31 C14      6.5425   9.6774   5.3367   C.ar      2 RES2   0.0000
    32 C15      3.8802  10.3094   2.8434   C.ar      2 RES2   0.0000
    33 C16      4.1805   9.5732   1.6667   C.ar      2 RES2   0.0000
    34 C17      1.9609  11.3372   1.7699   C.ar      2 RES2   0.0000
    35 C18      2.7683  11.1978   2.8719   C.ar      2 RES2   0.0000
    36 H3       2.5856  11.6922   3.6506   H         2 RES2   0.0000
    37 C19      8.6762   6.9588   4.3812   C.ar      2 RES2   0.0000
    38 H4       8.7861   6.3826   3.6464   H         2 RES2   0.0000
    39 C20      9.7386   9.4832   0.5592   C.ar      2 RES2   0.0000
    40 C21      8.4151   8.6496   6.5515   C.ar      2 RES2   0.0000
    41 C22      5.4236   3.8374   1.6694   C.ar      2 RES2   0.0000
    42 H5       5.9095   3.4296   0.9753   H         2 RES2   0.0000
    43 C23      9.2617   6.7493   0.1425   C.ar      2 RES2   0.0000
    44 H6       9.1138   5.8348  -0.0136   H         2 RES2   0.0000
    45 C24      4.4365   3.1289   2.3209   C.ar      2 RES2   0.0000
    46 C25      3.3094   9.7466   0.5687   C.ar      2 RES2   0.0000
    47 H7       3.4736   9.2690  -0.2250   H         2 RES2   0.0000
    48 C26     10.5926   8.7333  -0.2660   C.ar      2 RES2   0.0000
    49 H8      11.3217   9.1469  -0.6908   H         2 RES2   0.0000
    50 C27      3.9366   5.0622   3.6795   C.ar      2 RES2   0.0000
    51 H9       3.4053   5.4659   4.3410   H         2 RES2   0.0000
    52 C28      7.9924  10.7710   2.2761   C.ar      2 RES2   0.0000
    53 H10      7.4174  11.2183   2.8706   H         2 RES2   0.0000
    54 C29      7.2052  10.5037   7.4812   C.ar      2 RES2   0.0000
    55 H11      7.0807  11.1182   8.1818   H         2 RES2   0.0000
    56 C30      6.3707  10.5650   6.3614   C.ar      2 RES2   0.0000
    57 H12      5.6924  11.2142   6.3139   H         2 RES2   0.0000
    58 C31      9.5251   6.8060   5.4955   C.ar      2 RES2   0.0000
    59 H13     10.1765   6.1285   5.5018   H         2 RES2   0.0000
    60 C32      3.6821   3.7719   3.3076   C.ar      2 RES2   0.0000
    61 H14      2.9828   3.3045   3.7267   H         2 RES2   0.0000
    62 C33      9.4016   7.6377   6.5596   C.ar      2 RES2   0.0000
    63 H15      9.9716   7.5418   7.3009   H         2 RES2   0.0000
    64 C34      8.1906   9.5740   7.5816   C.ar      2 RES2   0.0000
    65 H16      8.7302   9.5513   8.3506   H         2 RES2   0.0000
    66 C35      9.8829  10.8694   0.8130   C.ar      2 RES2   0.0000
    67 H17     10.5760  11.3553   0.4040   H         2 RES2   0.0000
    68 C36      2.2387  10.5839   0.6257   C.ar      2 RES2   0.0000
    69 H18      1.6732  10.6590  -0.1216   H         2 RES2   0.0000
    70 C37     10.3586   7.3970  -0.4479   C.ar      2 RES2   0.0000
    71 H19     10.9482   6.8994  -0.9846   H         2 RES2   0.0000
    72 C38      9.0155  11.4924   1.6477   C.ar      2 RES2   0.0000
    73 H20      9.1021  12.4152   1.8063   H         2 RES2   0.0000
    74 C39      0.7721  13.1689   2.6996   C.3       2 RES2   0.0000
    75 H21      0.0130  13.7426   2.5099   H         2 RES2   0.0000
    76 H22      1.5824  13.7002   2.7206   H         2 RES2   0.0000
    77 H23      0.6444  12.7376   3.5589   H         2 RES2   0.0000
    78 C40      5.0458   1.0835   1.3016   C.3       2 RES2   0.0000
    79 H24      5.1076   1.4724   0.4154   H         2 RES2   0.0000
    80 H25      4.7453   0.1641   1.2316   H         2 RES2   0.0000
    81 H26      5.9172   1.1077   1.7270   H         2 RES2   0.0000
    82 S1      16.7280  10.1328  10.9185   S.2       3 RES3  -1.0000
    83 C41     17.8201  11.3133  10.6449   C.1       3 RES3   0.0000
    84 N5      18.6145  12.1455  10.4495   N.1       3 RES3   0.0000
@<TRIPOS>BOND
     1     1    10    1
     2     2     9    1
     3     3     7    1
     4     4     8    1
     5     5    11    1
     6     6    12    1
     7     7    11   ar
     8     8     9   ar
     9     9    12   ar
    10    10     8   ar
    11    11    10   ar
    12    12     7   ar
    13    13    14    1
    14    14    28    1
    15    15    13    1
    16    16    13    1
    17    17    13    1
    18    18    34    1
    19    19    13    1
    20    20    13    1
    21    21    45    1
    22    22    17    2
    23    23    22    1
    24    24    19   ar
    25    25    16    1
    26    26    16    2
    27    27    26    1
    28    28    29   ar
    29    29    26    1
    30    30    20   ar
    31    31    17    1
    32    32    22    1
    33    33    15    1
    34    34    35   ar
    35    35    32   ar
    36    36    35    1
    37    37    19   ar
    38    38    37    1
    39    39    30   ar
    40    40    24   ar
    41    41    29   ar
    42    42    41    1
    43    43    25   ar
    44    44    43    1
    45    45    41   ar
    46    46    33   ar
    47    47    46    1
    48    48    39   ar
    49    49    48    1
    50    50    28   ar
    51    51    50    1
    52    52    20   ar
    53    53    52    1
    54    54    55    1
    55    56    31   ar
    56    57    56    1
    57    58    37   ar
    58    59    58    1
    59    60    45   ar
    60    61    60    1
    61    62    40   ar
    62    63    62    1
    63    64    40   ar
    64    65    64    1
    65    66    39   ar
    66    67    66    1
    67    68    34   ar
    68    69    68    1
    69    70    43   ar
    70    71    70    1
    71    72    52   ar
    72    73    72    1
    73    74    18    1
    74    75    74    1
    75    76    74    1
    76    77    74    1
    77    78    21    1
    78    79    78    1
    79    80    78    1
    80    81    78    1
    81    24    31   ar
    82    25    30   ar
    83    32    33   ar
    84    46    68   ar
    85    48    70   ar
    86    50    60   ar
    87    54    56   ar
    88    54    64   ar
    89    58    62   ar
    90    66    72   ar
    91    82    83    1
    92    83    84    3
@<TRIPOS>SUBSTRUCTURE
     1 RES1        1 GROUP             0 ****  ****    0  
     2 RES2       13 GROUP             0 ****  ****    0  
     3 RES3       82 GROUP             0 ****  ****    0  
@<TRIPOS>CRYSIN
   11.8079   12.4299   14.0076   82.9720   77.5140   89.3900     2     1
