@<TRIPOS>MOLECULE
OPEVUD14
    90    97     4     0     0
SMALL
USER_CHARGES
****
Generated from the CSD

@<TRIPOS>ATOM
     1 I1      -2.3680   2.5585   8.8325   I         1 RES1   0.0000
     2 I2       2.3238   0.7278   5.4009   I         1 RES1   0.0000
     3 I3      -1.1860   5.1976   3.5181   I         1 RES1   0.0000
     4 F1      -2.5375   4.4535   6.2818   F         1 RES1   0.0000
     5 F2       1.0685   3.0182   3.6830   F         1 RES1   0.0000
     6 F3       0.1450   0.9044   7.7513   F         1 RES1   0.0000
     7 C1       0.6649   1.9287   5.6988   C.ar      1 RES1   0.0000
     8 C2      -1.2307   2.6651   7.0681   C.ar      1 RES1   0.0000
     9 C3      -0.7608   3.7672   4.9450   C.ar      1 RES1   0.0000
    10 C4       0.3247   2.8905   4.7826   C.ar      1 RES1   0.0000
    11 C5      -1.5010   3.6196   6.0968   C.ar      1 RES1   0.0000
    12 C6      -0.1395   1.8379   6.8436   C.ar      1 RES1   0.0000
    13 Fe1      5.4459   4.5559   2.9022   Fe        2 RES2   1.0000
    14 O1       6.7401   3.8844   1.6700   O.3       2 RES2   0.0000
    15 O2       6.4521   6.0339   3.5121   O.3       2 RES2   0.0000
    16 N1       4.4067   5.8629   1.6121   N.2       2 RES2   0.0000
    17 N2       3.9691   3.2931   2.0356   N.ar      2 RES2   0.0000
    18 O3      10.6569   0.0059   1.7194   O.3       2 RES2   0.0000
    19 N3       6.1393   3.1608   4.3168   N.2       2 RES2   0.0000
    20 N4       4.0818   4.8016   4.5455   N.ar      2 RES2   0.0000
    21 O4       7.2249  11.2384   1.9184   O.3       2 RES2   0.0000
    22 C7       4.3828   4.0629   5.6494   C.ar      2 RES2   0.0000
    23 C8       3.2921   5.2990   0.9401   C.ar      2 RES2   0.0000
    24 C9       3.0952   3.8992   1.1900   C.ar      2 RES2   0.0000
    25 C10      7.8538   2.1576   2.9037   C.ar      2 RES2   0.0000
    26 C11      7.1115   2.3136   4.0966   C.2       2 RES2   0.0000
    27 H1       7.3394   1.7516   4.8025   H         2 RES2   0.0000
    28 C12      7.6482   2.9358   1.7462   C.ar      2 RES2   0.0000
    29 C13      5.8118   7.8032   2.0215   C.ar      2 RES2   0.0000
    30 C14      6.6029   7.2600   3.0520   C.ar      2 RES2   0.0000
    31 C15      5.4852   3.1863   5.5731   C.ar      2 RES2   0.0000
    32 C16      4.7566   7.0955   1.3763   C.2       2 RES2   0.0000
    33 H2       4.2751   7.5539   0.7268   H         2 RES2   0.0000
    34 C17      8.8755   1.1659   2.9051   C.ar      2 RES2   0.0000
    35 H3       9.0192   0.6629   3.6733   H         2 RES2   0.0000
    36 C18      9.6482   0.9364   1.8041   C.ar      2 RES2   0.0000
    37 C19      2.0488   3.2071   0.5590   C.ar      2 RES2   0.0000
    38 C20      3.6242   4.1773   6.8662   C.ar      2 RES2   0.0000
    39 C21      2.4014   5.9530   0.1228   C.ar      2 RES2   0.0000
    40 H4       2.4986   6.8658  -0.0241   H         2 RES2   0.0000
    41 C22      7.5899   8.0808   3.6378   C.ar      2 RES2   0.0000
    42 H5       8.1315   7.7411   4.3128   H         2 RES2   0.0000
    43 C23      5.8358   2.4551   6.6926   C.ar      2 RES2   0.0000
    44 H6       6.5674   1.8822   6.6566   H         2 RES2   0.0000
    45 C24      1.1674   3.9210  -0.2696   C.ar      2 RES2   0.0000
    46 H7       0.4531   3.4798  -0.6700   H         2 RES2   0.0000
    47 C25      6.0061   9.1544   1.6121   C.ar      2 RES2   0.0000
    48 H8       5.4838   9.5107   0.9302   H         2 RES2   0.0000
    49 C26      3.8348   1.9813   2.2671   C.ar      2 RES2   0.0000
    50 H9       4.4283   1.5621   2.8476   H         2 RES2   0.0000
    51 C27      6.9639   9.9313   2.2177   C.ar      2 RES2   0.0000
    52 C28      3.0398   5.6199   4.5920   C.ar      2 RES2   0.0000
    53 H10      2.8211   6.1146   3.8357   H         2 RES2   0.0000
    54 C29      1.9353   1.8159   0.8258   C.ar      2 RES2   0.0000
    55 H11      1.2564   1.3168   0.4329   H         2 RES2   0.0000
    56 C30      8.4673   2.6544   0.6169   C.ar      2 RES2   0.0000
    57 H12      8.3437   3.1384  -0.1684   H         2 RES2   0.0000
    58 C31      7.7571   9.3809   3.2171   C.ar      2 RES2   0.0000
    59 H13      8.4173   9.9040   3.6115   H         2 RES2   0.0000
    60 C32      9.4288   1.6895   0.6621   C.ar      2 RES2   0.0000
    61 H14      9.9499   1.5324  -0.0912   H         2 RES2   0.0000
    62 C33      2.8243   1.2219   1.6558   C.ar      2 RES2   0.0000
    63 H15      2.7648   0.3084   1.8234   H         2 RES2   0.0000
    64 C34      2.5540   5.0557   6.8620   C.ar      2 RES2   0.0000
    65 H16      2.0372   5.1567   7.6293   H         2 RES2   0.0000
    66 C35      2.2531   5.7650   5.7524   C.ar      2 RES2   0.0000
    67 H17      1.5285   6.3484   5.7544   H         2 RES2   0.0000
    68 C36      5.0996   2.5694   7.8854   C.ar      2 RES2   0.0000
    69 H18      5.3592   2.0834   8.6349   H         2 RES2   0.0000
    70 C37      1.3472   5.2582  -0.4955   C.ar      2 RES2   0.0000
    71 H19      0.7670   5.7118  -1.0633   H         2 RES2   0.0000
    72 C38      4.0196   3.3776   7.9546   C.ar      2 RES2   0.0000
    73 H20      3.5244   3.4068   8.7411   H         2 RES2   0.0000
    74 C39      6.2671  11.9421   1.1378   C.3       2 RES2   0.0000
    75 H21      6.2014  11.5362   0.2708   H         2 RES2   0.0000
    76 H22      6.5418  12.8571   1.0435   H         2 RES2   0.0000
    77 H23      5.4124  11.9077   1.5735   H         2 RES2   0.0000
    78 C40     10.8711  -0.8195   2.8162   C.3       2 RES2   0.0000
    79 H24     11.5778  -1.4377   2.6173   H         2 RES2   0.0000
    80 H25     10.0666  -1.3044   3.0128   H         2 RES2   0.0000
    81 H26     11.1168  -0.2850   3.5746   H         2 RES2   0.0000
    82 S1       1.7806  -4.4043   2.6344   S.2       3 RES3  -1.0000
    83 C41      2.6711  -3.0618   2.9009   C.1       3 RES3   0.0000
    84 N5       3.2787  -2.1149   3.0534   N.1       3 RES3   0.0000
    85 O5       4.9658  -0.3158   4.3662   O.3       4 RES4   0.0000
    86 H27      4.6212  -0.8217   3.8211   H         4 RES4   0.0000
    87 C42      5.8750  -1.0015   5.1115   C.3       4 RES4   0.0000
    88 H28      5.8004  -1.9397   4.9231   H         4 RES4   0.0000
    89 H29      5.7043  -0.8483   6.0444   H         4 RES4   0.0000
    90 H30      6.7595  -0.7000   4.8946   H         4 RES4   0.0000
@<TRIPOS>BOND
     1     1     8    1
     2     2     7    1
     3     3     9    1
     4     4    11    1
     5     5    10    1
     6     6    12    1
     7     7    10   ar
     8     8    11   ar
     9     9    10   ar
    10    11     9   ar
    11    12     7   ar
    12     8    12   ar
    13    13    14    1
    14    14    28    1
    15    15    13    1
    16    16    13    1
    17    17    13    1
    18    18    36    1
    19    19    13    1
    20    20    13    1
    21    21    51    1
    22    22    20   ar
    23    23    16    1
    24    24    17   ar
    25    25    26    1
    26    26    19    2
    27    27    26    1
    28    28    25   ar
    29    29    30   ar
    30    30    15    1
    31    31    19    1
    32    32    16    2
    33    33    32    1
    34    34    25   ar
    35    35    34    1
    36    36    34   ar
    37    37    24   ar
    38    38    22   ar
    39    39    23   ar
    40    40    39    1
    41    41    30   ar
    42    42    41    1
    43    43    31   ar
    44    44    43    1
    45    45    37   ar
    46    46    45    1
    47    47    29   ar
    48    48    47    1
    49    49    17   ar
    50    50    49    1
    51    51    47   ar
    52    52    20   ar
    53    53    52    1
    54    54    37   ar
    55    55    54    1
    56    56    28   ar
    57    57    56    1
    58    58    41   ar
    59    59    58    1
    60    60    36   ar
    61    61    60    1
    62    62    49   ar
    63    63    62    1
    64    64    38   ar
    65    65    64    1
    66    66    52   ar
    67    67    66    1
    68    68    43   ar
    69    69    68    1
    70    70    39   ar
    71    71    70    1
    72    72    38   ar
    73    73    72    1
    74    74    21    1
    75    75    74    1
    76    76    74    1
    77    77    74    1
    78    78    18    1
    79    79    78    1
    80    80    78    1
    81    81    78    1
    82    22    31   ar
    83    23    24   ar
    84    29    32    1
    85    45    70   ar
    86    51    58   ar
    87    54    62   ar
    88    56    60   ar
    89    64    66   ar
    90    68    72   ar
    91    82    83    1
    92    83    84    3
    93    85    86    1
    94    87    85    1
    95    88    87    1
    96    89    87    1
    97    90    87    1
@<TRIPOS>SUBSTRUCTURE
     1 RES1        1 GROUP             0 ****  ****    0  
     2 RES2       13 GROUP             0 ****  ****    0  
     3 RES3       82 GROUP             0 ****  ****    0  
     4 RES4       85 GROUP             0 ****  ****    0  
@<TRIPOS>CRYSIN
   11.3865   13.0464   14.3998   95.7730   99.7240   90.5620     2     1
