@<TRIPOS>MOLECULE
OPEVUD31
    90    97     4     0     0
SMALL
USER_CHARGES
****
Generated from the CSD

@<TRIPOS>ATOM
     1 I1      -2.4911   2.3081   8.6809   I         1 RES1   0.0000
     2 I2       2.3452   0.5377   5.4173   I         1 RES1   0.0000
     3 I3      -1.0997   5.0330   3.4505   I         1 RES1   0.0000
     4 F1       1.1736   2.8854   3.7022   F         1 RES1   0.0000
     5 F2      -2.5852   4.2307   6.1572   F         1 RES1   0.0000
     6 F3       0.0466   0.6357   7.6634   F         1 RES1   0.0000
     7 C1      -0.7241   3.5851   4.8833   C.ar      1 RES1   0.0000
     8 C2       0.3765   2.7285   4.7509   C.ar      1 RES1   0.0000
     9 C3       0.6550   1.7384   5.6716   C.ar      1 RES1   0.0000
    10 C4      -1.3017   2.4288   6.9497   C.ar      1 RES1   0.0000
    11 C5      -0.2123   1.5919   6.7428   C.ar      1 RES1   0.0000
    12 C6      -1.5347   3.4082   5.9967   C.ar      1 RES1   0.0000
    13 Fe1      5.3778   4.3536   2.9526   Fe        2 RES2   1.0000
    14 O1       6.5928   3.8667   1.6005   O.3       2 RES2   0.0000
    15 O2       6.5085   5.6576   3.6656   O.3       2 RES2   0.0000
    16 O3       7.6293  10.7827   1.9229   O.3       2 RES2   0.0000
    17 O4      10.7661   0.2321   1.6174   O.3       2 RES2   0.0000
    18 N1       6.1146   3.1104   4.2653   N.2       2 RES2   0.0000
    19 N2       4.0744   3.0741   2.1777   N.ar      2 RES2   0.0000
    20 N3       4.5343   5.5788   1.6808   N.2       2 RES2   0.0000
    21 N4       4.0727   4.7152   4.4159   N.ar      2 RES2   0.0000
    22 C7       3.4102   5.0373   1.0121   C.ar      2 RES2   0.0000
    23 C8       3.2095   3.6528   1.2894   C.ar      2 RES2   0.0000
    24 C9       4.3297   3.9974   5.5632   C.ar      2 RES2   0.0000
    25 C10      5.4394   3.1112   5.5167   C.ar      2 RES2   0.0000
    26 C11      7.1569   2.3517   4.0809   C.2       2 RES2   0.0000
    27 H1       7.4522   1.8257   4.8152   H         2 RES2   0.0000
    28 C12      8.9620   1.3086   2.8646   C.ar      2 RES2   0.0000
    29 H2       9.1533   0.8099   3.6508   H         2 RES2   0.0000
    30 C13      7.5710   2.9838   1.7033   C.ar      2 RES2   0.0000
    31 C14      6.7656   6.8489   3.1363   C.ar      2 RES2   0.0000
    32 C15      7.8909   2.2512   2.8604   C.ar      2 RES2   0.0000
    33 C16      4.9919   6.7527   1.3725   C.2       2 RES2   0.0000
    34 H3       4.5815   7.2076   0.6467   H         2 RES2   0.0000
    35 C17      6.0621   7.4063   2.0383   C.ar      2 RES2   0.0000
    36 C18      9.7189   1.1233   1.7300   C.ar      2 RES2   0.0000
    37 C19      3.9623   1.7701   2.4269   C.ar      2 RES2   0.0000
    38 H4       4.5508   1.3650   3.0521   H         2 RES2   0.0000
    39 C20      2.5345   5.7043   0.1858   C.ar      2 RES2   0.0000
    40 H5       2.6361   6.6349   0.0252   H         2 RES2   0.0000
    41 C21      3.0451   5.5527   4.4201   C.ar      2 RES2   0.0000
    42 H6       2.8570   6.0503   3.6331   H         2 RES2   0.0000
    43 C22      7.3119   9.4778   2.2354   C.ar      2 RES2   0.0000
    44 C23      7.7783   7.6353   3.7402   C.ar      2 RES2   0.0000
    45 H7       8.2852   7.2784   4.4596   H         2 RES2   0.0000
    46 C24      6.3580   8.7324   1.5963   C.ar      2 RES2   0.0000
    47 H8       5.8905   9.0987   0.8555   H         2 RES2   0.0000
    48 C25      3.5539   4.1307   6.7301   C.ar      2 RES2   0.0000
    49 C26      9.4107   1.8598   0.5842   C.ar      2 RES2   0.0000
    50 H9       9.9320   1.7331  -0.2001   H         2 RES2   0.0000
    51 C27      8.3833   2.7568   0.5574   C.ar      2 RES2   0.0000
    52 H10      8.2067   3.2388  -0.2415   H         2 RES2   0.0000
    53 C28      8.0336   8.9130   3.2926   C.ar      2 RES2   0.0000
    54 H11      8.7166   9.4239   3.7128   H         2 RES2   0.0000
    55 C29      4.9733   2.5028   7.7915   C.ar      2 RES2   0.0000
    56 H12      5.1958   1.9849   8.5566   H         2 RES2   0.0000
    57 C30      5.7475   2.3737   6.6330   C.ar      2 RES2   0.0000
    58 H13      6.4861   1.7763   6.6196   H         2 RES2   0.0000
    59 C31      2.1735   2.9333   0.6560   C.ar      2 RES2   0.0000
    60 C32      1.4752   4.9786  -0.4223   C.ar      2 RES2   0.0000
    61 H14      0.8691   5.4371  -0.9924   H         2 RES2   0.0000
    62 C33      3.8988   3.3599   7.8535   C.ar      2 RES2   0.0000
    63 H15      3.3913   3.4298   8.6538   H         2 RES2   0.0000
    64 C34      6.6621  11.4923   1.1642   C.3       2 RES2   0.0000
    65 H16      6.6314  11.1298   0.2536   H         2 RES2   0.0000
    66 H17      6.9052  12.4409   1.1293   H         2 RES2   0.0000
    67 H18      5.7823  11.3952   1.5839   H         2 RES2   0.0000
    68 C35      1.3045   3.6406  -0.2112   C.ar      2 RES2   0.0000
    69 H19      0.5983   3.1810  -0.6494   H         2 RES2   0.0000
    70 C36      2.2219   5.7322   5.5505   C.ar      2 RES2   0.0000
    71 H20      1.4926   6.3399   5.5142   H         2 RES2   0.0000
    72 C37      2.9845   0.9754   1.7793   C.ar      2 RES2   0.0000
    73 H21      2.9493   0.0405   1.9469   H         2 RES2   0.0000
    74 C38      2.4692   5.0435   6.6823   C.ar      2 RES2   0.0000
    75 H22      1.9183   5.1680   7.4465   H         2 RES2   0.0000
    76 C39      2.0948   1.5415   0.9178   C.ar      2 RES2   0.0000
    77 H23      1.4276   1.0109   0.4986   H         2 RES2   0.0000
    78 C40     10.9924  -0.6291   2.7140   C.3       2 RES2   0.0000
    79 H24     11.6965  -1.2711   2.4857   H         2 RES2   0.0000
    80 H25     10.1660  -1.1125   2.9254   H         2 RES2   0.0000
    81 H26     11.2700  -0.1017   3.4915   H         2 RES2   0.0000
    82 S1       1.4935  -4.1650   2.6483   S.2       3 RES3  -1.0000
    83 C41      2.6395  -3.0587   2.8984   C.1       3 RES3   0.0000
    84 N5       3.4862  -2.2789   3.0462   N.1       3 RES3   0.0000
    85 O5       5.0167  -0.4648   4.4356   O.3       4 RES4   0.0000
    86 H27      4.4065  -0.5271   5.0092   H         4 RES4   0.0000
    87 C42      6.1929  -1.0075   4.9480   C.3       4 RES4   0.0000
    88 H28      6.9395  -0.7925   4.3514   H         4 RES4   0.0000
    89 H29      6.1005  -1.9805   5.0191   H         4 RES4   0.0000
    90 H30      6.3660  -0.6307   5.8367   H         4 RES4   0.0000
@<TRIPOS>BOND
     1     1    10    1
     2     2     9    1
     3     3     7    1
     4     4     8    1
     5     5    12    1
     6     6    11    1
     7     7     8   ar
     8     8     9   ar
     9     9    11   ar
    10    10    11   ar
    11    12     7   ar
    12    10    12   ar
    13    13    14    1
    14    14    30    1
    15    15    13    1
    16    16    43    1
    17    17    36    1
    18    18    13    1
    19    19    13    1
    20    20    13    1
    21    21    13    1
    22    22    20    1
    23    23    19   ar
    24    24    21   ar
    25    25    18    1
    26    26    18    2
    27    27    26    1
    28    28    29    1
    29    30    32   ar
    30    31    15    1
    31    32    26    1
    32    33    20    2
    33    34    33    1
    34    35    31   ar
    35    36    28   ar
    36    37    19   ar
    37    38    37    1
    38    39    22   ar
    39    40    39    1
    40    41    21   ar
    41    42    41    1
    42    43    46   ar
    43    44    31   ar
    44    45    44    1
    45    46    35   ar
    46    47    46    1
    47    48    24   ar
    48    49    36   ar
    49    50    49    1
    50    51    30   ar
    51    52    51    1
    52    53    43   ar
    53    54    53    1
    54    55    56    1
    55    57    25   ar
    56    58    57    1
    57    59    23   ar
    58    60    39   ar
    59    61    60    1
    60    62    48   ar
    61    63    62    1
    62    64    16    1
    63    65    64    1
    64    66    64    1
    65    67    64    1
    66    68    59   ar
    67    69    68    1
    68    70    41   ar
    69    71    70    1
    70    72    37   ar
    71    73    72    1
    72    74    48   ar
    73    75    74    1
    74    76    59   ar
    75    77    76    1
    76    78    17    1
    77    79    78    1
    78    80    78    1
    79    81    78    1
    80    22    23   ar
    81    24    25   ar
    82    28    32   ar
    83    33    35    1
    84    44    53   ar
    85    49    51   ar
    86    55    57   ar
    87    55    62   ar
    88    60    68   ar
    89    70    74   ar
    90    72    76   ar
    91    82    83    1
    92    83    84    3
    93    85    86    1
    94    87    85    1
    95    88    87    1
    96    89    87    1
    97    90    87    1
@<TRIPOS>SUBSTRUCTURE
     1 RES1        1 GROUP             0 ****  ****    0  
     2 RES2       13 GROUP             0 ****  ****    0  
     3 RES3       82 GROUP             0 ****  ****    0  
     4 RES4       85 GROUP             0 ****  ****    0  
@<TRIPOS>CRYSIN
   11.5610   12.5622   14.3951   95.3690  100.7770   90.0110     2     1
