@<TRIPOS>MOLECULE
OPEVIR20
    84    92     3     0     0
SMALL
USER_CHARGES
****
Generated from the CSD

@<TRIPOS>ATOM
     1 I1      14.4647  10.5013   8.4400   I         1 RES1   0.0000
     2 I2       9.6224  12.5994   5.3899   I         1 RES1   0.0000
     3 I3      12.4974   7.7396   3.4451   I         1 RES1   0.0000
     4 F1      11.9848  12.3262   7.5435   F         1 RES1   0.0000
     5 F2      14.1869   8.4870   6.0146   F         1 RES1   0.0000
     6 F3      10.3585  10.0063   3.8173   F         1 RES1   0.0000
     7 C1      12.2840   9.2304   4.8752   C.ar      1 RES1   0.0000
     8 C2      12.0801  11.3004   6.6736   C.ar      1 RES1   0.0000
     9 C3      13.1014  10.3912   6.8369   C.ar      1 RES1   0.0000
    10 C4      13.1781   9.3791   5.9003   C.ar      1 RES1   0.0000
    11 C5      11.1291  11.1938   5.6716   C.ar      1 RES1   0.0000
    12 C6      11.2578  10.1558   4.8057   C.ar      1 RES1   0.0000
    13 Fe1      6.1477   8.4115   2.8258   Fe        2 RES2   1.0000
    14 O1       5.0254   7.0271   3.4430   O.3       2 RES2   0.0000
    15 O2       4.8945   9.0916   1.5615   O.3       2 RES2   0.0000
    16 N1       7.1155   7.0708   1.5874   N.2       2 RES2   0.0000
    17 N2       5.5313   9.8539   4.1822   N.2       2 RES2   0.0000
    18 N3       7.6538   9.6058   1.9808   N.ar      2 RES2   0.0000
    19 O3       0.7029  12.6543   1.7725   O.3       2 RES2   0.0000
    20 N4       7.4838   8.0998   4.4395   N.ar      2 RES2   0.0000
    21 O4       4.1739   1.7834   2.0516   O.3       2 RES2   0.0000
    22 C7       8.2652   7.5781   0.9121   C.ar      2 RES2   0.0000
    23 C8       4.4698  10.5888   4.0297   C.2       2 RES2   0.0000
    24 H1       4.2229  11.1182   4.7525   H         2 RES2   0.0000
    25 C9       6.7323   5.8476   1.3777   C.2       2 RES2   0.0000
    26 H2       7.2055   5.3581   0.7439   H         2 RES2   0.0000
    27 C10      5.6485   5.1868   2.0353   C.ar      2 RES2   0.0000
    28 C11      7.3231   8.9671   5.4742   C.ar      2 RES2   0.0000
    29 C12      8.5093   8.9493   1.1354   C.ar      2 RES2   0.0000
    30 C13      3.8868   9.9312   1.7004   C.ar      2 RES2   0.0000
    31 C14      3.6458  10.6673   2.8725   C.ar      2 RES2   0.0000
    32 C15      4.8358   5.8001   3.0196   C.ar      2 RES2   0.0000
    33 C16      6.2928   9.9340   5.3789   C.ar      2 RES2   0.0000
    34 C17      2.5765  11.5966   2.9216   C.ar      2 RES2   0.0000
    35 H3       2.4262  12.0922   3.6943   H         2 RES2   0.0000
    36 C18      3.0154  10.1373   0.6113   C.ar      2 RES2   0.0000
    37 H4       3.1462   9.6559  -0.1734   H         2 RES2   0.0000
    38 C19      8.4226   7.1796   4.5212   C.ar      2 RES2   0.0000
    39 H5       8.5400   6.5918   3.8097   H         2 RES2   0.0000
    40 C20      9.5969   9.6079   0.5132   C.ar      2 RES2   0.0000
    41 C21      1.7611  11.7640   1.8270   C.ar      2 RES2   0.0000
    42 C22      9.1389   6.8702   0.1157   C.ar      2 RES2   0.0000
    43 H6       9.0024   5.9622  -0.0301   H         2 RES2   0.0000
    44 C23      7.8385  10.9103   2.1891   C.ar      2 RES2   0.0000
    45 H7       7.2592  11.3590   2.7612   H         2 RES2   0.0000
    46 C24      8.1469   8.9196   6.6354   C.ar      2 RES2   0.0000
    47 C25      6.1323  10.8255   6.4026   C.ar      2 RES2   0.0000
    48 H8       5.4673  11.4728   6.3422   H         2 RES2   0.0000
    49 C26      5.4281   3.8322   1.6840   C.ar      2 RES2   0.0000
    50 H9       5.9574   3.4351   1.0305   H         2 RES2   0.0000
    51 C27     10.4507   8.8440  -0.3050   C.ar      2 RES2   0.0000
    52 H10     11.1691   9.2520  -0.7317   H         2 RES2   0.0000
    53 C28      9.7387  10.9865   0.7556   C.ar      2 RES2   0.0000
    54 H11     10.4293  11.4596   0.3505   H         2 RES2   0.0000
    55 C29      1.9847  11.0287   0.6834   C.ar      2 RES2   0.0000
    56 H12      1.4247  11.1421  -0.0498   H         2 RES2   0.0000
    57 C30      6.9414  10.7870   7.5326   C.ar      2 RES2   0.0000
    58 H13      6.8118  11.4083   8.2122   H         2 RES2   0.0000
    59 C31     10.2321   7.5200  -0.4738   C.ar      2 RES2   0.0000
    60 H14     10.8234   7.0263  -0.9958   H         2 RES2   0.0000
    61 C32      3.8014   5.0277   3.5737   C.ar      2 RES2   0.0000
    62 H15      3.2267   5.4173   4.1917   H         2 RES2   0.0000
    63 C33      9.2558   7.0570   5.6498   C.ar      2 RES2   0.0000
    64 H16      9.8975   6.3847   5.6810   H         2 RES2   0.0000
    65 C34      4.4442   3.0985   2.2953   C.ar      2 RES2   0.0000
    66 C35      8.8758  11.6286   1.5765   C.ar      2 RES2   0.0000
    67 H17      8.9685  12.5399   1.7326   H         2 RES2   0.0000
    68 C36      9.1254   7.9104   6.6844   C.ar      2 RES2   0.0000
    69 H18      9.6789   7.8313   7.4275   H         2 RES2   0.0000
    70 C37      7.9124   9.8572   7.6510   C.ar      2 RES2   0.0000
    71 H19      8.4354   9.8387   8.4205   H         2 RES2   0.0000
    72 C38      3.6167   3.7288   3.2306   C.ar      2 RES2   0.0000
    73 H20      2.9269   3.2473   3.6261   H         2 RES2   0.0000
    74 C39      0.6195  13.6448   2.7841   C.3       2 RES2   0.0000
    75 H21     -0.1418  14.2064   2.6209   H         2 RES2   0.0000
    76 H22      1.4180  14.1789   2.7754   H         2 RES2   0.0000
    77 H23      0.5277  13.2218   3.6407   H         2 RES2   0.0000
    78 C40      5.1106   1.0668   1.2892   C.3       2 RES2   0.0000
    79 H24      5.1889   1.4660   0.4201   H         2 RES2   0.0000
    80 H25      4.8213   0.1563   1.1992   H         2 RES2   0.0000
    81 H26      5.9643   1.0889   1.7294   H         2 RES2   0.0000
    82 S1      16.4418  10.1742  10.9613   S.2       3 RES3  -1.0000
    83 C41     17.3576  11.5009  10.7087   C.1       3 RES3   0.0000
    84 N5      18.0155  12.4521  10.5140   N.1       3 RES3   0.0000
@<TRIPOS>BOND
     1     1     9    1
     2     2    11    1
     3     3     7    1
     4     4     8    1
     5     5    10    1
     6     6    12    1
     7     7    10   ar
     8     8     9   ar
     9     9    10   ar
    10    11     8   ar
    11    12     7   ar
    12    11    12   ar
    13    13    14    1
    14    14    32    1
    15    15    13    1
    16    16    13    1
    17    17    13    1
    18    18    13    1
    19    19    41    1
    20    20    13    1
    21    21    65    1
    22    22    16    1
    23    23    17    2
    24    24    23    1
    25    25    16    2
    26    26    25    1
    27    27    25    1
    28    28    20   ar
    29    29    18   ar
    30    30    15    1
    31    31    23    1
    32    32    27   ar
    33    33    17    1
    34    34    31   ar
    35    35    34    1
    36    36    30   ar
    37    37    36    1
    38    38    20   ar
    39    39    38    1
    40    40    29   ar
    41    41    34   ar
    42    42    22   ar
    43    43    42    1
    44    44    18   ar
    45    45    44    1
    46    46    28   ar
    47    47    33   ar
    48    48    47    1
    49    49    27   ar
    50    50    49    1
    51    51    40   ar
    52    52    51    1
    53    53    40   ar
    54    54    53    1
    55    55    36   ar
    56    56    55    1
    57    57    47   ar
    58    58    57    1
    59    59    42   ar
    60    60    59    1
    61    61    32   ar
    62    62    61    1
    63    63    38   ar
    64    64    63    1
    65    65    49   ar
    66    66    44   ar
    67    67    66    1
    68    68    46   ar
    69    69    68    1
    70    70    46   ar
    71    71    70    1
    72    72    61   ar
    73    73    72    1
    74    74    19    1
    75    75    74    1
    76    76    74    1
    77    77    74    1
    78    78    21    1
    79    79    78    1
    80    80    78    1
    81    81    78    1
    82    22    29   ar
    83    28    33   ar
    84    30    31   ar
    85    41    55   ar
    86    51    59   ar
    87    53    66   ar
    88    57    70   ar
    89    63    68   ar
    90    65    72   ar
    91    82    83    1
    92    83    84    3
@<TRIPOS>SUBSTRUCTURE
     1 RES1        1 GROUP             0 ****  ****    0  
     2 RES2       13 GROUP             0 ****  ****    0  
     3 RES3       82 GROUP             0 ****  ****    0  
@<TRIPOS>CRYSIN
   11.6729   12.7207   14.0001   83.3200   78.3170   89.8390     2     1
