@<TRIPOS>MOLECULE
OPEVUD20
    90    97     4     0     0
SMALL
USER_CHARGES
****
Generated from the CSD

@<TRIPOS>ATOM
     1 I1      11.1952   9.0159   5.2789   I         1 RES1   0.0000
     2 I2       6.5099  10.8509   8.7089   I         1 RES1   0.0000
     3 I3      10.0078   6.3786  10.5888   I         1 RES1   0.0000
     4 F1       7.7647   8.5529  10.4237   F         1 RES1   0.0000
     5 F2       8.6826  10.6706   6.3541   F         1 RES1   0.0000
     6 F3      11.3581   7.1271   7.8216   F         1 RES1   0.0000
     7 C1       8.1535   9.6392   8.4072   C.ar      1 RES1   0.0000
     8 C2       8.5110   8.6795   9.3245   C.ar      1 RES1   0.0000
     9 C3      10.0499   8.9092   7.0385   C.ar      1 RES1   0.0000
    10 C4       9.5935   7.8117   9.1622   C.ar      1 RES1   0.0000
    11 C5       8.9616   9.7366   7.2756   C.ar      1 RES1   0.0000
    12 C6      10.3225   7.9548   8.0178   C.ar      1 RES1   0.0000
    13 Fe1      3.3774   7.0190  11.2114   Fe        2 RES2   1.0000
    14 O1       2.0750   7.6961  12.4415   O.3       2 RES2   0.0000
    15 O2       2.3730   5.5356  10.6015   O.3       2 RES2   0.0000
    16 N1       4.4200   5.7105  12.4994   N.2       2 RES2   0.0000
    17 N2       2.6889   8.4126   9.7929   N.2       2 RES2   0.0000
    18 O3      -1.8306  11.5670  12.3865   O.3       2 RES2   0.0000
    19 N3       4.8526   8.2767  12.0803   N.ar      2 RES2   0.0000
    20 N4       4.7422   6.7775   9.5686   N.ar      2 RES2   0.0000
    21 O4       1.6067   0.3394  12.1988   O.3       2 RES2   0.0000
    22 C7       4.4466   7.5113   8.4651   C.ar      2 RES2   0.0000
    23 C8       5.5357   6.2732  13.1711   C.ar      2 RES2   0.0000
    24 C9       0.9633   9.4147  11.2054   C.ar      2 RES2   0.0000
    25 C10      4.0689   4.4831  12.7308   C.2       2 RES2   0.0000
    26 H1       4.5510   4.0241  13.3807   H         2 RES2   0.0000
    27 C11      3.0181   3.7713  12.0874   C.ar      2 RES2   0.0000
    28 C12      2.2200   4.3090  11.0629   C.ar      2 RES2   0.0000
    29 C13      1.7150   9.2665  10.0131   C.2       2 RES2   0.0000
    30 H2       1.4944   9.8346   9.3106   H         2 RES2   0.0000
    31 C14      3.3389   8.3965   8.5357   C.ar      2 RES2   0.0000
    32 C15      5.7296   7.6745  12.9227   C.ar      2 RES2   0.0000
    33 C16      1.1731   8.6462  12.3653   C.ar      2 RES2   0.0000
    34 C17      6.7813   8.3620  13.5492   C.ar      2 RES2   0.0000
    35 C18     -0.0506  10.4128  11.1941   C.ar      2 RES2   0.0000
    36 H3      -0.1875  10.9204  10.4270   H         2 RES2   0.0000
    37 C19      2.8235   2.4193  12.5008   C.ar      2 RES2   0.0000
    38 H4       3.3510   2.0608  13.1773   H         2 RES2   0.0000
    39 C20     -0.8298  10.6373  12.3047   C.ar      2 RES2   0.0000
    40 C21      5.1994   7.3949   7.2445   C.ar      2 RES2   0.0000
    41 C22      1.8571   1.6443  11.8997   C.ar      2 RES2   0.0000
    42 C23      7.6534   7.6519  14.3874   C.ar      2 RES2   0.0000
    43 H5       8.3583   8.0965  14.8006   H         2 RES2   0.0000
    44 C24      1.2363   3.4905  10.4787   C.ar      2 RES2   0.0000
    45 H6       0.7001   3.8292   9.7993   H         2 RES2   0.0000
    46 C25      2.9939   9.1223   7.4223   C.ar      2 RES2   0.0000
    47 H7       2.2642   9.6976   7.4566   H         2 RES2   0.0000
    48 C26      6.4245   5.6149  13.9881   C.ar      2 RES2   0.0000
    49 H8       6.3299   4.7024  14.1367   H         2 RES2   0.0000
    50 C27      1.0606   2.2057  10.8978   C.ar      2 RES2   0.0000
    51 H9       0.3936   1.6891  10.5077   H         2 RES2   0.0000
    52 C28      4.9970   9.5864  11.8475   C.ar      2 RES2   0.0000
    53 H10      4.4125  10.0049  11.2576   H         2 RES2   0.0000
    54 C29      0.3613   8.9215  13.4900   C.ar      2 RES2   0.0000
    55 H11      0.4838   8.4320  14.2710   H         2 RES2   0.0000
    56 C30      6.8858   9.7506  13.2727   C.ar      2 RES2   0.0000
    57 H12      7.5713  10.2497  13.6541   H         2 RES2   0.0000
    58 C31      5.7742   5.9516   9.5178   C.ar      2 RES2   0.0000
    59 H13      5.9825   5.4480  10.2713   H         2 RES2   0.0000
    60 C32     -0.5931   9.8857  13.4533   C.ar      2 RES2   0.0000
    61 H14     -1.1016  10.0498  14.2140   H         2 RES2   0.0000
    62 C33      7.4805   6.3259  14.6019   C.ar      2 RES2   0.0000
    63 H15      8.0683   5.8734  15.1633   H         2 RES2   0.0000
    64 C34      6.2765   6.5264   7.2516   C.ar      2 RES2   0.0000
    65 H16      6.8006   6.4368   6.4887   H         2 RES2   0.0000
    66 C35      5.9912  10.3432  12.4599   C.ar      2 RES2   0.0000
    67 H17      6.0387  11.2598  12.3067   H         2 RES2   0.0000
    68 C36      3.7327   9.0055   6.2299   C.ar      2 RES2   0.0000
    69 H18      3.4748   9.4951   5.4818   H         2 RES2   0.0000
    70 C37      6.5741   5.8069   8.3550   C.ar      2 RES2   0.0000
    71 H19      7.2966   5.2225   8.3525   H         2 RES2   0.0000
    72 C38      4.7982   8.2016   6.1552   C.ar      2 RES2   0.0000
    73 H20      5.2890   8.1734   5.3659   H         2 RES2   0.0000
    74 C39      2.5701  -0.3687  12.9566   C.3       2 RES2   0.0000
    75 H21      3.4108  -0.3589  12.4948   H         2 RES2   0.0000
    76 H22      2.2796  -1.2756  13.0759   H         2 RES2   0.0000
    77 H23      2.6712   0.0501  13.8152   H         2 RES2   0.0000
    78 C40     -2.0434  12.3951  11.2929   C.3       2 RES2   0.0000
    79 H24     -2.3273  11.8674  10.5424   H         2 RES2   0.0000
    80 H25     -1.2271  12.8505  11.0722   H         2 RES2   0.0000
    81 H26     -2.7217  13.0395  11.5059   H         2 RES2   0.0000
    82 S1       7.0376  15.9788  11.4799   S.2       3 RES3  -1.0000
    83 C41      6.1494  14.6418  11.2097   C.1       3 RES3   0.0000
    84 N5       5.5449  13.6819  11.0544   N.1       3 RES3   0.0000
    85 O5       3.8567  11.8993   9.7435   O.3       4 RES4   0.0000
    86 H27      4.1991  12.4081  10.2889   H         4 RES4   0.0000
    87 C42      2.9247  12.5789   9.0098   C.3       4 RES4   0.0000
    88 H28      2.9345  12.2581   8.1050   H         4 RES4   0.0000
    89 H29      3.1304  13.5162   9.0195   H         4 RES4   0.0000
    90 H30      2.0539  12.4383   9.3894   H         4 RES4   0.0000
@<TRIPOS>BOND
     1     1     9    1
     2     2     7    1
     3     3    10    1
     4     4     8    1
     5     5    11    1
     6     6    12    1
     7     7     8   ar
     8     8    10   ar
     9     9    11   ar
    10    10    12   ar
    11    11     7   ar
    12    12     9   ar
    13    13    14    1
    14    14    33    1
    15    15    13    1
    16    16    13    1
    17    17    13    1
    18    18    39    1
    19    19    13    1
    20    20    13    1
    21    21    41    1
    22    22    20   ar
    23    23    16    1
    24    24    29    1
    25    25    16    2
    26    26    25    1
    27    27    25    1
    28    28    15    1
    29    29    17    2
    30    30    29    1
    31    31    17    1
    32    32    19   ar
    33    33    24   ar
    34    34    32   ar
    35    35    24   ar
    36    36    35    1
    37    37    27   ar
    38    38    37    1
    39    39    35   ar
    40    40    22   ar
    41    41    37   ar
    42    42    34   ar
    43    43    42    1
    44    44    28   ar
    45    45    44    1
    46    46    31   ar
    47    47    46    1
    48    48    23   ar
    49    49    48    1
    50    50    41   ar
    51    51    50    1
    52    52    19   ar
    53    53    52    1
    54    54    33   ar
    55    55    54    1
    56    56    34   ar
    57    57    56    1
    58    58    20   ar
    59    59    58    1
    60    60    39   ar
    61    61    60    1
    62    62    42   ar
    63    63    62    1
    64    64    40   ar
    65    65    64    1
    66    66    52   ar
    67    67    66    1
    68    68    46   ar
    69    69    68    1
    70    70    58   ar
    71    71    70    1
    72    72    40   ar
    73    73    72    1
    74    74    21    1
    75    75    74    1
    76    76    74    1
    77    77    74    1
    78    78    18    1
    79    79    78    1
    80    80    78    1
    81    81    78    1
    82    22    31   ar
    83    23    32   ar
    84    27    28   ar
    85    44    50   ar
    86    48    62   ar
    87    54    60   ar
    88    56    66   ar
    89    64    70   ar
    90    68    72   ar
    91    82    83    1
    92    83    84    3
    93    85    86    1
    94    87    85    1
    95    88    87    1
    96    89    87    1
    97    90    87    1
@<TRIPOS>SUBSTRUCTURE
     1 RES1        1 GROUP             0 ****  ****    0  
     2 RES2       13 GROUP             0 ****  ****    0  
     3 RES3       82 GROUP             0 ****  ****    0  
     4 RES4       85 GROUP             0 ****  ****    0  
@<TRIPOS>CRYSIN
   11.3891   13.0500   14.3948   95.7800   99.7310   90.5840     2     1
