@<TRIPOS>MOLECULE
OPEVUD18
    90    97     4     0     0
SMALL
USER_CHARGES
****
Generated from the CSD

@<TRIPOS>ATOM
     1 I1      -2.3706   2.5662   8.8391   I         1 RES1   0.0000
     2 I2       2.3133   0.7272   5.4053   I         1 RES1   0.0000
     3 I3      -1.1874   5.2007   3.5251   I         1 RES1   0.0000
     4 F1       1.0545   3.0222   3.6852   F         1 RES1   0.0000
     5 F2      -2.5338   4.4544   6.2960   F         1 RES1   0.0000
     6 F3       0.1436   0.9052   7.7644   F         1 RES1   0.0000
     7 C1       0.6576   1.9374   5.7072   C.ar      1 RES1   0.0000
     8 C2       0.3167   2.8954   4.7880   C.ar      1 RES1   0.0000
     9 C3      -0.7663   3.7780   4.9546   C.ar      1 RES1   0.0000
    10 C4      -1.2250   2.6774   7.0782   C.ar      1 RES1   0.0000
    11 C5      -0.1463   1.8459   6.8480   C.ar      1 RES1   0.0000
    12 C6      -1.4978   3.6250   6.1082   C.ar      1 RES1   0.0000
    13 Fe1      5.4488   4.5611   2.9010   Fe        2 RES2   1.0000
    14 O1       6.7499   3.8840   1.6718   O.3       2 RES2   0.0000
    15 O2       6.4530   6.0464   3.5059   O.3       2 RES2   0.0000
    16 N1       6.1426   3.1615   4.3150   N.2       2 RES2   0.0000
    17 N2       4.4067   5.8690   1.6125   N.2       2 RES2   0.0000
    18 O3      10.6548   0.0083   1.7240   O.3       2 RES2   0.0000
    19 N3       3.9656   3.2991   2.0318   N.ar      2 RES2   0.0000
    20 O4       7.2165  11.2451   1.9146   O.3       2 RES2   0.0000
    21 N4       4.0845   4.8055   4.5451   N.ar      2 RES2   0.0000
    22 C7       4.3816   4.0711   5.6507   C.ar      2 RES2   0.0000
    23 C8       7.8626   2.1552   2.9058   C.ar      2 RES2   0.0000
    24 C9       3.2945   5.3133   0.9418   C.ar      2 RES2   0.0000
    25 C10      7.1026   2.3127   4.1004   C.2       2 RES2   0.0000
    26 H1       7.3167   1.7439   4.8046   H         2 RES2   0.0000
    27 C11      5.8098   7.8165   2.0262   C.ar      2 RES2   0.0000
    28 C12      7.6487   2.9287   1.7508   C.ar      2 RES2   0.0000
    29 C13      5.4862   3.1905   5.5773   C.ar      2 RES2   0.0000
    30 C14      3.0948   3.9104   1.1931   C.ar      2 RES2   0.0000
    31 C15      6.5994   7.2711   3.0470   C.ar      2 RES2   0.0000
    32 C16      4.7535   7.0991   1.3781   C.2       2 RES2   0.0000
    33 H2       4.2708   7.5566   0.7280   H         2 RES2   0.0000
    34 C17      9.6464   0.9396   1.8116   C.ar      2 RES2   0.0000
    35 C18      8.8724   1.1710   2.9115   C.ar      2 RES2   0.0000
    36 H3       9.0127   0.6684   3.6818   H         2 RES2   0.0000
    37 C19      2.0413   3.2148   0.5606   C.ar      2 RES2   0.0000
    38 C20      6.0002   9.1663   1.6082   C.ar      2 RES2   0.0000
    39 H4       5.4768   9.5211   0.9265   H         2 RES2   0.0000
    40 C21      3.6276   4.1833   6.8664   C.ar      2 RES2   0.0000
    41 C22      5.8406   2.4588   6.6941   C.ar      2 RES2   0.0000
    42 H5       6.5721   1.8855   6.6575   H         2 RES2   0.0000
    43 C23      7.5870   8.0892   3.6316   C.ar      2 RES2   0.0000
    44 H6       8.1247   7.7491   4.3101   H         2 RES2   0.0000
    45 C24      2.4049   5.9563   0.1243   C.ar      2 RES2   0.0000
    46 H7       2.5033   6.8682  -0.0283   H         2 RES2   0.0000
    47 C25      1.1635   3.9325  -0.2711   C.ar      2 RES2   0.0000
    48 H8       0.4520   3.4919  -0.6776   H         2 RES2   0.0000
    49 C26      8.4650   2.6587   0.6199   C.ar      2 RES2   0.0000
    50 H9       8.3429   3.1473  -0.1623   H         2 RES2   0.0000
    51 C27      6.9559   9.9376   2.2154   C.ar      2 RES2   0.0000
    52 C28      3.8303   1.9887   2.2606   C.ar      2 RES2   0.0000
    53 H10      4.4246   1.5671   2.8382   H         2 RES2   0.0000
    54 C29      7.7605   9.3820   3.2094   C.ar      2 RES2   0.0000
    55 H11      8.4303   9.8994   3.5953   H         2 RES2   0.0000
    56 C30      9.4255   1.6886   0.6664   C.ar      2 RES2   0.0000
    57 H12      9.9441   1.5273  -0.0882   H         2 RES2   0.0000
    58 C31      3.0447   5.6256   4.5974   C.ar      2 RES2   0.0000
    59 H13      2.8293   6.1249   3.8422   H         2 RES2   0.0000
    60 C32      1.9361   1.8335   0.8302   C.ar      2 RES2   0.0000
    61 H14      1.2565   1.3346   0.4385   H         2 RES2   0.0000
    62 C33      2.5505   5.0577   6.8607   C.ar      2 RES2   0.0000
    63 H15      2.0305   5.1528   7.6264   H         2 RES2   0.0000
    64 C34      2.8225   1.2326   1.6576   C.ar      2 RES2   0.0000
    65 H16      2.7612   0.3201   1.8234   H         2 RES2   0.0000
    66 C35      5.1054   2.5749   7.8858   C.ar      2 RES2   0.0000
    67 H17      5.3682   2.0896   8.6346   H         2 RES2   0.0000
    68 C36      1.3445   5.2653  -0.4885   C.ar      2 RES2   0.0000
    69 H18      0.7592   5.7236  -1.0474   H         2 RES2   0.0000
    70 C37      2.2517   5.7696   5.7594   C.ar      2 RES2   0.0000
    71 H19      1.5280   6.3535   5.7626   H         2 RES2   0.0000
    72 C38      4.0208   3.3821   7.9607   C.ar      2 RES2   0.0000
    73 H20      3.5261   3.4105   8.7483   H         2 RES2   0.0000
    74 C39      6.2531  11.9564   1.1437   C.3       2 RES2   0.0000
    75 H21      6.1474  11.5289   0.2906   H         2 RES2   0.0000
    76 H22      6.5515  12.8601   1.0132   H         2 RES2   0.0000
    77 H23      5.4124  11.9610   1.6061   H         2 RES2   0.0000
    78 C40     10.8665  -0.8201   2.8155   C.3       2 RES2   0.0000
    79 H24     11.5494  -1.4609   2.6041   H         2 RES2   0.0000
    80 H25     10.0521  -1.2799   3.0318   H         2 RES2   0.0000
    81 H26     11.1454  -0.2927   3.5683   H         2 RES2   0.0000
    82 S1       1.7908  -4.4042   2.6323   S.2       3 RES3  -1.0000
    83 C41      2.6736  -3.0568   2.9087   C.1       3 RES3   0.0000
    84 N5       3.2780  -2.1112   3.0597   N.1       3 RES3   0.0000
    85 O5       4.9688  -0.3183   4.3545   O.3       4 RES4   0.0000
    86 H27      4.5455  -0.8465   3.8918   H         4 RES4   0.0000
    87 C42      5.8837  -1.0083   5.1212   C.3       4 RES4   0.0000
    88 H28      6.7728  -0.7976   4.8254   H         4 RES4   0.0000
    89 H29      5.7320  -1.9522   5.0283   H         4 RES4   0.0000
    90 H30      5.7850  -0.7576   6.0421   H         4 RES4   0.0000
@<TRIPOS>BOND
     1     1    10    1
     2     2     7    1
     3     3     9    1
     4     4     8    1
     5     5    12    1
     6     6    11    1
     7     7     8   ar
     8     8     9   ar
     9     9    12   ar
    10    10    11   ar
    11    11     7   ar
    12    12    10   ar
    13    13    14    1
    14    14    28    1
    15    15    13    1
    16    16    13    1
    17    17    13    1
    18    18    34    1
    19    19    13    1
    20    20    51    1
    21    21    13    1
    22    22    21   ar
    23    23    25    1
    24    24    17    1
    25    25    16    2
    26    26    25    1
    27    27    31   ar
    28    28    23   ar
    29    29    16    1
    30    30    19   ar
    31    31    15    1
    32    32    17    2
    33    33    32    1
    34    34    35   ar
    35    35    23   ar
    36    36    35    1
    37    37    30   ar
    38    38    27   ar
    39    39    38    1
    40    40    22   ar
    41    41    29   ar
    42    42    41    1
    43    43    31   ar
    44    44    43    1
    45    45    24   ar
    46    46    45    1
    47    47    37   ar
    48    48    47    1
    49    49    28   ar
    50    50    49    1
    51    51    38   ar
    52    52    19   ar
    53    53    52    1
    54    54    43   ar
    55    55    54    1
    56    56    34   ar
    57    57    56    1
    58    58    21   ar
    59    59    58    1
    60    60    37   ar
    61    61    60    1
    62    62    40   ar
    63    63    62    1
    64    64    52   ar
    65    65    64    1
    66    66    41   ar
    67    67    66    1
    68    68    45   ar
    69    69    68    1
    70    70    58   ar
    71    71    70    1
    72    72    40   ar
    73    73    72    1
    74    74    20    1
    75    75    74    1
    76    76    74    1
    77    77    74    1
    78    78    18    1
    79    79    78    1
    80    80    78    1
    81    81    78    1
    82    22    29   ar
    83    24    30   ar
    84    27    32    1
    85    47    68   ar
    86    49    56   ar
    87    51    54   ar
    88    60    64   ar
    89    62    70   ar
    90    66    72   ar
    91    82    83    1
    92    83    84    3
    93    85    86    1
    94    87    85    1
    95    88    87    1
    96    89    87    1
    97    90    87    1
@<TRIPOS>SUBSTRUCTURE
     1 RES1        1 GROUP             0 ****  ****    0  
     2 RES2       13 GROUP             0 ****  ****    0  
     3 RES3       82 GROUP             0 ****  ****    0  
     4 RES4       85 GROUP             0 ****  ****    0  
@<TRIPOS>CRYSIN
   11.3955   13.0626   14.4026   95.7670   99.7100   90.6000     2     1
