@<TRIPOS>MOLECULE
OPEVIR27
    84    92     3     0     0
SMALL
USER_CHARGES
****
Generated from the CSD

@<TRIPOS>ATOM
     1 I1       0.2581   3.5844   5.2188   I         1 RES1   0.0000
     2 I2       5.2597   1.7364   8.1894   I         1 RES1   0.0000
     3 I3       2.2839   6.5917  10.0525   I         1 RES1   0.0000
     4 F1       2.8260   1.8629   6.0989   F         1 RES1   0.0000
     5 F2       0.5523   5.7116   7.5454   F         1 RES1   0.0000
     6 F3       4.4957   4.3731   9.6966   F         1 RES1   0.0000
     7 C1       2.5165   5.0646   8.6642   C.ar      1 RES1   0.0000
     8 C2       3.7095   3.1012   7.8967   C.ar      1 RES1   0.0000
     9 C3       2.7260   2.9188   6.9238   C.ar      1 RES1   0.0000
    10 C4       1.5826   4.8482   7.6670   C.ar      1 RES1   0.0000
    11 C5       3.5679   4.1762   8.7453   C.ar      1 RES1   0.0000
    12 C6       1.6600   3.7854   6.7698   C.ar      1 RES1   0.0000
    13 Fe1      8.6100   5.8724  10.6687   Fe        2 RES2   1.0000
    14 O1       9.8145   7.1084   9.9303   O.3       2 RES2   0.0000
    15 O2       9.8249   5.3798  12.0115   O.3       2 RES2   0.0000
    16 O3      14.2057   2.0161  11.8288   O.3       2 RES2   0.0000
    17 O4      10.9956  12.2769  11.4383   O.3       2 RES2   0.0000
    18 N1       9.2680   4.5681   9.3925   N.2       2 RES2   0.0000
    19 N2       7.3080   6.2544   9.2182   N.ar      2 RES2   0.0000
    20 N3       7.8220   7.1395  11.8991   N.2       2 RES2   0.0000
    21 N4       7.2471   4.6570  11.4559   N.ar      2 RES2   0.0000
    22 C7      10.3608   3.8810   9.5236   C.2       2 RES2   0.0000
    23 H1      10.6339   3.3506   8.7839   H         2 RES2   0.0000
    24 C8       7.4408   5.4120   8.1467   C.ar      2 RES2   0.0000
    25 C9      11.7534   4.4390  12.9558   C.ar      2 RES2   0.0000
    26 H2      11.5836   4.9222  13.7562   H         2 RES2   0.0000
    27 C10     12.3031   2.9889  10.6546   C.ar      2 RES2   0.0000
    28 H3      12.4921   2.4934   9.8660   H         2 RES2   0.0000
    29 C11      8.4907   4.4677   8.2142   C.ar      2 RES2   0.0000
    30 C12      8.3011   8.3267  12.1653   C.2       2 RES2   0.0000
    31 H4       7.8927   8.8197  12.8667   H         2 RES2   0.0000
    32 C13      6.4092   5.2985  12.3274   C.ar      2 RES2   0.0000
    33 C14     10.8763   4.5993  11.8586   C.ar      2 RES2   0.0000
    34 C15     11.1848   3.8560  10.6857   C.ar      2 RES2   0.0000
    35 C16      9.3907   8.9345  11.4775   C.ar      2 RES2   0.0000
    36 C17      6.6609   6.6672  12.5666   C.ar      2 RES2   0.0000
    37 C18      9.6989  10.2559  11.8572   C.ar      2 RES2   0.0000
    38 H5       9.2317  10.6603  12.5788   H         2 RES2   0.0000
    39 C19      5.3263   4.6392  12.9598   C.ar      2 RES2   0.0000
    40 C20     13.1176   2.8543  11.7505   C.ar      2 RES2   0.0000
    41 C21     10.6741  10.9651  11.1910   C.ar      2 RES2   0.0000
    42 C22      8.6514   3.5581   7.1859   C.ar      2 RES2   0.0000
    43 H6       9.3301   2.8948   7.2358   H         2 RES2   0.0000
    44 C23     12.8356   3.6105  12.8990   C.ar      2 RES2   0.0000
    45 H7      13.4100   3.5436  13.6527   H         2 RES2   0.0000
    46 C24     11.1416   9.0367   9.8155   C.ar      2 RES2   0.0000
    47 H8      11.6630   8.6287   9.1337   H         2 RES2   0.0000
    48 C25     10.0944   8.2946  10.4276   C.ar      2 RES2   0.0000
    49 C26      7.8091   3.6187   6.0712   C.ar      2 RES2   0.0000
    50 H9       7.9277   2.9932   5.3656   H         2 RES2   0.0000
    51 C27      4.4671   5.3997  13.7882   C.ar      2 RES2   0.0000
    52 H10      3.7248   4.9867  14.2135   H         2 RES2   0.0000
    53 C28      6.3732   7.1882   9.1736   C.ar      2 RES2   0.0000
    54 H11      6.2791   7.7786   9.9125   H         2 RES2   0.0000
    55 C29      7.0647   3.3662  11.2465   C.ar      2 RES2   0.0000
    56 H12      7.6475   2.9170  10.6455   H         2 RES2   0.0000
    57 C30      5.5076   7.3385   8.0656   C.ar      2 RES2   0.0000
    58 H13      4.8477   8.0216   8.0690   H         2 RES2   0.0000
    59 C31      6.6046   5.4817   7.0062   C.ar      2 RES2   0.0000
    60 C32      5.8018   7.3889  13.3720   C.ar      2 RES2   0.0000
    61 H14      5.9467   8.3157  13.5200   H         2 RES2   0.0000
    62 C33     11.4116  10.3199  10.1857   C.ar      2 RES2   0.0000
    63 H15     12.1151  10.7893   9.7533   H         2 RES2   0.0000
    64 C34      6.0538   2.6338  11.8667   C.ar      2 RES2   0.0000
    65 H16      5.9720   1.7018  11.6981   H         2 RES2   0.0000
    66 C35      4.7113   6.7326  13.9706   C.ar      2 RES2   0.0000
    67 H17      4.1223   7.2340  14.5217   H         2 RES2   0.0000
    68 C36      6.8189   4.5575   5.9698   C.ar      2 RES2   0.0000
    69 H18      6.2722   4.5843   5.1940   H         2 RES2   0.0000
    70 C37      5.1854   3.2482  12.7099   C.ar      2 RES2   0.0000
    71 H19      4.4914   2.7532  13.1298   H         2 RES2   0.0000
    72 C38      5.6154   6.5058   6.9927   C.ar      2 RES2   0.0000
    73 H20      5.0386   6.6079   6.2454   H         2 RES2   0.0000
    74 C39     10.0745  13.0190  12.2302   C.3       2 RES2   0.0000
    75 H21      9.1840  12.9727  11.8254   H         2 RES2   0.0000
    76 H22     10.3643  13.9541  12.2778   H         2 RES2   0.0000
    77 H23     10.0428  12.6412  13.1344   H         2 RES2   0.0000
    78 C40     14.2948   1.0128  10.8289   C.3       2 RES2   0.0000
    79 H24     14.4271   1.4344   9.9545   H         2 RES2   0.0000
    80 H25     13.4675   0.4886  10.8180   H         2 RES2   0.0000
    81 H26     15.0530   0.4233  11.0254   H         2 RES2   0.0000
    82 S1      -1.7312   3.9142   2.6630   S.2       3 RES3  -1.0000
    83 N5      -3.7200   1.9634   3.1065   N.1       3 RES3   0.0000
    84 C41     -2.8963   2.7698   2.9255   C.1       3 RES3   0.0000
@<TRIPOS>BOND
     1     1    12    1
     2     2     8    1
     3     3     7    1
     4     4     9    1
     5     5    10    1
     6     6    11    1
     7     7    10   ar
     8     8     9   ar
     9     9    12   ar
    10    10    12   ar
    11    11     7   ar
    12     8    11   ar
    13    13    14    1
    14    14    48    1
    15    15    13    1
    16    16    40    1
    17    17    41    1
    18    18    13    1
    19    19    13    1
    20    20    13    1
    21    21    13    1
    22    22    18    2
    23    23    22    1
    24    24    19   ar
    25    25    26    1
    26    27    28    1
    27    29    18    1
    28    30    20    2
    29    31    30    1
    30    32    21   ar
    31    33    15    1
    32    34    22    1
    33    35    30    1
    34    36    20    1
    35    37    35   ar
    36    38    37    1
    37    39    32   ar
    38    40    27   ar
    39    41    37   ar
    40    42    29   ar
    41    43    42    1
    42    44    25   ar
    43    45    44    1
    44    46    47    1
    45    48    35   ar
    46    49    42   ar
    47    50    49    1
    48    51    39   ar
    49    52    51    1
    50    53    19   ar
    51    54    53    1
    52    55    21   ar
    53    56    55    1
    54    57    53   ar
    55    58    57    1
    56    59    24   ar
    57    60    36   ar
    58    61    60    1
    59    62    41   ar
    60    63    62    1
    61    64    55   ar
    62    65    64    1
    63    66    51   ar
    64    67    66    1
    65    68    49   ar
    66    69    68    1
    67    70    39   ar
    68    71    70    1
    69    72    57   ar
    70    73    72    1
    71    74    17    1
    72    75    74    1
    73    76    74    1
    74    77    74    1
    75    78    16    1
    76    79    78    1
    77    80    78    1
    78    81    78    1
    79    24    29   ar
    80    25    33   ar
    81    27    34   ar
    82    32    36   ar
    83    33    34   ar
    84    40    44   ar
    85    46    48   ar
    86    46    62   ar
    87    59    68   ar
    88    59    72   ar
    89    60    66   ar
    90    64    70   ar
    91    82    84    1
    92    83    84    3
@<TRIPOS>SUBSTRUCTURE
     1 RES1        1 GROUP             0 ****  ****    0  
     2 RES2       13 GROUP             0 ****  ****    0  
     3 RES3       82 GROUP             0 ****  ****    0  
@<TRIPOS>CRYSIN
   11.8320   12.3306   13.9763   82.6540   77.1220   89.2310     2     1
