@<TRIPOS>MOLECULE
OPEVUD13
    90    97     4     0     0
SMALL
USER_CHARGES
****
Generated from the CSD

@<TRIPOS>ATOM
     1 I1      -2.3676   2.5554   8.8289   I         1 RES1   0.0000
     2 I2       2.3262   0.7274   5.3993   I         1 RES1   0.0000
     3 I3      -1.1837   5.1978   3.5160   I         1 RES1   0.0000
     4 F1       1.0713   3.0223   3.6794   F         1 RES1   0.0000
     5 F2      -2.5412   4.4462   6.2806   F         1 RES1   0.0000
     6 F3       0.1496   0.9035   7.7526   F         1 RES1   0.0000
     7 C1       0.6691   1.9256   5.6920   C.ar      1 RES1   0.0000
     8 C2      -1.2190   2.6605   7.0724   C.ar      1 RES1   0.0000
     9 C3       0.3180   2.8937   4.7747   C.ar      1 RES1   0.0000
    10 C4      -0.7615   3.7686   4.9511   C.ar      1 RES1   0.0000
    11 C5      -1.5006   3.6270   6.0957   C.ar      1 RES1   0.0000
    12 C6      -0.1422   1.8323   6.8367   C.ar      1 RES1   0.0000
    13 Fe1      5.4453   4.5535   2.9011   Fe        2 RES2   1.0000
    14 O1       6.7409   3.8789   1.6682   O.3       2 RES2   0.0000
    15 O2       6.4513   6.0336   3.5143   O.3       2 RES2   0.0000
    16 N1       4.4147   5.8616   1.6132   N.2       2 RES2   0.0000
    17 N2       3.9661   3.2940   2.0380   N.ar      2 RES2   0.0000
    18 N3       6.1386   3.1595   4.3145   N.2       2 RES2   0.0000
    19 O3      10.6562   0.0080   1.7233   O.3       2 RES2   0.0000
    20 O4       7.2251  11.2385   1.9223   O.3       2 RES2   0.0000
    21 N4       4.0815   4.7987   4.5390   N.ar      2 RES2   0.0000
    22 C7       4.3768   4.0591   5.6539   C.ar      2 RES2   0.0000
    23 C8       3.2919   5.2984   0.9371   C.ar      2 RES2   0.0000
    24 C9       7.8581   2.1579   2.9032   C.ar      2 RES2   0.0000
    25 C10      3.1001   3.8964   1.1884   C.ar      2 RES2   0.0000
    26 C11      7.1074   2.3122   4.0986   C.2       2 RES2   0.0000
    27 H1       7.3314   1.7498   4.8036   H         2 RES2   0.0000
    28 C12      5.8161   7.8002   2.0183   C.ar      2 RES2   0.0000
    29 C13      7.6497   2.9274   1.7388   C.ar      2 RES2   0.0000
    30 C14      5.4824   3.1830   5.5763   C.ar      2 RES2   0.0000
    31 C15      6.6060   7.2539   3.0542   C.ar      2 RES2   0.0000
    32 C16      4.7605   7.0926   1.3761   C.2       2 RES2   0.0000
    33 H2       4.2750   7.5520   0.7288   H         2 RES2   0.0000
    34 C17      8.8734   1.1632   2.9131   C.ar      2 RES2   0.0000
    35 H3       9.0170   0.6611   3.6826   H         2 RES2   0.0000
    36 C18      9.6468   0.9349   1.8009   C.ar      2 RES2   0.0000
    37 C19      2.0490   3.2070   0.5589   C.ar      2 RES2   0.0000
    38 C20      3.6254   4.1769   6.8621   C.ar      2 RES2   0.0000
    39 C21      2.4069   5.9480   0.1228   C.ar      2 RES2   0.0000
    40 H4       2.5074   6.8598  -0.0290   H         2 RES2   0.0000
    41 C22      6.0096   9.1534   1.6090   C.ar      2 RES2   0.0000
    42 H5       5.4885   9.5098   0.9268   H         2 RES2   0.0000
    43 C23      7.5968   8.0708   3.6371   C.ar      2 RES2   0.0000
    44 H6       8.1408   7.7266   4.3092   H         2 RES2   0.0000
    45 C24      5.8323   2.4512   6.6913   C.ar      2 RES2   0.0000
    46 H7       6.5592   1.8719   6.6546   H         2 RES2   0.0000
    47 C25      3.8359   1.9846   2.2638   C.ar      2 RES2   0.0000
    48 H8       4.4306   1.5659   2.8440   H         2 RES2   0.0000
    49 C26      3.0411   5.6200   4.5912   C.ar      2 RES2   0.0000
    50 H9       2.8280   6.1205   3.8365   H         2 RES2   0.0000
    51 C27      6.9629   9.9295   2.2201   C.ar      2 RES2   0.0000
    52 C28      1.1661   3.9195  -0.2710   C.ar      2 RES2   0.0000
    53 H10      0.4542   3.4779  -0.6742   H         2 RES2   0.0000
    54 C29      8.4603   2.6513   0.6111   C.ar      2 RES2   0.0000
    55 H11      8.3311   3.1321  -0.1750   H         2 RES2   0.0000
    56 C30      7.7667   9.3698   3.2221   C.ar      2 RES2   0.0000
    57 H12      8.4302   9.8892   3.6154   H         2 RES2   0.0000
    58 C31      1.9389   1.8192   0.8242   C.ar      2 RES2   0.0000
    59 H13      1.2588   1.3208   0.4320   H         2 RES2   0.0000
    60 C32      9.4367   1.6811   0.6605   C.ar      2 RES2   0.0000
    61 H14      9.9639   1.5272  -0.0897   H         2 RES2   0.0000
    62 C33      2.8276   1.2202   1.6541   C.ar      2 RES2   0.0000
    63 H15      2.7714   0.3065   1.8177   H         2 RES2   0.0000
    64 C34      2.5326   5.0496   6.8592   C.ar      2 RES2   0.0000
    65 H16      2.0053   5.1398   7.6202   H         2 RES2   0.0000
    66 C35      5.0923   2.5757   7.8853   C.ar      2 RES2   0.0000
    67 H17      5.3522   2.0924   8.6362   H         2 RES2   0.0000
    68 C36      2.2469   5.7620   5.7428   C.ar      2 RES2   0.0000
    69 H18      1.5230   6.3457   5.7381   H         2 RES2   0.0000
    70 C37      4.0214   3.3767   7.9573   C.ar      2 RES2   0.0000
    71 H19      3.5275   3.4072   8.7451   H         2 RES2   0.0000
    72 C38      1.3440   5.2544  -0.4912   C.ar      2 RES2   0.0000
    73 H20      0.7587   5.7113  -1.0517   H         2 RES2   0.0000
    74 C39      6.2690  11.9401   1.1474   C.3       2 RES2   0.0000
    75 H21      6.1957  11.5300   0.2825   H         2 RES2   0.0000
    76 H22      6.5475  12.8531   1.0462   H         2 RES2   0.0000
    77 H23      5.4172  11.9119   1.5885   H         2 RES2   0.0000
    78 C40     10.8707  -0.8161   2.8227   C.3       2 RES2   0.0000
    79 H24     11.5686  -1.4431   2.6205   H         2 RES2   0.0000
    80 H25     10.0623  -1.2915   3.0277   H         2 RES2   0.0000
    81 H26     11.1283  -0.2817   3.5769   H         2 RES2   0.0000
    82 S1       1.7766  -4.4045   2.6332   S.2       3 RES3  -1.0000
    83 C41      2.6661  -3.0619   2.9004   C.1       3 RES3   0.0000
    84 N5       3.2791  -2.1157   3.0556   N.1       3 RES3   0.0000
    85 O5       4.9794  -0.3170   4.3639   O.3       4 RES4   0.0000
    86 H27      4.6373  -0.8234   3.8178   H         4 RES4   0.0000
    87 C42      5.8956  -1.0027   5.1120   C.3       4 RES4   0.0000
    88 H28      6.7767  -0.8381   4.7684   H         4 RES4   0.0000
    89 H29      5.7051  -1.9429   5.0664   H         4 RES4   0.0000
    90 H30      5.8474  -0.7101   6.0244   H         4 RES4   0.0000
@<TRIPOS>BOND
     1     1     8    1
     2     2     7    1
     3     3    10    1
     4     4     9    1
     5     5    11    1
     6     6    12    1
     7     7     9   ar
     8     8    11   ar
     9     9    10   ar
    10    10    11   ar
    11    12     7   ar
    12     8    12   ar
    13    13    14    1
    14    14    29    1
    15    15    13    1
    16    16    13    1
    17    17    13    1
    18    18    13    1
    19    19    36    1
    20    20    51    1
    21    21    13    1
    22    22    21   ar
    23    23    16    1
    24    24    26    1
    25    25    17   ar
    26    26    18    2
    27    27    26    1
    28    28    31   ar
    29    29    24   ar
    30    30    18    1
    31    31    15    1
    32    32    16    2
    33    33    32    1
    34    34    24   ar
    35    35    34    1
    36    36    34   ar
    37    37    25   ar
    38    38    22   ar
    39    39    23   ar
    40    40    39    1
    41    41    28   ar
    42    42    41    1
    43    43    31   ar
    44    44    43    1
    45    45    30   ar
    46    46    45    1
    47    47    17   ar
    48    48    47    1
    49    49    21   ar
    50    50    49    1
    51    51    41   ar
    52    52    37   ar
    53    53    52    1
    54    54    29   ar
    55    55    54    1
    56    56    43   ar
    57    57    56    1
    58    58    37   ar
    59    59    58    1
    60    60    36   ar
    61    61    60    1
    62    62    47   ar
    63    63    62    1
    64    64    38   ar
    65    65    64    1
    66    66    45   ar
    67    67    66    1
    68    68    49   ar
    69    69    68    1
    70    70    38   ar
    71    71    70    1
    72    72    39   ar
    73    73    72    1
    74    74    20    1
    75    75    74    1
    76    76    74    1
    77    77    74    1
    78    78    19    1
    79    79    78    1
    80    80    78    1
    81    81    78    1
    82    22    30   ar
    83    23    25   ar
    84    28    32    1
    85    51    56   ar
    86    52    72   ar
    87    54    60   ar
    88    58    62   ar
    89    64    68   ar
    90    66    70   ar
    91    82    83    1
    92    83    84    3
    93    85    86    1
    94    87    85    1
    95    88    87    1
    96    89    87    1
    97    90    87    1
@<TRIPOS>SUBSTRUCTURE
     1 RES1        1 GROUP             0 ****  ****    0  
     2 RES2       13 GROUP             0 ****  ****    0  
     3 RES3       82 GROUP             0 ****  ****    0  
     4 RES4       85 GROUP             0 ****  ****    0  
@<TRIPOS>CRYSIN
   11.3843   13.0410   14.3974   95.7760   99.7310   90.5490     2     1
