@<TRIPOS>MOLECULE
OPEVUD06
    90    97     4     0     0
SMALL
USER_CHARGES
****
Generated from the CSD

@<TRIPOS>ATOM
     1 I1      -2.3815   2.5153   8.7940   I         1 RES1   0.0000
     2 I2       2.3363   0.7075   5.3868   I         1 RES1   0.0000
     3 I3      -1.1767   5.1771   3.4967   I         1 RES1   0.0000
     4 F1      -2.5428   4.4142   6.2513   F         1 RES1   0.0000
     5 F2       1.0912   3.0135   3.6724   F         1 RES1   0.0000
     6 F3       0.1362   0.8598   7.7282   F         1 RES1   0.0000
     7 C1       0.6694   1.9103   5.6792   C.ar      1 RES1   0.0000
     8 C2      -1.2359   2.6214   7.0334   C.ar      1 RES1   0.0000
     9 C3      -0.7561   3.7406   4.9224   C.ar      1 RES1   0.0000
    10 C4       0.3306   2.8713   4.7702   C.ar      1 RES1   0.0000
    11 C5      -1.5016   3.5867   6.0709   C.ar      1 RES1   0.0000
    12 C6      -0.1479   1.8039   6.8192   C.ar      1 RES1   0.0000
    13 Fe1      5.4218   4.5231   2.9072   Fe        2 RES2   1.0000
    14 O1       6.7091   3.8833   1.6544   O.3       2 RES2   0.0000
    15 O2       6.4448   5.9805   3.5386   O.3       2 RES2   0.0000
    16 N1       4.4123   5.8102   1.6164   N.2       2 RES2   0.0000
    17 N2       6.1190   3.1504   4.3024   N.2       2 RES2   0.0000
    18 O3      10.6614   0.0220   1.7023   O.3       2 RES2   0.0000
    19 N3       3.9746   3.2557   2.0589   N.ar      2 RES2   0.0000
    20 O4       7.2564  11.1836   1.9320   O.3       2 RES2   0.0000
    21 N4       4.0601   4.7815   4.5180   N.ar      2 RES2   0.0000
    22 C7       7.0988   2.3133   4.0896   C.2       2 RES2   0.0000
    23 H1       7.3322   1.7492   4.8047   H         2 RES2   0.0000
    24 C8       7.8533   2.1658   2.8861   C.ar      2 RES2   0.0000
    25 C9       4.3522   4.0359   5.6369   C.ar      2 RES2   0.0000
    26 C10      3.3037   5.2586   0.9484   C.ar      2 RES2   0.0000
    27 C11      5.4606   3.1756   5.5608   C.ar      2 RES2   0.0000
    28 C12      3.1064   3.8634   1.1950   C.ar      2 RES2   0.0000
    29 C13      7.6258   2.9381   1.7348   C.ar      2 RES2   0.0000
    30 C14      5.8352   7.7477   2.0265   C.ar      2 RES2   0.0000
    31 C15      2.0548   3.1660   0.5721   C.ar      2 RES2   0.0000
    32 C16      4.7783   7.0434   1.3698   C.2       2 RES2   0.0000
    33 H2       4.3048   7.5058   0.7033   H         2 RES2   0.0000
    34 C17      8.8835   1.1784   2.8988   C.ar      2 RES2   0.0000
    35 H3       9.0422   0.6786   3.6794   H         2 RES2   0.0000
    36 C18      6.6190   7.1881   3.0637   C.ar      2 RES2   0.0000
    37 C19      5.8111   2.4380   6.6769   C.ar      2 RES2   0.0000
    38 H4       6.5484   1.8562   6.6412   H         2 RES2   0.0000
    39 C20      9.6401   0.9556   1.7841   C.ar      2 RES2   0.0000
    40 C21      3.5971   4.1635   6.8446   C.ar      2 RES2   0.0000
    41 C22      2.4124   5.9102   0.1367   C.ar      2 RES2   0.0000
    42 H5       2.5072   6.8332  -0.0109   H         2 RES2   0.0000
    43 C23      1.1904   3.8748  -0.2790   C.ar      2 RES2   0.0000
    44 H6       0.4915   3.4215  -0.7135   H         2 RES2   0.0000
    45 C24      3.0237   5.6070   4.5546   C.ar      2 RES2   0.0000
    46 H7       2.8104   6.1078   3.7881   H         2 RES2   0.0000
    47 C25      7.5971   8.0076   3.6583   C.ar      2 RES2   0.0000
    48 H8       8.1292   7.6632   4.3520   H         2 RES2   0.0000
    49 C26      3.8483   1.9475   2.2787   C.ar      2 RES2   0.0000
    50 H9       4.4490   1.5224   2.8633   H         2 RES2   0.0000
    51 C27      8.4506   2.6600   0.6031   C.ar      2 RES2   0.0000
    52 H10      8.3221   3.1510  -0.1887   H         2 RES2   0.0000
    53 C28      6.0488   9.0890   1.6122   C.ar      2 RES2   0.0000
    54 H11      5.5363   9.4504   0.9121   H         2 RES2   0.0000
    55 C29      1.9585   1.7699   0.8399   C.ar      2 RES2   0.0000
    56 H12      1.2780   1.2595   0.4407   H         2 RES2   0.0000
    57 C30      7.0051   9.8588   2.2364   C.ar      2 RES2   0.0000
    58 C31      1.3532   5.2098  -0.4820   C.ar      2 RES2   0.0000
    59 H13      0.7539   5.6711  -1.0401   H         2 RES2   0.0000
    60 C32      2.8439   1.1871   1.6629   C.ar      2 RES2   0.0000
    61 H14      2.7913   0.2626   1.8264   H         2 RES2   0.0000
    62 C33      5.0702   2.5510   7.8635   C.ar      2 RES2   0.0000
    63 H15      5.3250   2.0523   8.6180   H         2 RES2   0.0000
    64 C34      9.4081   1.7103   0.6398   C.ar      2 RES2   0.0000
    65 H16      9.9312   1.5555  -0.1265   H         2 RES2   0.0000
    66 C35      7.7883   9.3121   3.2370   C.ar      2 RES2   0.0000
    67 H17      8.4599   9.8341   3.6371   H         2 RES2   0.0000
    68 C36      2.5120   5.0414   6.8263   C.ar      2 RES2   0.0000
    69 H18      1.9756   5.1345   7.5921   H         2 RES2   0.0000
    70 C37      2.2245   5.7544   5.7214   C.ar      2 RES2   0.0000
    71 H19      1.4975   6.3503   5.7224   H         2 RES2   0.0000
    72 C38      3.9919   3.3713   7.9382   C.ar      2 RES2   0.0000
    73 H20      3.4979   3.4111   8.7371   H         2 RES2   0.0000
    74 C39      6.3063  11.8685   1.1485   C.3       2 RES2   0.0000
    75 H21      6.2073  11.4200   0.2943   H         2 RES2   0.0000
    76 H22      6.6033  12.7799   1.0034   H         2 RES2   0.0000
    77 H23      5.4527  11.8760   1.6102   H         2 RES2   0.0000
    78 C40     10.8706  -0.7944   2.7917   C.3       2 RES2   0.0000
    79 H24     11.5543  -1.4481   2.5795   H         2 RES2   0.0000
    80 H25     10.0447  -1.2510   3.0168   H         2 RES2   0.0000
    81 H26     11.1589  -0.2574   3.5464   H         2 RES2   0.0000
    82 S1       1.7381  -4.3693   2.6331   S.2       3 RES3  -1.0000
    83 C41      2.6655  -3.0559   2.9072   C.1       3 RES3   0.0000
    84 N5       3.3135  -2.1274   3.0510   N.1       3 RES3   0.0000
    85 O5       4.9752  -0.3187   4.3672   O.3       4 RES4   0.0000
    86 H27      4.5146  -0.8611   3.9397   H         4 RES4   0.0000
    87 C42      5.9139  -0.9957   5.0986   C.3       4 RES4   0.0000
    88 H28      6.7735  -0.9376   4.6535   H         4 RES4   0.0000
    89 H29      5.6523  -1.9260   5.1777   H         4 RES4   0.0000
    90 H30      5.9797  -0.6015   5.9824   H         4 RES4   0.0000
@<TRIPOS>BOND
     1     1     8    1
     2     2     7    1
     3     3     9    1
     4     4    11    1
     5     5    10    1
     6     6    12    1
     7     7    10   ar
     8     8    11   ar
     9     9    10   ar
    10    11     9   ar
    11    12     7   ar
    12     8    12   ar
    13    13    14    1
    14    14    29    1
    15    15    13    1
    16    16    13    1
    17    17    13    1
    18    18    39    1
    19    19    13    1
    20    20    57    1
    21    21    13    1
    22    22    17    2
    23    23    22    1
    24    24    22    1
    25    25    21   ar
    26    26    16    1
    27    27    17    1
    28    28    19   ar
    29    29    24   ar
    30    30    32    1
    31    31    28   ar
    32    32    16    2
    33    33    32    1
    34    34    24   ar
    35    35    34    1
    36    36    15    1
    37    37    27   ar
    38    38    37    1
    39    39    34   ar
    40    40    25   ar
    41    41    26   ar
    42    42    41    1
    43    43    31   ar
    44    44    43    1
    45    45    21   ar
    46    46    45    1
    47    47    36   ar
    48    48    47    1
    49    49    19   ar
    50    50    49    1
    51    51    29   ar
    52    52    51    1
    53    53    30   ar
    54    54    53    1
    55    55    31   ar
    56    56    55    1
    57    57    53   ar
    58    58    41   ar
    59    59    58    1
    60    60    49   ar
    61    61    60    1
    62    62    37   ar
    63    63    62    1
    64    64    39   ar
    65    65    64    1
    66    66    47   ar
    67    67    66    1
    68    68    40   ar
    69    69    68    1
    70    70    45   ar
    71    71    70    1
    72    72    40   ar
    73    73    72    1
    74    74    20    1
    75    75    74    1
    76    76    74    1
    77    77    74    1
    78    78    18    1
    79    79    78    1
    80    80    78    1
    81    81    78    1
    82    25    27   ar
    83    26    28   ar
    84    30    36   ar
    85    43    58   ar
    86    51    64   ar
    87    55    60   ar
    88    57    66   ar
    89    62    72   ar
    90    68    70   ar
    91    82    83    1
    92    83    84    3
    93    85    86    1
    94    87    85    1
    95    88    87    1
    96    89    87    1
    97    90    87    1
@<TRIPOS>SUBSTRUCTURE
     1 RES1        1 GROUP             0 ****  ****    0  
     2 RES2       13 GROUP             0 ****  ****    0  
     3 RES3       82 GROUP             0 ****  ****    0  
     4 RES4       85 GROUP             0 ****  ****    0  
@<TRIPOS>CRYSIN
   11.3762   12.9585   14.3805   95.7370   99.8720   90.5000     2     1
