@<TRIPOS>MOLECULE
OPEVUD10
    90    97     4     0     0
SMALL
USER_CHARGES
****
Generated from the CSD

@<TRIPOS>ATOM
     1 I1      11.1651   8.9906   5.2846   I         1 RES1   0.0000
     2 I2       6.4638  10.8089   8.7054   I         1 RES1   0.0000
     3 I3       9.9780   6.3450  10.5901   I         1 RES1   0.0000
     4 F1       7.7204   8.5153  10.4249   F         1 RES1   0.0000
     5 F2      11.3365   7.1035   7.8300   F         1 RES1   0.0000
     6 F3       8.6493  10.6442   6.3570   F         1 RES1   0.0000
     7 C1       8.1279   9.6070   8.4163   C.ar      1 RES1   0.0000
     8 C2       8.4680   8.6522   9.3226   C.ar      1 RES1   0.0000
     9 C3       9.5540   7.7762   9.1718   C.ar      1 RES1   0.0000
    10 C4      10.0236   8.8871   7.0406   C.ar      1 RES1   0.0000
    11 C5      10.2965   7.9189   8.0132   C.ar      1 RES1   0.0000
    12 C6       8.9403   9.7140   7.2633   C.ar      1 RES1   0.0000
    13 Fe1      3.3654   6.9929  11.1939   Fe        2 RES2   1.0000
    14 O1       2.0715   7.6561  12.4363   O.3       2 RES2   0.0000
    15 O2       2.3535   5.5194  10.5729   O.3       2 RES2   0.0000
    16 N1       4.3958   5.6921  12.4856   N.2       2 RES2   0.0000
    17 N2       2.6739   8.3764   9.7864   N.2       2 RES2   0.0000
    18 N3       4.8309   8.2540  12.0487   N.ar      2 RES2   0.0000
    19 O3      -1.8525  11.5221  12.3827   O.3       2 RES2   0.0000
    20 O4       1.5758   0.3200  12.1727   O.3       2 RES2   0.0000
    21 N4       4.7325   6.7471   9.5679   N.ar      2 RES2   0.0000
    22 C7       4.4315   7.4835   8.4501   C.ar      2 RES2   0.0000
    23 C8       5.5049   6.2518  13.1523   C.ar      2 RES2   0.0000
    24 C9       0.9485   9.3757  11.2001   C.ar      2 RES2   0.0000
    25 C10      5.6967   7.6482  12.8986   C.ar      2 RES2   0.0000
    26 C11      3.3237   8.3525   8.5305   C.ar      2 RES2   0.0000
    27 C12      1.7007   9.2288  10.0020   C.2       2 RES2   0.0000
    28 H1       1.4777   9.8022   9.2919   H         2 RES2   0.0000
    29 C13      1.1622   8.6033  12.3517   C.ar      2 RES2   0.0000
    30 C14      2.9802   3.7556  12.0712   C.ar      2 RES2   0.0000
    31 C15      4.0368   4.4636  12.7238   C.2       2 RES2   0.0000
    32 H2       4.5161   4.0004  13.3855   H         2 RES2   0.0000
    33 C16     -0.0809  10.3635  11.1889   C.ar      2 RES2   0.0000
    34 H3      -0.2377  10.8608  10.4074   H         2 RES2   0.0000
    35 C17      2.1983   4.3000  11.0366   C.ar      2 RES2   0.0000
    36 C18      6.7502   8.3487  13.5371   C.ar      2 RES2   0.0000
    37 C19     -0.8384  10.5927  12.2954   C.ar      2 RES2   0.0000
    38 C20      5.1817   7.3661   7.2422   C.ar      2 RES2   0.0000
    39 C21      1.2159   3.4873  10.4531   C.ar      2 RES2   0.0000
    40 H4       0.6741   3.8355   9.7680   H         2 RES2   0.0000
    41 C22      6.3884   5.5949  13.9685   C.ar      2 RES2   0.0000
    42 H5       6.2893   4.6731  14.1221   H         2 RES2   0.0000
    43 C23      7.6231   7.6371  14.3786   C.ar      2 RES2   0.0000
    44 H6       8.3319   8.0844  14.8040   H         2 RES2   0.0000
    45 C24      4.9576   9.5598  11.8288   C.ar      2 RES2   0.0000
    46 H7       4.3593   9.9876  11.2438   H         2 RES2   0.0000
    47 C25      0.3390   8.8856  13.4864   C.ar      2 RES2   0.0000
    48 H8       0.4625   8.3932  14.2773   H         2 RES2   0.0000
    49 C26      2.7865   2.4038  12.4828   C.ar      2 RES2   0.0000
    50 H9       3.3111   2.0401  13.1732   H         2 RES2   0.0000
    51 C27      1.8267   1.6336  11.8654   C.ar      2 RES2   0.0000
    52 C28      2.9698   9.0938   7.4156   C.ar      2 RES2   0.0000
    53 H10      2.2322   9.6750   7.4535   H         2 RES2   0.0000
    54 C29      5.7670   5.9201   9.5214   C.ar      2 RES2   0.0000
    55 H11      5.9773   5.4103  10.2832   H         2 RES2   0.0000
    56 C30      6.8472   9.7324  13.2679   C.ar      2 RES2   0.0000
    57 H12      7.5311  10.2409  13.6631   H         2 RES2   0.0000
    58 C31      5.9686  10.3176  12.4532   C.ar      2 RES2   0.0000
    59 H13      6.0246  11.2421  12.2934   H         2 RES2   0.0000
    60 C32      7.4445   6.3022  14.5788   C.ar      2 RES2   0.0000
    61 H14      8.0421   5.8392  15.1377   H         2 RES2   0.0000
    62 C33      1.0336   2.1832  10.8689   C.ar      2 RES2   0.0000
    63 H15      0.3625   1.6596  10.4694   H         2 RES2   0.0000
    64 C34      6.2757   6.4874   7.2549   C.ar      2 RES2   0.0000
    65 H16      6.8079   6.3937   6.4861   H         2 RES2   0.0000
    66 C35      3.7136   8.9766   6.2189   C.ar      2 RES2   0.0000
    67 H17      3.4593   9.4738   5.4640   H         2 RES2   0.0000
    68 C36      4.7862   8.1572   6.1484   C.ar      2 RES2   0.0000
    69 H18      5.2805   8.1168   5.3492   H         2 RES2   0.0000
    70 C37     -0.6090   9.8411  13.4469   C.ar      2 RES2   0.0000
    71 H19     -1.1276  10.0039  14.2131   H         2 RES2   0.0000
    72 C38      6.5678   5.7800   8.3571   C.ar      2 RES2   0.0000
    73 H20      7.3014   5.1918   8.3590   H         2 RES2   0.0000
    74 C39     -2.0589  12.3365  11.2777   C.3       2 RES2   0.0000
    75 H21     -2.3450  11.7938  10.5262   H         2 RES2   0.0000
    76 H22     -1.2336  12.7921  11.0528   H         2 RES2   0.0000
    77 H23     -2.7450  12.9911  11.4830   H         2 RES2   0.0000
    78 C40      2.5334  -0.3745  12.9508   C.3       2 RES2   0.0000
    79 H24      3.3935  -0.3481  12.5022   H         2 RES2   0.0000
    80 H25      2.2543  -1.2964  13.0607   H         2 RES2   0.0000
    81 H26      2.6101   0.0468  13.8210   H         2 RES2   0.0000
    82 S1       7.0313  15.9212  11.4633   S.2       3 RES3  -1.0000
    83 C41      6.1338  14.5914  11.1931   C.1       3 RES3   0.0000
    84 N5       5.5070  13.6505  11.0409   N.1       3 RES3   0.0000
    85 O5       3.8274  11.8459   9.7342   O.3       4 RES4   0.0000
    86 H27      4.1887  12.3685  10.2687   H         4 RES4   0.0000
    87 C42      2.8948  12.5298   8.9830   C.3       4 RES4   0.0000
    88 H28      2.8577  12.1495   8.0907   H         4 RES4   0.0000
    89 H29      3.1484  13.4642   8.9251   H         4 RES4   0.0000
    90 H30      2.0237  12.4559   9.4019   H         4 RES4   0.0000
@<TRIPOS>BOND
     1     1    10    1
     2     2     7    1
     3     3     9    1
     4     4     8    1
     5     5    11    1
     6     6    12    1
     7     7     8   ar
     8     8     9   ar
     9     9    11   ar
    10    10    11   ar
    11    12     7   ar
    12    10    12   ar
    13    13    14    1
    14    14    29    1
    15    15    13    1
    16    16    13    1
    17    17    13    1
    18    18    13    1
    19    19    37    1
    20    20    51    1
    21    21    13    1
    22    22    21   ar
    23    23    16    1
    24    24    27    1
    25    25    18   ar
    26    26    17    1
    27    27    17    2
    28    28    27    1
    29    29    24   ar
    30    30    31    1
    31    31    16    2
    32    32    31    1
    33    33    24   ar
    34    34    33    1
    35    35    15    1
    36    36    25   ar
    37    37    33   ar
    38    38    22   ar
    39    39    35   ar
    40    40    39    1
    41    41    23   ar
    42    42    41    1
    43    43    36   ar
    44    44    43    1
    45    45    18   ar
    46    46    45    1
    47    47    29   ar
    48    48    47    1
    49    49    30   ar
    50    50    49    1
    51    51    49   ar
    52    52    26   ar
    53    53    52    1
    54    54    21   ar
    55    55    54    1
    56    56    36   ar
    57    57    56    1
    58    58    45   ar
    59    59    58    1
    60    60    41   ar
    61    61    60    1
    62    62    39   ar
    63    63    62    1
    64    64    38   ar
    65    65    64    1
    66    66    52   ar
    67    67    66    1
    68    68    38   ar
    69    69    68    1
    70    70    37   ar
    71    71    70    1
    72    72    54   ar
    73    73    72    1
    74    74    19    1
    75    75    74    1
    76    76    74    1
    77    77    74    1
    78    78    20    1
    79    79    78    1
    80    80    78    1
    81    81    78    1
    82    22    26   ar
    83    23    25   ar
    84    30    35   ar
    85    43    60   ar
    86    47    70   ar
    87    51    62   ar
    88    56    58   ar
    89    64    72   ar
    90    66    68   ar
    91    82    83    1
    92    83    84    3
    93    85    86    1
    94    87    85    1
    95    88    87    1
    96    89    87    1
    97    90    87    1
@<TRIPOS>SUBSTRUCTURE
     1 RES1        1 GROUP             0 ****  ****    0  
     2 RES2       13 GROUP             0 ****  ****    0  
     3 RES3       82 GROUP             0 ****  ****    0  
     4 RES4       85 GROUP             0 ****  ****    0  
@<TRIPOS>CRYSIN
   11.3637   12.9989   14.3803   95.7600   99.7760   90.5620     2     1
