@<TRIPOS>MOLECULE
OPEVIR
    84    92     3     0     0
SMALL
USER_CHARGES
****
Generated from the CSD

@<TRIPOS>ATOM
     1 I1       0.1442   3.7385   5.1906   I         1 RES1   0.0000
     2 I2       5.0477   1.7395   8.2091   I         1 RES1   0.0000
     3 I3       2.1306   6.5908  10.1271   I         1 RES1   0.0000
     4 F1       2.6563   1.9537   6.0812   F         1 RES1   0.0000
     5 F2       0.4223   5.7917   7.5851   F         1 RES1   0.0000
     6 F3       4.2981   4.3429   9.7589   F         1 RES1   0.0000
     7 C1       1.5182   3.8855   6.7781   C.ar      1 RES1   0.0000
     8 C2       3.5198   3.1225   7.9248   C.ar      1 RES1   0.0000
     9 C3       2.3427   5.0918   8.7128   C.ar      1 RES1   0.0000
    10 C4       2.5628   2.9965   6.9384   C.ar      1 RES1   0.0000
    11 C5       1.4459   4.9181   7.6965   C.ar      1 RES1   0.0000
    12 C6       3.3832   4.1924   8.7889   C.ar      1 RES1   0.0000
    13 Fe1      8.4717   5.9057  10.7472   Fe        2 RES2   1.0000
    14 O1       9.6997   5.3101  12.0498   O.3       2 RES2   0.0000
    15 O2       9.6289   7.2204  10.0728   O.3       2 RES2   0.0000
    16 N1       7.5821   7.2138  11.9857   N.2       2 RES2   0.0000
    17 N2       9.1119   4.5293   9.4247   N.2       2 RES2   0.0000
    18 O3      13.9737   1.8260  11.8525   O.3       2 RES2   0.0000
    19 N3       7.1517   6.2473   9.2087   N.ar      2 RES2   0.0000
    20 N4       7.0279   4.6918  11.5686   N.ar      2 RES2   0.0000
    21 O4      10.6317  12.4224  11.5292   O.3       2 RES2   0.0000
    22 C7       6.4316   6.7180  12.6568   C.ar      2 RES2   0.0000
    23 C8       7.3107   5.3907   8.1476   C.ar      2 RES2   0.0000
    24 C9       6.1771   5.3458  12.4232   C.ar      2 RES2   0.0000
    25 C10     10.1785   3.8085   9.5728   C.2       2 RES2   0.0000
    26 H1      10.4309   3.2779   8.8508   H         2 RES2   0.0000
    27 C11      9.8558   8.4324  10.5374   C.ar      2 RES2   0.0000
    28 C12      9.0837   9.0532  11.5509   C.ar      2 RES2   0.0000
    29 C13      5.0897   4.6948  13.0481   C.ar      2 RES2   0.0000
    30 C14      8.3461   4.4386   8.2346   C.ar      2 RES2   0.0000
    31 C15      8.0019   8.4211  12.2180   C.2       2 RES2   0.0000
    32 H2       7.5575   8.9099  12.8725   H         2 RES2   0.0000
    33 C16      5.5657   7.4306  13.4557   C.ar      2 RES2   0.0000
    34 H3       5.7062   8.3392  13.5980   H         2 RES2   0.0000
    35 C17     10.9979   3.7491  10.7276   C.ar      2 RES2   0.0000
    36 C18     10.7267   4.4978  11.9028   C.ar      2 RES2   0.0000
    37 C19     12.9092   2.6887  11.7860   C.ar      2 RES2   0.0000
    38 C20      6.4748   5.4558   6.9982   C.ar      2 RES2   0.0000
    39 C21      6.8447   3.4004  11.3580   C.ar      2 RES2   0.0000
    40 H4       7.4177   2.9549  10.7767   H         2 RES2   0.0000
    41 C22     12.0919   2.8518  10.6869   C.ar      2 RES2   0.0000
    42 H5      12.2600   2.3668   9.9111   H         2 RES2   0.0000
    43 C23      6.2160   7.1699   9.1380   C.ar      2 RES2   0.0000
    44 H6       6.1095   7.7534   9.8535   H         2 RES2   0.0000
    45 C24      4.2405   5.4572  13.8742   C.ar      2 RES2   0.0000
    46 H7       3.5197   5.0496  14.2985   H         2 RES2   0.0000
    47 C25      8.5129   3.5352   7.2115   C.ar      2 RES2   0.0000
    48 H8       9.1748   2.8852   7.2683   H         2 RES2   0.0000
    49 C26     11.5975   4.3012  12.9951   C.ar      2 RES2   0.0000
    50 H9      11.4469   4.7729  13.7832   H         2 RES2   0.0000
    51 C27      9.3476  10.3950  11.9164   C.ar      2 RES2   0.0000
    52 H10      8.8564  10.7952  12.5973   H         2 RES2   0.0000
    53 C28      5.4950   6.4686   6.9765   C.ar      2 RES2   0.0000
    54 H11      4.9351   6.5564   6.2401   H         2 RES2   0.0000
    55 C29      5.3682   7.3078   8.0185   C.ar      2 RES2   0.0000
    56 H12      4.7238   7.9781   8.0018   H         2 RES2   0.0000
    57 C30     10.3307  11.1123  11.2683   C.ar      2 RES2   0.0000
    58 C31      4.9523   3.3098  12.7913   C.ar      2 RES2   0.0000
    59 H13      4.2607   2.8318  13.1886   H         2 RES2   0.0000
    60 C32      4.4692   6.7889  14.0549   C.ar      2 RES2   0.0000
    61 H14      3.8869   7.2828  14.5855   H         2 RES2   0.0000
    62 C33     10.9014   9.1885   9.9600   C.ar      2 RES2   0.0000
    63 H15     11.4492   8.7911   9.3221   H         2 RES2   0.0000
    64 C34      6.7016   4.5249   5.9765   C.ar      2 RES2   0.0000
    65 H16      6.1705   4.5460   5.2137   H         2 RES2   0.0000
    66 C35      5.8200   2.6819  11.9762   C.ar      2 RES2   0.0000
    67 H17      5.7370   1.7681  11.8245   H         2 RES2   0.0000
    68 C36     12.6507   3.4465  12.9326   C.ar      2 RES2   0.0000
    69 H18     13.2121   3.3624  13.6683   H         2 RES2   0.0000
    70 C37      7.6805   3.5948   6.0784   C.ar      2 RES2   0.0000
    71 H19      7.8059   2.9853   5.3880   H         2 RES2   0.0000
    72 C38     11.1229  10.4770  10.3105   C.ar      2 RES2   0.0000
    73 H20     11.8160  10.9469   9.9073   H         2 RES2   0.0000
    74 C39     14.0604   0.8292  10.8472   C.3       2 RES2   0.0000
    75 H21     14.2013   1.2458   9.9946   H         2 RES2   0.0000
    76 H22     13.2441   0.3243  10.8265   H         2 RES2   0.0000
    77 H23     14.7946   0.2419  11.0423   H         2 RES2   0.0000
    78 C40      9.7005  13.1556  12.2914   C.3       2 RES2   0.0000
    79 H24      8.8430  13.1307  11.8587   H         2 RES2   0.0000
    80 H25      9.9941  14.0666  12.3655   H         2 RES2   0.0000
    81 H26      9.6281  12.7699  13.1668   H         2 RES2   0.0000
    82 S1      -1.8385   4.0664   2.6523   S.2       3 RES3  -1.0000
    83 N5      -3.5767   1.9228   3.1139   N.1       3 RES3   0.0000
    84 C41     -2.8369   2.8099   2.9278   C.1       3 RES3   0.0000
@<TRIPOS>BOND
     1     1     7    1
     2     2     8    1
     3     3     9    1
     4     4    10    1
     5     5    11    1
     6     6    12    1
     7     7    10   ar
     8     8    10   ar
     9     9    11   ar
    10    11     7   ar
    11    12     8   ar
    12     9    12   ar
    13    13    14    1
    14    14    36    1
    15    15    13    1
    16    16    13    1
    17    17    13    1
    18    18    37    1
    19    19    13    1
    20    20    13    1
    21    21    57    1
    22    22    16    1
    23    23    19   ar
    24    24    20   ar
    25    25    17    2
    26    26    25    1
    27    27    15    1
    28    28    27   ar
    29    29    24   ar
    30    30    17    1
    31    31    16    2
    32    32    31    1
    33    33    22   ar
    34    34    33    1
    35    35    25    1
    36    36    35   ar
    37    37    41   ar
    38    38    23   ar
    39    39    20   ar
    40    40    39    1
    41    41    35   ar
    42    42    41    1
    43    43    19   ar
    44    44    43    1
    45    45    29   ar
    46    46    45    1
    47    47    30   ar
    48    48    47    1
    49    49    36   ar
    50    50    49    1
    51    51    28   ar
    52    52    51    1
    53    53    38   ar
    54    54    53    1
    55    55    43   ar
    56    56    55    1
    57    57    51   ar
    58    58    29   ar
    59    59    58    1
    60    60    33   ar
    61    61    60    1
    62    62    27   ar
    63    63    62    1
    64    64    38   ar
    65    65    64    1
    66    66    39   ar
    67    67    66    1
    68    68    37   ar
    69    69    68    1
    70    70    47   ar
    71    71    70    1
    72    72    57   ar
    73    73    72    1
    74    74    18    1
    75    75    74    1
    76    76    74    1
    77    77    74    1
    78    78    21    1
    79    79    78    1
    80    80    78    1
    81    81    78    1
    82    22    24   ar
    83    23    30   ar
    84    28    31    1
    85    45    60   ar
    86    49    68   ar
    87    53    55   ar
    88    58    66   ar
    89    62    72   ar
    90    64    70   ar
    91    82    84    1
    92    83    84    3
@<TRIPOS>SUBSTRUCTURE
     1 RES1        1 GROUP             0 ****  ****    0  
     2 RES2       13 GROUP             0 ****  ****    0  
     3 RES3       82 GROUP             0 ****  ****    0  
@<TRIPOS>CRYSIN
   11.7448   12.5681   14.0004   83.0830   77.8730   89.6200     2     1
