@<TRIPOS>MOLECULE
OPEVUD17
    90    97     4     0     0
SMALL
USER_CHARGES
****
Generated from the CSD

@<TRIPOS>ATOM
     1 I1      11.2016   9.0226   5.2821   I         1 RES1   0.0000
     2 I2       6.5152  10.8596   8.7164   I         1 RES1   0.0000
     3 I3      10.0193   6.3864  10.5972   I         1 RES1   0.0000
     4 F1       7.7725   8.5644  10.4345   F         1 RES1   0.0000
     5 F2      11.3660   7.1367   7.8319   F         1 RES1   0.0000
     6 F3       8.6885  10.6795   6.3604   F         1 RES1   0.0000
     7 C1       8.1662   9.6525   8.4180   C.ar      1 RES1   0.0000
     8 C2       8.5049   8.6921   9.3359   C.ar      1 RES1   0.0000
     9 C3       9.5981   7.8161   9.1692   C.ar      1 RES1   0.0000
    10 C4      10.0605   8.9167   7.0453   C.ar      1 RES1   0.0000
    11 C5       8.9709   9.7464   7.2797   C.ar      1 RES1   0.0000
    12 C6      10.3244   7.9642   8.0127   C.ar      1 RES1   0.0000
    13 Fe1      3.3816   7.0266  11.2206   Fe        2 RES2   1.0000
    14 O1       2.0838   7.7047  12.4525   O.3       2 RES2   0.0000
    15 O2       2.3774   5.5455  10.6153   O.3       2 RES2   0.0000
    16 N1       2.6861   8.4236   9.8061   N.2       2 RES2   0.0000
    17 N2       4.4233   5.7198  12.5118   N.2       2 RES2   0.0000
    18 O3      -1.8210  11.5831  12.3960   O.3       2 RES2   0.0000
    19 N3       4.8650   8.2876  12.0854   N.ar      2 RES2   0.0000
    20 O4       1.6078   0.3383  12.2040   O.3       2 RES2   0.0000
    21 N4       4.7458   6.7847   9.5788   N.ar      2 RES2   0.0000
    22 C7       4.4531   7.5223   8.4674   C.ar      2 RES2   0.0000
    23 C8       5.5369   6.2814  13.1883   C.ar      2 RES2   0.0000
    24 C9       1.7156   9.2702  10.0165   C.2       2 RES2   0.0000
    25 H1       1.4888   9.8290   9.3088   H         2 RES2   0.0000
    26 C10      0.9683   9.4283  11.2169   C.ar      2 RES2   0.0000
    27 C11      5.7379   7.6795  12.9313   C.ar      2 RES2   0.0000
    28 C12      1.1771   8.6598  12.3735   C.ar      2 RES2   0.0000
    29 C13      3.0222   3.7798  12.1037   C.ar      2 RES2   0.0000
    30 C14      3.3407   8.4054   8.5408   C.ar      2 RES2   0.0000
    31 C15      4.0753   4.4939  12.7449   C.2       2 RES2   0.0000
    32 H2       4.5592   4.0351  13.3932   H         2 RES2   0.0000
    33 C16      2.2279   4.3159  11.0714   C.ar      2 RES2   0.0000
    34 C17     -0.8168  10.6410  12.3127   C.ar      2 RES2   0.0000
    35 C18      6.7898   8.3700  13.5611   C.ar      2 RES2   0.0000
    36 C19     -0.0460  10.4170  11.2042   C.ar      2 RES2   0.0000
    37 H3      -0.1884  10.9202  10.4347   H         2 RES2   0.0000
    38 C20      2.8289   2.4214  12.5175   C.ar      2 RES2   0.0000
    39 H4       3.3500   2.0631  13.1991   H         2 RES2   0.0000
    40 C21      5.1982   7.3984   7.2515   C.ar      2 RES2   0.0000
    41 C22      6.4312   5.6247  13.9989   C.ar      2 RES2   0.0000
    42 H5       6.3379   4.7109  14.1426   H         2 RES2   0.0000
    43 C23      1.2375   3.5030  10.4882   C.ar      2 RES2   0.0000
    44 H6       0.6957   3.8467   9.8139   H         2 RES2   0.0000
    45 C24      0.3664   8.9375  13.5046   C.ar      2 RES2   0.0000
    46 H7       0.4962   8.4542  14.2885   H         2 RES2   0.0000
    47 C25      7.6703   7.6600  14.3957   C.ar      2 RES2   0.0000
    48 H8       8.3800   8.1022  14.8012   H         2 RES2   0.0000
    49 C26      1.8666   1.6445  11.9018   C.ar      2 RES2   0.0000
    50 C27      5.0023   9.5977  11.8594   C.ar      2 RES2   0.0000
    51 H9       4.4058  10.0178  11.2823   H         2 RES2   0.0000
    52 C28      5.7895   5.9532   9.5237   C.ar      2 RES2   0.0000
    53 H10      6.0004   5.4453  10.2729   H         2 RES2   0.0000
    54 C29      2.9896   9.1318   7.4252   C.ar      2 RES2   0.0000
    55 H11      2.2604   9.7073   7.4584   H         2 RES2   0.0000
    56 C30      6.8891   9.7582  13.2871   C.ar      2 RES2   0.0000
    57 H12      7.5667  10.2586  13.6808   H         2 RES2   0.0000
    58 C31      1.0666   2.2054  10.9076   C.ar      2 RES2   0.0000
    59 H13      0.3992   1.6882  10.5178   H         2 RES2   0.0000
    60 C32      6.0064  10.3606  12.4582   C.ar      2 RES2   0.0000
    61 H14      6.0689  11.2733  12.2886   H         2 RES2   0.0000
    62 C33     -0.6037   9.9019  13.4622   C.ar      2 RES2   0.0000
    63 H15     -1.1251  10.0617  14.2146   H         2 RES2   0.0000
    64 C34      6.2872   6.5277   7.2600   C.ar      2 RES2   0.0000
    65 H16      6.8119   6.4340   6.4976   H         2 RES2   0.0000
    66 C35      3.7278   9.0064   6.2362   C.ar      2 RES2   0.0000
    67 H17      3.4629   9.4857   5.4836   H         2 RES2   0.0000
    68 C36      7.4903   6.3247  14.6132   C.ar      2 RES2   0.0000
    69 H18      8.0745   5.8704  15.1756   H         2 RES2   0.0000
    70 C37      6.5817   5.8220   8.3657   C.ar      2 RES2   0.0000
    71 H19      7.3103   5.2447   8.3675   H         2 RES2   0.0000
    72 C38      4.8157   8.2057   6.1613   C.ar      2 RES2   0.0000
    73 H20      5.3177   8.1866   5.3791   H         2 RES2   0.0000
    74 C39     -2.0451  12.4062  11.3044   C.3       2 RES2   0.0000
    75 H21     -2.2963  11.8723  10.5472   H         2 RES2   0.0000
    76 H22     -1.2438  12.8936  11.1010   H         2 RES2   0.0000
    77 H23     -2.7519  13.0237  11.5085   H         2 RES2   0.0000
    78 C40      2.5743  -0.3594  12.9821   C.3       2 RES2   0.0000
    79 H24      3.4182  -0.3543  12.5246   H         2 RES2   0.0000
    80 H25      2.2865  -1.2666  13.1116   H         2 RES2   0.0000
    81 H26      2.6694   0.0706  13.8346   H         2 RES2   0.0000
    82 S1       7.0429  15.9947  11.4875   S.2       3 RES3  -1.0000
    83 C41      6.1560  14.6542  11.2141   C.1       3 RES3   0.0000
    84 N5       5.5592  13.7086  11.0644   N.1       3 RES3   0.0000
    85 O5       3.8552  11.9040   9.7581   O.3       4 RES4   0.0000
    86 H27      4.2765  12.4291  10.2270   H         4 RES4   0.0000
    87 C42      2.9413  12.5918   9.0125   C.3       4 RES4   0.0000
    88 H28      2.9992  12.3112   8.0961   H         4 RES4   0.0000
    89 H29      3.1243  13.5330   9.0703   H         4 RES4   0.0000
    90 H30      2.0589  12.4166   9.3461   H         4 RES4   0.0000
@<TRIPOS>BOND
     1     1    10    1
     2     2     7    1
     3     3     9    1
     4     4     8    1
     5     5    12    1
     6     6    11    1
     7     7     8   ar
     8     8     9   ar
     9     9    12   ar
    10    10    11   ar
    11    11     7   ar
    12    12    10   ar
    13    13    14    1
    14    14    28    1
    15    15    13    1
    16    16    13    1
    17    17    13    1
    18    18    34    1
    19    19    13    1
    20    20    49    1
    21    21    13    1
    22    22    21   ar
    23    23    17    1
    24    24    16    2
    25    25    24    1
    26    26    24    1
    27    27    19   ar
    28    28    26   ar
    29    29    31    1
    30    30    16    1
    31    31    17    2
    32    32    31    1
    33    33    15    1
    34    34    36   ar
    35    35    27   ar
    36    36    26   ar
    37    37    36    1
    38    38    29   ar
    39    39    38    1
    40    40    22   ar
    41    41    23   ar
    42    42    41    1
    43    43    33   ar
    44    44    43    1
    45    45    28   ar
    46    46    45    1
    47    47    35   ar
    48    48    47    1
    49    49    38   ar
    50    50    19   ar
    51    51    50    1
    52    52    21   ar
    53    53    52    1
    54    54    30   ar
    55    55    54    1
    56    56    35   ar
    57    57    56    1
    58    58    43   ar
    59    59    58    1
    60    60    50   ar
    61    61    60    1
    62    62    34   ar
    63    63    62    1
    64    64    40   ar
    65    65    64    1
    66    66    54   ar
    67    67    66    1
    68    68    41   ar
    69    69    68    1
    70    70    52   ar
    71    71    70    1
    72    72    40   ar
    73    73    72    1
    74    74    18    1
    75    75    74    1
    76    76    74    1
    77    77    74    1
    78    78    20    1
    79    79    78    1
    80    80    78    1
    81    81    78    1
    82    22    30   ar
    83    23    27   ar
    84    29    33   ar
    85    45    62   ar
    86    47    68   ar
    87    49    58   ar
    88    56    60   ar
    89    64    70   ar
    90    66    72   ar
    91    82    83    1
    92    83    84    3
    93    85    86    1
    94    87    85    1
    95    88    87    1
    96    89    87    1
    97    90    87    1
@<TRIPOS>SUBSTRUCTURE
     1 RES1        1 GROUP             0 ****  ****    0  
     2 RES2       13 GROUP             0 ****  ****    0  
     3 RES3       82 GROUP             0 ****  ****    0  
     4 RES4       85 GROUP             0 ****  ****    0  
@<TRIPOS>CRYSIN
   11.3960   13.0614   14.4048   95.7710   99.7110   90.5900     2     1
