@<TRIPOS>MOLECULE
OPEVIR18
    84    92     3     0     0
SMALL
USER_CHARGES
****
Generated from the CSD

@<TRIPOS>ATOM
     1 I1       0.0573   3.8690   5.1727   I         1 RES1   0.0000
     2 I2       4.8747   1.7285   8.2273   I         1 RES1   0.0000
     3 I3       2.0171   6.5870  10.1917   I         1 RES1   0.0000
     4 F1       2.5172   2.0233   6.0649   F         1 RES1   0.0000
     5 F2       0.3313   5.8670   7.6121   F         1 RES1   0.0000
     6 F3       4.1449   4.3145   9.8164   F         1 RES1   0.0000
     7 C1       1.4142   3.9553   6.7778   C.ar      1 RES1   0.0000
     8 C2       1.3339   4.9694   7.7225   C.ar      1 RES1   0.0000
     9 C3       2.2233   5.1067   8.7585   C.ar      1 RES1   0.0000
    10 C4       2.4369   3.0480   6.9469   C.ar      1 RES1   0.0000
    11 C5       3.3770   3.1350   7.9461   C.ar      1 RES1   0.0000
    12 C6       3.2503   4.1789   8.8172   C.ar      1 RES1   0.0000
    13 Fe1      8.3639   5.9219  10.8074   Fe        2 RES2   1.0000
    14 O1       9.6234   5.2170  12.0602   O.3       2 RES2   0.0000
    15 O2       9.4773   7.3287  10.2063   O.3       2 RES2   0.0000
    16 N1       7.3772   7.2728  12.0493   N.2       2 RES2   0.0000
    17 N2       8.9775   4.4686   9.4401   N.2       2 RES2   0.0000
    18 O3      13.7898   1.6378  11.8516   O.3       2 RES2   0.0000
    19 N3       6.8418   4.7253  11.6649   N.ar      2 RES2   0.0000
    20 N4       7.0227   6.2228   9.1757   N.ar      2 RES2   0.0000
    21 O4      10.2838  12.5803  11.5845   O.3       2 RES2   0.0000
    22 C7       6.2300   6.7599  12.7214   C.ar      2 RES2   0.0000
    23 C8      10.0234   3.7263   9.5901   C.2       2 RES2   0.0000
    24 H1      10.2631   3.1931   8.8667   H         2 RES2   0.0000
    25 C9       5.9881   5.3894  12.4992   C.ar      2 RES2   0.0000
    26 C10     10.6190   4.3777  11.9253   C.ar      2 RES2   0.0000
    27 C11      7.1882   5.3577   8.1397   C.ar      2 RES2   0.0000
    28 C12     10.8543   3.6382  10.7515   C.ar      2 RES2   0.0000
    29 C13      8.8234   9.1689  11.5995   C.ar      2 RES2   0.0000
    30 C14      9.6509   8.5605  10.6193   C.ar      2 RES2   0.0000
    31 C15      8.2199   4.3918   8.2446   C.ar      2 RES2   0.0000
    32 C16      7.7484   8.5034  12.2552   C.2       2 RES2   0.0000
    33 H2       7.2703   8.9920  12.8856   H         2 RES2   0.0000
    34 C17      4.9000   4.7262  13.1194   C.ar      2 RES2   0.0000
    35 C18      5.3527   7.4602  13.5147   C.ar      2 RES2   0.0000
    36 H3       5.4838   8.3700  13.6553   H         2 RES2   0.0000
    37 C19     12.7436   2.5277  11.7958   C.ar      2 RES2   0.0000
    38 C20     11.9274   2.6975  10.6997   C.ar      2 RES2   0.0000
    39 H4      12.0756   2.2019   9.9275   H         2 RES2   0.0000
    40 C21     11.4865   4.1651  13.0158   C.ar      2 RES2   0.0000
    41 H5      11.3584   4.6483  13.8003   H         2 RES2   0.0000
    42 C22      9.0284  10.5203  11.9430   C.ar      2 RES2   0.0000
    43 H6       8.4880  10.9174  12.5874   H         2 RES2   0.0000
    44 C23      6.6563   3.4343  11.4672   C.ar      2 RES2   0.0000
    45 H7       7.2401   2.9837  10.8999   H         2 RES2   0.0000
    46 C24      8.3907   3.4920   7.2181   C.ar      2 RES2   0.0000
    47 H8       9.0554   2.8452   7.2798   H         2 RES2   0.0000
    48 C25     12.5135   3.2641  12.9436   C.ar      2 RES2   0.0000
    49 H9      13.0671   3.1438  13.6804   H         2 RES2   0.0000
    50 C26     10.0218  11.2606  11.3377   C.ar      2 RES2   0.0000
    51 C27      6.0896   7.1521   9.0857   C.ar      2 RES2   0.0000
    52 H10      5.9806   7.7511   9.7888   H         2 RES2   0.0000
    53 C28      4.0317   5.4883  13.9278   C.ar      2 RES2   0.0000
    54 H11      3.3011   5.0820  14.3359   H         2 RES2   0.0000
    55 C29      6.3686   5.4035   6.9768   C.ar      2 RES2   0.0000
    56 C30      4.7564   3.3470  12.8768   C.ar      2 RES2   0.0000
    57 H12      4.0607   2.8768  13.2768   H         2 RES2   0.0000
    58 C31      4.2590   6.8148  14.1132   C.ar      2 RES2   0.0000
    59 H13      3.6789   7.3062  14.6489   H         2 RES2   0.0000
    60 C32     10.6855   9.3325  10.0672   C.ar      2 RES2   0.0000
    61 H14     11.2658   8.9421   9.4553   H         2 RES2   0.0000
    62 C33      5.2584   7.2626   7.9624   C.ar      2 RES2   0.0000
    63 H15      4.6099   7.9283   7.9337   H         2 RES2   0.0000
    64 C34      5.6207   2.7092  12.0711   C.ar      2 RES2   0.0000
    65 H16      5.5331   1.7960  11.9161   H         2 RES2   0.0000
    66 C35      5.3895   6.4067   6.9182   C.ar      2 RES2   0.0000
    67 H17      4.8386   6.4848   6.1736   H         2 RES2   0.0000
    68 C36     10.8587  10.6333  10.4039   C.ar      2 RES2   0.0000
    69 H18     11.5456  11.1200  10.0082   H         2 RES2   0.0000
    70 C37      7.5752   3.5415   6.0867   C.ar      2 RES2   0.0000
    71 H19      7.7065   2.9228   5.4044   H         2 RES2   0.0000
    72 C38      6.6086   4.4606   5.9640   C.ar      2 RES2   0.0000
    73 H20      6.0869   4.4753   5.1936   H         2 RES2   0.0000
    74 C39     13.8601   0.6422  10.8470   C.3       2 RES2   0.0000
    75 H21     13.9230   1.0605   9.9848   H         2 RES2   0.0000
    76 H22     13.0699   0.0970  10.8801   H         2 RES2   0.0000
    77 H23     14.6335   0.0927  10.9929   H         2 RES2   0.0000
    78 C40      9.3437  13.2887  12.3383   C.3       2 RES2   0.0000
    79 H24      8.4936  13.2658  11.8920   H         2 RES2   0.0000
    80 H25      9.6304  14.1991  12.4346   H         2 RES2   0.0000
    81 H26      9.2595  12.8856  13.2059   H         2 RES2   0.0000
    82 S1      -1.9155   4.1956   2.6541   S.2       3 RES3  -1.0000
    83 C41     -2.8000   2.8652   2.9132   C.1       3 RES3   0.0000
    84 N5      -3.4357   1.8966   3.0931   N.1       3 RES3   0.0000
@<TRIPOS>BOND
     1     1     7    1
     2     2    11    1
     3     3     9    1
     4     4    10    1
     5     5     8    1
     6     6    12    1
     7     7     8   ar
     8     8     9   ar
     9     9    12   ar
    10    10     7   ar
    11    11    10   ar
    12    12    11   ar
    13    13    14    1
    14    14    26    1
    15    15    13    1
    16    16    13    1
    17    17    13    1
    18    18    37    1
    19    19    13    1
    20    20    13    1
    21    21    50    1
    22    22    16    1
    23    23    17    2
    24    24    23    1
    25    25    19   ar
    26    26    28   ar
    27    27    20   ar
    28    28    23    1
    29    29    30   ar
    30    30    15    1
    31    31    17    1
    32    32    16    2
    33    33    32    1
    34    34    25   ar
    35    35    22   ar
    36    36    35    1
    37    37    38   ar
    38    38    28   ar
    39    39    38    1
    40    40    26   ar
    41    41    40    1
    42    42    29   ar
    43    43    42    1
    44    44    19   ar
    45    45    44    1
    46    46    31   ar
    47    47    46    1
    48    48    37   ar
    49    49    48    1
    50    50    42   ar
    51    51    20   ar
    52    52    51    1
    53    53    34   ar
    54    54    53    1
    55    55    27   ar
    56    56    34   ar
    57    57    56    1
    58    58    35   ar
    59    59    58    1
    60    60    30   ar
    61    61    60    1
    62    62    51   ar
    63    63    62    1
    64    64    44   ar
    65    65    64    1
    66    66    55   ar
    67    67    66    1
    68    68    50   ar
    69    69    68    1
    70    70    46   ar
    71    71    70    1
    72    72    55   ar
    73    73    72    1
    74    74    18    1
    75    75    74    1
    76    76    74    1
    77    77    74    1
    78    78    21    1
    79    79    78    1
    80    80    78    1
    81    81    78    1
    82    22    25   ar
    83    27    31   ar
    84    29    32    1
    85    40    48   ar
    86    53    58   ar
    87    56    64   ar
    88    60    68   ar
    89    62    66   ar
    90    70    72   ar
    91    82    83    1
    92    83    84    3
@<TRIPOS>SUBSTRUCTURE
     1 RES1        1 GROUP             0 ****  ****    0  
     2 RES2       13 GROUP             0 ****  ****    0  
     3 RES3       82 GROUP             0 ****  ****    0  
@<TRIPOS>CRYSIN
   11.6531   12.7689   14.0057   83.4720   78.4940   89.9250     2     1
