@<TRIPOS>MOLECULE
OPEVUD02
    90    97     4     0     0
SMALL
USER_CHARGES
****
Generated from the CSD

@<TRIPOS>ATOM
     1 I1      -2.4183   2.4530   8.7552   I         1 RES1   0.0000
     2 I2       2.3323   0.6614   5.3871   I         1 RES1   0.0000
     3 I3      -1.1626   5.1413   3.4802   I         1 RES1   0.0000
     4 F1       1.1002   2.9787   3.6717   F         1 RES1   0.0000
     5 F2      -2.5615   4.3593   6.2223   F         1 RES1   0.0000
     6 F3       0.1066   0.7912   7.7026   F         1 RES1   0.0000
     7 C1       0.3374   2.8310   4.7576   C.ar      1 RES1   0.0000
     8 C2       0.6564   1.8678   5.6660   C.ar      1 RES1   0.0000
     9 C3      -1.2630   2.5558   7.0082   C.ar      1 RES1   0.0000
    10 C4      -0.7591   3.6961   4.9012   C.ar      1 RES1   0.0000
    11 C5      -1.5208   3.5374   6.0449   C.ar      1 RES1   0.0000
    12 C6      -0.1642   1.7435   6.7871   C.ar      1 RES1   0.0000
    13 Fe1      5.3987   4.4771   2.9200   Fe        2 RES2   1.0000
    14 O1       6.4537   5.8837   3.5844   O.3       2 RES2   0.0000
    15 O2       6.6628   3.8952   1.6309   O.3       2 RES2   0.0000
    16 N1       4.4508   5.7496   1.6323   N.2       2 RES2   0.0000
    17 N2       4.0023   3.2044   2.0957   N.ar      2 RES2   0.0000
    18 N3       6.1085   3.1505   4.2928   N.2       2 RES2   0.0000
    19 O3      10.6766   0.0888   1.6647   O.3       2 RES2   0.0000
    20 N4       4.0469   4.7681   4.4759   N.ar      2 RES2   0.0000
    21 O4       7.3518  11.0702   1.9394   O.3       2 RES2   0.0000
    22 C7       3.3241   5.1925   0.9605   C.ar      2 RES2   0.0000
    23 C8       3.1388   3.8061   1.2183   C.ar      2 RES2   0.0000
    24 C9       7.1071   2.3293   4.0830   C.2       2 RES2   0.0000
    25 H1       7.3568   1.7713   4.7963   H         2 RES2   0.0000
    26 C10      4.3468   4.0236   5.6083   C.ar      2 RES2   0.0000
    27 C11      5.4456   3.1623   5.5407   C.ar      2 RES2   0.0000
    28 C12      4.8352   6.9563   1.3732   C.2       2 RES2   0.0000
    29 H2       4.3789   7.4176   0.6933   H         2 RES2   0.0000
    30 C13      2.0928   3.0953   0.5929   C.ar      2 RES2   0.0000
    31 C14      6.6405   7.0833   3.0914   C.ar      2 RES2   0.0000
    32 C15      7.8500   2.2028   2.8774   C.ar      2 RES2   0.0000
    33 C16      7.6045   2.9651   1.7211   C.ar      2 RES2   0.0000
    34 C17      5.8967   7.6455   2.0337   C.ar      2 RES2   0.0000
    35 C18      8.8921   1.2224   2.8816   C.ar      2 RES2   0.0000
    36 H3       9.0548   0.7160   3.6567   H         2 RES2   0.0000
    37 C19      2.4438   5.8523   0.1422   C.ar      2 RES2   0.0000
    38 H4       2.5393   6.7751  -0.0066   H         2 RES2   0.0000
    39 C20      3.0131   5.5914   4.5013   C.ar      2 RES2   0.0000
    40 H5       2.8063   6.0915   3.7334   H         2 RES2   0.0000
    41 C21      3.5786   4.1533   6.8082   C.ar      2 RES2   0.0000
    42 C22      5.7853   2.4235   6.6547   C.ar      2 RES2   0.0000
    43 H6       6.5255   1.8457   6.6222   H         2 RES2   0.0000
    44 C23      1.3929   5.1381  -0.4746   C.ar      2 RES2   0.0000
    45 H7       0.7993   5.5955  -1.0418   H         2 RES2   0.0000
    46 C24      6.1309   8.9931   1.6140   C.ar      2 RES2   0.0000
    47 H8       5.6281   9.3619   0.9108   H         2 RES2   0.0000
    48 C25      1.2178   3.8033  -0.2690   C.ar      2 RES2   0.0000
    49 H9       0.5155   3.3502  -0.6997   H         2 RES2   0.0000
    50 C26      3.8738   1.8979   2.3140   C.ar      2 RES2   0.0000
    51 H10      4.4696   1.4779   2.9074   H         2 RES2   0.0000
    52 C27      9.6520   1.0178   1.7619   C.ar      2 RES2   0.0000
    53 C28      7.6364   7.9083   3.6928   C.ar      2 RES2   0.0000
    54 H11      8.1548   7.5643   4.3965   H         2 RES2   0.0000
    55 C29      1.9969   1.7040   0.8619   C.ar      2 RES2   0.0000
    56 H12      1.3186   1.1907   0.4602   H         2 RES2   0.0000
    57 C30      8.4189   2.6984   0.5803   C.ar      2 RES2   0.0000
    58 H13      8.2717   3.1820  -0.2124   H         2 RES2   0.0000
    59 C31      2.4804   5.0575   6.7702   C.ar      2 RES2   0.0000
    60 H14      1.9437   5.1753   7.5322   H         2 RES2   0.0000
    61 C32      7.0833   9.7401   2.2380   C.ar      2 RES2   0.0000
    62 C33      2.8812   1.1224   1.6929   C.ar      2 RES2   0.0000
    63 H15      2.8343   0.1982   1.8587   H         2 RES2   0.0000
    64 C34      5.0360   2.5297   7.8335   C.ar      2 RES2   0.0000
    65 H16      5.2731   2.0156   8.5831   H         2 RES2   0.0000
    66 C35      7.8524   9.1895   3.2689   C.ar      2 RES2   0.0000
    67 H17      8.5246   9.7066   3.6737   H         2 RES2   0.0000
    68 C36      9.4003   1.7624   0.6155   C.ar      2 RES2   0.0000
    69 H18      9.9223   1.6143  -0.1531   H         2 RES2   0.0000
    70 C37      3.9585   3.3766   7.9040   C.ar      2 RES2   0.0000
    71 H19      3.4683   3.4339   8.7035   H         2 RES2   0.0000
    72 C38      2.2110   5.7373   5.6547   C.ar      2 RES2   0.0000
    73 H20      1.4754   6.3230   5.6364   H         2 RES2   0.0000
    74 C39      6.3918  11.7560   1.1563   C.3       2 RES2   0.0000
    75 H21      6.3080  11.3210   0.2933   H         2 RES2   0.0000
    76 H22      6.6749  12.6748   1.0292   H         2 RES2   0.0000
    77 H23      5.5346  11.7415   1.6101   H         2 RES2   0.0000
    78 C40     10.8884  -0.7286   2.7689   C.3       2 RES2   0.0000
    79 H24     11.6178  -1.3406   2.5825   H         2 RES2   0.0000
    80 H25     10.0822  -1.2346   2.9565   H         2 RES2   0.0000
    81 H26     11.1134  -0.1821   3.5377   H         2 RES2   0.0000
    82 S1       1.6727  -4.3153   2.6379   S.2       3 RES3  -1.0000
    83 C41      2.6533  -3.0520   2.9084   C.1       3 RES3   0.0000
    84 N5       3.3654  -2.1517   3.0478   N.1       3 RES3   0.0000
    85 O5       4.9912  -0.3510   4.3731   O.3       4 RES4   0.0000
    86 H27      4.5117  -0.9127   3.9945   H         4 RES4   0.0000
    87 C42      5.9992  -0.9949   5.0590   C.3       4 RES4   0.0000
    88 H28      6.8129  -0.9765   4.5321   H         4 RES4   0.0000
    89 H29      5.7411  -1.9153   5.2242   H         4 RES4   0.0000
    90 H30      6.1519  -0.5457   5.9057   H         4 RES4   0.0000
@<TRIPOS>BOND
     1     1     9    1
     2     2     8    1
     3     3    10    1
     4     4     7    1
     5     5    11    1
     6     6    12    1
     7     7     8   ar
     8     8    12   ar
     9     9    11   ar
    10    10     7   ar
    11    11    10   ar
    12    12     9   ar
    13    13    14    1
    14    14    31    1
    15    15    13    1
    16    16    13    1
    17    17    13    1
    18    18    13    1
    19    19    52    1
    20    20    13    1
    21    21    61    1
    22    22    16    1
    23    23    17   ar
    24    24    18    2
    25    25    24    1
    26    26    20   ar
    27    27    18    1
    28    28    16    2
    29    29    28    1
    30    30    23   ar
    31    31    34   ar
    32    32    24    1
    33    33    15    1
    34    34    28    1
    35    35    32   ar
    36    36    35    1
    37    37    22   ar
    38    38    37    1
    39    39    20   ar
    40    40    39    1
    41    41    26   ar
    42    42    27   ar
    43    43    42    1
    44    44    37   ar
    45    45    44    1
    46    46    34   ar
    47    47    46    1
    48    48    30   ar
    49    49    48    1
    50    50    17   ar
    51    51    50    1
    52    52    35   ar
    53    53    31   ar
    54    54    53    1
    55    55    30   ar
    56    56    55    1
    57    57    33   ar
    58    58    57    1
    59    59    41   ar
    60    60    59    1
    61    61    46   ar
    62    62    50   ar
    63    63    62    1
    64    64    42   ar
    65    65    64    1
    66    66    53   ar
    67    67    66    1
    68    68    52   ar
    69    69    68    1
    70    70    41   ar
    71    71    70    1
    72    72    39   ar
    73    73    72    1
    74    74    21    1
    75    75    74    1
    76    76    74    1
    77    77    74    1
    78    78    19    1
    79    79    78    1
    80    80    78    1
    81    81    78    1
    82    22    23   ar
    83    26    27   ar
    84    32    33   ar
    85    44    48   ar
    86    55    62   ar
    87    57    68   ar
    88    59    72   ar
    89    61    66   ar
    90    64    70   ar
    91    82    83    1
    92    83    84    3
    93    85    86    1
    94    87    85    1
    95    88    87    1
    96    89    87    1
    97    90    87    1
@<TRIPOS>SUBSTRUCTURE
     1 RES1        1 GROUP             0 ****  ****    0  
     2 RES2       13 GROUP             0 ****  ****    0  
     3 RES3       82 GROUP             0 ****  ****    0  
     4 RES4       85 GROUP             0 ****  ****    0  
@<TRIPOS>CRYSIN
   11.4222   12.8436   14.3816   95.6450  100.1460   90.4020     2     1
