@<TRIPOS>MOLECULE
OPEVIR09
    84    92     3     0     0
SMALL
USER_CHARGES
****
Generated from the CSD

@<TRIPOS>ATOM
     1 I1      -2.6990   2.4545   8.5328   I         1 RES1   0.0000
     2 I2       2.0627   0.1952   5.4879   I         1 RES1   0.0000
     3 I3      -0.7460   5.0386   3.4396   I         1 RES1   0.0000
     4 F1      -0.2758   0.5616   7.6624   F         1 RES1   0.0000
     5 F2      -2.4212   4.3931   6.0346   F         1 RES1   0.0000
     6 F3       1.3496   2.7501   3.8456   F         1 RES1   0.0000
     7 C1      -1.3628   2.4778   6.9116   C.ar      1 RES1   0.0000
     8 C2      -1.4308   3.4776   5.9358   C.ar      1 RES1   0.0000
     9 C3      -0.5505   3.5840   4.9079   C.ar      1 RES1   0.0000
    10 C4      -0.3521   1.5681   6.7456   C.ar      1 RES1   0.0000
    11 C5       0.4648   2.6470   4.8543   C.ar      1 RES1   0.0000
    12 C6       0.5821   1.6205   5.7409   C.ar      1 RES1   0.0000
    13 Fe1      5.5974   4.3939   2.8340   Fe        2 RES2   1.0000
    14 O1       6.8555   3.6623   1.5948   O.3       2 RES2   0.0000
    15 O2       6.6974   5.8226   3.4119   O.3       2 RES2   0.0000
    16 N1       4.5695   5.7509   1.5865   N.2       2 RES2   0.0000
    17 N2       6.2174   2.9273   4.2271   N.2       2 RES2   0.0000
    18 O3      10.9868   0.0381   1.8020   O.3       2 RES2   0.0000
    19 N3       4.0532   3.1887   1.9804   N.ar      2 RES2   0.0000
    20 N4       4.2576   4.6889   4.5085   N.ar      2 RES2   0.0000
    21 O4       7.4229  11.0842   2.0587   O.3       2 RES2   0.0000
    22 C7       8.0762   2.0658   2.9027   C.ar      2 RES2   0.0000
    23 C8       7.8470   2.7954   1.7307   C.ar      2 RES2   0.0000
    24 C9       7.2496   2.1720   4.0624   C.2       2 RES2   0.0000
    25 H1       7.4829   1.6323   4.7830   H         2 RES2   0.0000
    26 C10      3.4398   5.2339   0.9113   C.ar      2 RES2   0.0000
    27 C11      3.1956   3.8513   1.1364   C.ar      2 RES2   0.0000
    28 C12      4.9270   6.9724   1.3985   C.2       2 RES2   0.0000
    29 H2       4.4405   7.4558   0.7706   H         2 RES2   0.0000
    30 C13      5.9864   7.6620   2.0491   C.ar      2 RES2   0.0000
    31 C14      6.8453   7.0630   3.0098   C.ar      2 RES2   0.0000
    32 C15      4.4298   3.8262   5.5515   C.ar      2 RES2   0.0000
    33 C16      5.4681   2.8655   5.4294   C.ar      2 RES2   0.0000
    34 C17      8.7115   2.5755   0.6341   C.ar      2 RES2   0.0000
    35 H3       8.5857   3.0589  -0.1499   H         2 RES2   0.0000
    36 C18      9.9443   0.9389   1.8459   C.ar      2 RES2   0.0000
    37 C19      9.1340   1.1287   2.9466   C.ar      2 RES2   0.0000
    38 H4       9.2855   0.6378   3.7214   H         2 RES2   0.0000
    39 C20      2.1167   3.1866   0.5188   C.ar      2 RES2   0.0000
    40 C21      6.1851   9.0249   1.7183   C.ar      2 RES2   0.0000
    41 H5       5.6329   9.4234   1.0845   H         2 RES2   0.0000
    42 C22      3.8730   1.8949   2.1698   C.ar      2 RES2   0.0000
    43 H6       4.4624   1.4396   2.7267   H         2 RES2   0.0000
    44 C23      2.5644   5.9191   0.1098   C.ar      2 RES2   0.0000
    45 H7       2.6933   6.8277  -0.0430   H         2 RES2   0.0000
    46 C24      1.4791   5.2657  -0.4817   C.ar      2 RES2   0.0000
    47 H8       0.9020   5.7531  -1.0240   H         2 RES2   0.0000
    48 C25      3.3173   5.6114   4.6018   C.ar      2 RES2   0.0000
    49 H9       3.1977   6.2059   3.8967   H         2 RES2   0.0000
    50 C26      1.2378   3.9420  -0.2896   C.ar      2 RES2   0.0000
    51 H10      0.5004   3.5372  -0.6872   H         2 RES2   0.0000
    52 C27      7.8779   7.8399   3.5533   C.ar      2 RES2   0.0000
    53 H11      8.4756   7.4546   4.1516   H         2 RES2   0.0000
    54 C28      7.1678   9.7685   2.3085   C.ar      2 RES2   0.0000
    55 C29      9.7220   1.6730   0.7041   C.ar      2 RES2   0.0000
    56 H12     10.2742   1.5486  -0.0343   H         2 RES2   0.0000
    57 C30      2.8321   1.1771   1.5673   C.ar      2 RES2   0.0000
    58 H13      2.7418   0.2647   1.7207   H         2 RES2   0.0000
    59 C31      3.6287   3.8813   6.7071   C.ar      2 RES2   0.0000
    60 C32      5.6478   1.9784   6.4587   C.ar      2 RES2   0.0000
    61 H14      6.3136   1.3327   6.3959   H         2 RES2   0.0000
    62 C33      1.9649   1.8171   0.7658   C.ar      2 RES2   0.0000
    63 H15      1.2625   1.3495   0.3755   H         2 RES2   0.0000
    64 C34      8.0163   9.1533   3.2156   C.ar      2 RES2   0.0000
    65 H16      8.6998   9.6508   3.6036   H         2 RES2   0.0000
    66 C35      4.8450   2.0326   7.5992   C.ar      2 RES2   0.0000
    67 H17      4.9798   1.4151   8.2811   H         2 RES2   0.0000
    68 C36      2.4959   5.7210   5.7300   C.ar      2 RES2   0.0000
    69 H18      1.8401   6.3807   5.7620   H         2 RES2   0.0000
    70 C37      3.8819   2.9588   7.7310   C.ar      2 RES2   0.0000
    71 H19      3.3760   2.9885   8.5109   H         2 RES2   0.0000
    72 C38      2.6475   4.8811   6.7648   C.ar      2 RES2   0.0000
    73 H20      2.1058   4.9623   7.5166   H         2 RES2   0.0000
    74 C39     11.0810  -0.9354   2.8217   C.3       2 RES2   0.0000
    75 H21     11.8462  -1.4930   2.6630   H         2 RES2   0.0000
    76 H22     10.2869  -1.4748   2.8239   H         2 RES2   0.0000
    77 H23     11.1739  -0.4998   3.6725   H         2 RES2   0.0000
    78 C40      6.4802  11.7925   1.3546   C.3       2 RES2   0.0000
    79 H24      6.3164  11.3587   0.5139   H         2 RES2   0.0000
    80 H25      6.7999  12.6835   1.1985   H         2 RES2   0.0000
    81 H26      5.6645  11.8286   1.8599   H         2 RES2   0.0000
    82 S1      -4.6515   2.8001  11.0631   S.2       3 RES3  -1.0000
    83 N5      -6.0808   0.4467  10.6406   N.1       3 RES3   0.0000
    84 C41     -5.4757   1.4465  10.8066   C.1       3 RES3   0.0000
@<TRIPOS>BOND
     1     1     7    1
     2     2    12    1
     3     3     9    1
     4     4    10    1
     5     5     8    1
     6     6    11    1
     7     7     8   ar
     8     8     9   ar
     9     9    11   ar
    10    10     7   ar
    11    11    12   ar
    12    12    10   ar
    13    13    14    1
    14    14    23    1
    15    15    13    1
    16    16    13    1
    17    17    13    1
    18    18    36    1
    19    19    13    1
    20    20    13    1
    21    21    54    1
    22    22    23   ar
    23    23    34   ar
    24    24    17    2
    25    25    24    1
    26    26    16    1
    27    27    19   ar
    28    28    16    2
    29    29    28    1
    30    30    28    1
    31    31    15    1
    32    32    20   ar
    33    33    17    1
    34    34    35    1
    35    36    37   ar
    36    37    22   ar
    37    38    37    1
    38    39    27   ar
    39    40    30   ar
    40    41    40    1
    41    42    19   ar
    42    43    42    1
    43    44    26   ar
    44    45    44    1
    45    46    44   ar
    46    47    46    1
    47    48    20   ar
    48    49    48    1
    49    50    39   ar
    50    51    50    1
    51    52    31   ar
    52    53    52    1
    53    54    40   ar
    54    55    34   ar
    55    56    55    1
    56    57    42   ar
    57    58    57    1
    58    59    32   ar
    59    60    33   ar
    60    61    60    1
    61    62    39   ar
    62    63    62    1
    63    64    52   ar
    64    65    64    1
    65    66    60   ar
    66    67    66    1
    67    68    48   ar
    68    69    68    1
    69    70    59   ar
    70    71    70    1
    71    72    59   ar
    72    73    72    1
    73    74    18    1
    74    75    74    1
    75    76    74    1
    76    77    74    1
    77    78    21    1
    78    79    78    1
    79    80    78    1
    80    81    78    1
    81    22    24    1
    82    26    27   ar
    83    30    31   ar
    84    32    33   ar
    85    36    55   ar
    86    46    50   ar
    87    54    64   ar
    88    57    62   ar
    89    66    70   ar
    90    68    72   ar
    91    82    84    1
    92    83    84    3
@<TRIPOS>SUBSTRUCTURE
     1 RES1        1 GROUP             0 ****  ****    0  
     2 RES2       13 GROUP             0 ****  ****    0  
     3 RES3       82 GROUP             0 ****  ****    0  
@<TRIPOS>CRYSIN
   11.6686   12.8789   14.0665   95.9110  101.1410   90.1430     2     1
