@<TRIPOS>MOLECULE
OPEVUD40
    90    97     4     0     0
SMALL
USER_CHARGES
****
Generated from the CSD

@<TRIPOS>ATOM
     1 I1       6.5159  10.6867   8.6834   I         1 RES1   0.0000
     2 I2      11.3216   8.9142   5.3873   I         1 RES1   0.0000
     3 I3       9.9712   6.1916  10.6319   I         1 RES1   0.0000
     4 F1       7.7020   8.3394  10.3958   F         1 RES1   0.0000
     5 F2      11.4277   6.9972   7.9174   F         1 RES1   0.0000
     6 F3       8.7892  10.5862   6.4181   F         1 RES1   0.0000
     7 C1       8.1902   9.4831   8.4190   C.ar      1 RES1   0.0000
     8 C2       8.4904   8.5006   9.3320   C.ar      1 RES1   0.0000
     9 C3       9.5885   7.6344   9.1996   C.ar      1 RES1   0.0000
    10 C4      10.1392   8.7973   7.1297   C.ar      1 RES1   0.0000
    11 C5       9.0498   9.6281   7.3270   C.ar      1 RES1   0.0000
    12 C6      10.3722   7.8053   8.0878   C.ar      1 RES1   0.0000
    13 Fe1      3.4693   6.8667  11.1443   Fe        2 RES2   1.0000
    14 O1       2.3602   5.5422  10.4409   O.3       2 RES2   0.0000
    15 O2       2.2505   7.3683  12.4812   O.3       2 RES2   0.0000
    16 O3       1.2911   0.4058  12.1600   O.3       2 RES2   0.0000
    17 O4      -1.8944  11.0427  12.4685   O.3       2 RES2   0.0000
    18 N1       2.7468   8.1257   9.8181   N.2       2 RES2   0.0000
    19 N2       4.3296   5.6361  12.4206   N.2       2 RES2   0.0000
    20 N3       4.7897   8.1525  11.9289   N.ar      2 RES2   0.0000
    21 N4       4.7867   6.5303   9.6646   N.ar      2 RES2   0.0000
    22 C7       5.4596   6.1776  13.0815   C.ar      2 RES2   0.0000
    23 C8       5.6469   7.5708  12.8250   C.ar      2 RES2   0.0000
    24 C9       0.9720   9.0019  11.2272   C.ar      2 RES2   0.0000
    25 C10      1.7084   8.8978  10.0084   C.2       2 RES2   0.0000
    26 H1       1.4223   9.4335   9.2768   H         2 RES2   0.0000
    27 C11      3.8951   4.4516  12.7137   C.2       2 RES2   0.0000
    28 H2       4.3215   3.9909  13.4261   H         2 RES2   0.0000
    29 C12      4.5129   7.2479   8.5162   C.ar      2 RES2   0.0000
    30 C13      2.1235   4.3523  10.9566   C.ar      2 RES2   0.0000
    31 C14     -0.0851   9.9518  11.2272   C.ar      2 RES2   0.0000
    32 H3      -0.2639  10.4592  10.4439   H         2 RES2   0.0000
    33 C15      3.4067   8.1193   8.5697   C.ar      2 RES2   0.0000
    34 C16      1.2869   8.2531  12.3840   C.ar      2 RES2   0.0000
    35 C17      2.8296   3.7905  12.0486   C.ar      2 RES2   0.0000
    36 C18      6.6989   8.2755  13.4577   C.ar      2 RES2   0.0000
    37 C19      6.3287   5.5186  13.9156   C.ar      2 RES2   0.0000
    38 H4       6.2158   4.5906  14.0852   H         2 RES2   0.0000
    39 C20      1.1135   3.5500  10.3536   C.ar      2 RES2   0.0000
    40 H5       0.6043   3.9003   9.6325   H         2 RES2   0.0000
    41 C21      2.5382   2.4551  12.4770   C.ar      2 RES2   0.0000
    42 H6       3.0140   2.0829  13.2103   H         2 RES2   0.0000
    43 C22      7.5603   7.5852  14.3144   C.ar      2 RES2   0.0000
    44 H7       8.2638   8.0482  14.7544   H         2 RES2   0.0000
    45 C23      0.4616   8.4896  13.5281   C.ar      2 RES2   0.0000
    46 H8       0.6263   7.9983  14.3248   H         2 RES2   0.0000
    47 C24      5.8229   5.7024   9.6575   C.ar      2 RES2   0.0000
    48 H9       6.0251   5.2142  10.4468   H         2 RES2   0.0000
    49 C25      1.5951   1.7158  11.8486   C.ar      2 RES2   0.0000
    50 C26      5.2957   7.1088   7.3453   C.ar      2 RES2   0.0000
    51 C27      0.8678   2.2795  10.8016   C.ar      2 RES2   0.0000
    52 H10      0.1821   1.7688  10.3871   H         2 RES2   0.0000
    53 C28     -0.8517  10.1432  12.3544   C.ar      2 RES2   0.0000
    54 C29      4.9161   9.4478  11.6907   C.ar      2 RES2   0.0000
    55 H11      4.3314   9.8598  11.0651   H         2 RES2   0.0000
    56 C30     -0.5501   9.3972  13.5084   C.ar      2 RES2   0.0000
    57 H12     -1.0675   9.5307  14.2945   H         2 RES2   0.0000
    58 C31      3.0875   8.8608   7.4481   C.ar      2 RES2   0.0000
    59 H13      2.3498   9.4581   7.4662   H         2 RES2   0.0000
    60 C32      6.7730   9.6652  13.1843   C.ar      2 RES2   0.0000
    61 H14      7.4442  10.1958  13.5977   H         2 RES2   0.0000
    62 C33      3.8566   8.7275   6.2829   C.ar      2 RES2   0.0000
    63 H15      3.6287   9.2373   5.5138   H         2 RES2   0.0000
    64 C34      7.3889   6.2271  14.5229   C.ar      2 RES2   0.0000
    65 H16      7.9968   5.7620  15.0855   H         2 RES2   0.0000
    66 C35      5.8908  10.2360  12.3347   C.ar      2 RES2   0.0000
    67 H17      5.9276  11.1716  12.1714   H         2 RES2   0.0000
    68 C36      4.9322   7.8773   6.2322   C.ar      2 RES2   0.0000
    69 H18      5.4370   7.8078   5.4301   H         2 RES2   0.0000
    70 C37      6.6354   5.5209   8.5190   C.ar      2 RES2   0.0000
    71 H19      7.3636   4.9113   8.5475   H         2 RES2   0.0000
    72 C38      6.3806   6.2111   7.3932   C.ar      2 RES2   0.0000
    73 H20      6.9327   6.0928   6.6285   H         2 RES2   0.0000
    74 C39      2.2446  -0.2997  12.9265   C.3       2 RES2   0.0000
    75 H21      3.1354  -0.1706  12.5400   H         2 RES2   0.0000
    76 H22      2.0228  -1.2541  12.9262   H         2 RES2   0.0000
    77 H23      2.2362   0.0370  13.8475   H         2 RES2   0.0000
    78 C40     -2.1180  11.8804  11.3709   C.3       2 RES2   0.0000
    79 H24     -2.3514  11.3387  10.5882   H         2 RES2   0.0000
    80 H25     -1.3053  12.3947  11.1813   H         2 RES2   0.0000
    81 H26     -2.8537  12.4959  11.5728   H         2 RES2   0.0000
    82 S1       7.3151  15.4521  11.4437   S.2       3 RES3  -1.0000
    83 C41      6.2080  14.3114  11.1835   C.1       3 RES3   0.0000
    84 N5       5.4091  13.5071  11.0384   N.1       3 RES3   0.0000
    85 O5       3.8384  11.6883   9.6716   O.3       4 RES4   0.0000
    86 H27      4.3382  12.2884   9.9791   H         4 RES4   0.0000
    87 C42      2.7138  12.2699   9.0981   C.3       4 RES4   0.0000
    88 H28      2.5207  11.8327   8.2421   H         4 RES4   0.0000
    89 H29      2.8818  13.2237   8.9463   H         4 RES4   0.0000
    90 H30      1.9484  12.1641   9.6994   H         4 RES4   0.0000
@<TRIPOS>BOND
     1     1     7    1
     2     2    10    1
     3     3     9    1
     4     4     8    1
     5     5    12    1
     6     6    11    1
     7     7     8   ar
     8     8     9   ar
     9     9    12   ar
    10    10    11   ar
    11    11     7   ar
    12    12    10   ar
    13    13    14    1
    14    14    30    1
    15    15    13    1
    16    16    49    1
    17    17    53    1
    18    18    13    1
    19    19    13    1
    20    20    13    1
    21    21    13    1
    22    22    19    1
    23    23    20   ar
    24    24    25    1
    25    25    18    2
    26    26    25    1
    27    27    19    2
    28    28    27    1
    29    29    21   ar
    30    30    35   ar
    31    31    24   ar
    32    32    31    1
    33    33    18    1
    34    34    15    1
    35    35    27    1
    36    36    23   ar
    37    37    22   ar
    38    38    37    1
    39    39    30   ar
    40    40    39    1
    41    41    35   ar
    42    42    41    1
    43    43    36   ar
    44    44    43    1
    45    45    34   ar
    46    46    45    1
    47    47    21   ar
    48    48    47    1
    49    49    41   ar
    50    50    29   ar
    51    51    39   ar
    52    52    51    1
    53    53    31   ar
    54    54    20   ar
    55    55    54    1
    56    56    45   ar
    57    57    56    1
    58    58    33   ar
    59    59    58    1
    60    60    36   ar
    61    61    60    1
    62    62    58   ar
    63    63    62    1
    64    64    37   ar
    65    65    64    1
    66    66    54   ar
    67    67    66    1
    68    68    50   ar
    69    69    68    1
    70    70    47   ar
    71    71    70    1
    72    72    50   ar
    73    73    72    1
    74    74    16    1
    75    75    74    1
    76    76    74    1
    77    77    74    1
    78    78    17    1
    79    79    78    1
    80    80    78    1
    81    81    78    1
    82    22    23   ar
    83    24    34   ar
    84    29    33   ar
    85    43    64   ar
    86    49    51   ar
    87    53    56   ar
    88    60    66   ar
    89    62    68   ar
    90    70    72   ar
    91    82    83    1
    92    83    84    3
    93    85    86    1
    94    87    85    1
    95    88    87    1
    96    89    87    1
    97    90    87    1
@<TRIPOS>SUBSTRUCTURE
     1 RES1        1 GROUP             0 ****  ****    0  
     2 RES2       13 GROUP             0 ****  ****    0  
     3 RES3       82 GROUP             0 ****  ****    0  
     4 RES4       85 GROUP             0 ****  ****    0  
@<TRIPOS>CRYSIN
   11.5314   12.6314   14.4048   95.4810  100.6240   90.1180     2     1
