@<TRIPOS>MOLECULE
OPEVIR10
    84    92     3     0     0
SMALL
USER_CHARGES
****
Generated from the CSD

@<TRIPOS>ATOM
     1 I1      -2.7002   2.4394   8.5267   I         1 RES1   0.0000
     2 I2       2.0670   0.1909   5.4782   I         1 RES1   0.0000
     3 I3      -0.7483   5.0376   3.4396   I         1 RES1   0.0000
     4 F1      -0.2731   0.5501   7.6426   F         1 RES1   0.0000
     5 F2      -2.4226   4.3865   6.0392   F         1 RES1   0.0000
     6 F3       1.3559   2.7484   3.8460   F         1 RES1   0.0000
     7 C1      -0.5584   3.5796   4.8953   C.ar      1 RES1   0.0000
     8 C2      -1.3621   2.4834   6.8978   C.ar      1 RES1   0.0000
     9 C3      -1.4365   3.4644   5.9349   C.ar      1 RES1   0.0000
    10 C4       0.5798   1.6208   5.7333   C.ar      1 RES1   0.0000
    11 C5      -0.3636   1.5604   6.7428   C.ar      1 RES1   0.0000
    12 C6       0.4649   2.6408   4.8390   C.ar      1 RES1   0.0000
    13 Fe1      5.5966   4.3888   2.8332   Fe        2 RES2   1.0000
    14 O1       6.8547   3.6590   1.5924   O.3       2 RES2   0.0000
    15 O2       6.6976   5.8139   3.4071   O.3       2 RES2   0.0000
    16 N1       6.2201   2.9265   4.2259   N.2       2 RES2   0.0000
    17 N2       4.5729   5.7446   1.5897   N.2       2 RES2   0.0000
    18 O3      10.9835   0.0393   1.7968   O.3       2 RES2   0.0000
    19 N3       4.0495   3.1884   1.9724   N.ar      2 RES2   0.0000
    20 N4       4.2572   4.6877   4.5002   N.ar      2 RES2   0.0000
    21 O4       7.4299  11.0752   2.0560   O.3       2 RES2   0.0000
    22 C7       7.2552   2.1628   4.0613   C.2       2 RES2   0.0000
    23 H1       7.4875   1.6229   4.7813   H         2 RES2   0.0000
    24 C8       3.4318   5.2214   0.9094   C.ar      2 RES2   0.0000
    25 C9       7.8405   2.8018   1.7241   C.ar      2 RES2   0.0000
    26 C10      8.0801   2.0569   2.8982   C.ar      2 RES2   0.0000
    27 C11      3.1890   3.8430   1.1357   C.ar      2 RES2   0.0000
    28 C12      5.9979   7.6572   2.0478   C.ar      2 RES2   0.0000
    29 C13      6.8472   7.0630   3.0052   C.ar      2 RES2   0.0000
    30 C14      4.9301   6.9756   1.3936   C.2       2 RES2   0.0000
    31 H2       4.4436   7.4601   0.7661   H         2 RES2   0.0000
    32 C15      4.4331   3.8178   5.5440   C.ar      2 RES2   0.0000
    33 C16      9.9381   0.9388   1.8476   C.ar      2 RES2   0.0000
    34 C17      8.7047   2.5741   0.6405   C.ar      2 RES2   0.0000
    35 H3       8.5777   3.0530  -0.1458   H         2 RES2   0.0000
    36 C18      5.4672   2.8623   5.4274   C.ar      2 RES2   0.0000
    37 C19      9.1381   1.1208   2.9489   C.ar      2 RES2   0.0000
    38 H4       9.2912   0.6304   3.7238   H         2 RES2   0.0000
    39 C20      2.1118   3.1840   0.5226   C.ar      2 RES2   0.0000
    40 C21      3.8651   1.8956   2.1685   C.ar      2 RES2   0.0000
    41 H5       4.4526   1.4442   2.7321   H         2 RES2   0.0000
    42 C22      6.1887   9.0169   1.7076   C.ar      2 RES2   0.0000
    43 H6       5.6412   9.4127   1.0690   H         2 RES2   0.0000
    44 C23      2.5536   5.9238   0.1084   C.ar      2 RES2   0.0000
    45 H7       2.6806   6.8323  -0.0403   H         2 RES2   0.0000
    46 C24      7.8756   7.8381   3.5689   C.ar      2 RES2   0.0000
    47 H8       8.4590   7.4564   4.1839   H         2 RES2   0.0000
    48 C25      9.7267   1.6710   0.7077   C.ar      2 RES2   0.0000
    49 H9      10.2854   1.5512  -0.0263   H         2 RES2   0.0000
    50 C26      3.6201   3.8755   6.7003   C.ar      2 RES2   0.0000
    51 C27      3.3216   5.6131   4.5853   C.ar      2 RES2   0.0000
    52 H10      3.2059   6.2068   3.8785   H         2 RES2   0.0000
    53 C28      7.1779   9.7601   2.3166   C.ar      2 RES2   0.0000
    54 C29      1.2448   3.9427  -0.2880   C.ar      2 RES2   0.0000
    55 H11      0.5153   3.5343  -0.6958   H         2 RES2   0.0000
    56 C30      1.4719   5.2590  -0.4759   C.ar      2 RES2   0.0000
    57 H12      0.8871   5.7423  -1.0136   H         2 RES2   0.0000
    58 C31      5.6508   1.9624   6.4507   C.ar      2 RES2   0.0000
    59 H13      6.3147   1.3146   6.3815   H         2 RES2   0.0000
    60 C32      2.4953   5.7246   5.7196   C.ar      2 RES2   0.0000
    61 H14      1.8418   6.3855   5.7526   H         2 RES2   0.0000
    62 C33      1.9668   1.8048   0.7681   C.ar      2 RES2   0.0000
    63 H15      1.2713   1.3331   0.3700   H         2 RES2   0.0000
    64 C34      2.8282   1.1719   1.5705   C.ar      2 RES2   0.0000
    65 H16      2.7391   0.2599   1.7293   H         2 RES2   0.0000
    66 C35      8.0197   9.1500   3.2178   C.ar      2 RES2   0.0000
    67 H17      8.7075   9.6457   3.6002   H         2 RES2   0.0000
    68 C36      2.6437   4.8801   6.7552   C.ar      2 RES2   0.0000
    69 H18      2.1003   4.9615   7.5054   H         2 RES2   0.0000
    70 C37      4.8467   2.0147   7.5973   C.ar      2 RES2   0.0000
    71 H19      4.9802   1.3982   8.2812   H         2 RES2   0.0000
    72 C38      3.8787   2.9500   7.7221   C.ar      2 RES2   0.0000
    73 H20      3.3726   2.9800   8.5022   H         2 RES2   0.0000
    74 C39     11.0863  -0.9375   2.8049   C.3       2 RES2   0.0000
    75 H21     11.8776  -1.4625   2.6613   H         2 RES2   0.0000
    76 H22     10.3148  -1.5080   2.7772   H         2 RES2   0.0000
    77 H23     11.1377  -0.5091   3.6619   H         2 RES2   0.0000
    78 C40      6.4809  11.7985   1.3236   C.3       2 RES2   0.0000
    79 H24      6.3397  11.3736   0.4743   H         2 RES2   0.0000
    80 H25      6.7988  12.6941   1.1836   H         2 RES2   0.0000
    81 H26      5.6536  11.8255   1.8095   H         2 RES2   0.0000
    82 S1      -4.6549   2.7798  11.0587   S.2       3 RES3  -1.0000
    83 C41     -5.4833   1.4430  10.7973   C.1       3 RES3   0.0000
    84 N5      -6.0893   0.4415  10.6286   N.1       3 RES3   0.0000
@<TRIPOS>BOND
     1     1     8    1
     2     2    10    1
     3     3     7    1
     4     4    11    1
     5     5     9    1
     6     6    12    1
     7     7     9   ar
     8     8     9   ar
     9    10    11   ar
    10    11     8   ar
    11    12     7   ar
    12    10    12   ar
    13    13    14    1
    14    14    25    1
    15    15    13    1
    16    16    13    1
    17    17    13    1
    18    18    33    1
    19    19    13    1
    20    20    13    1
    21    21    53    1
    22    22    16    2
    23    23    22    1
    24    24    17    1
    25    25    26   ar
    26    26    22    1
    27    27    19   ar
    28    28    29   ar
    29    29    15    1
    30    30    17    2
    31    31    30    1
    32    32    20   ar
    33    33    37   ar
    34    34    25   ar
    35    35    34    1
    36    36    16    1
    37    37    26   ar
    38    38    37    1
    39    39    27   ar
    40    40    19   ar
    41    41    40    1
    42    42    28   ar
    43    43    42    1
    44    44    24   ar
    45    45    44    1
    46    46    29   ar
    47    47    46    1
    48    48    33   ar
    49    49    48    1
    50    50    32   ar
    51    51    20   ar
    52    52    51    1
    53    53    42   ar
    54    54    39   ar
    55    55    54    1
    56    56    44   ar
    57    57    56    1
    58    58    36   ar
    59    59    58    1
    60    60    51   ar
    61    61    60    1
    62    62    39   ar
    63    63    62    1
    64    64    40   ar
    65    65    64    1
    66    66    46   ar
    67    67    66    1
    68    68    50   ar
    69    69    68    1
    70    70    58   ar
    71    71    70    1
    72    72    50   ar
    73    73    72    1
    74    74    18    1
    75    75    74    1
    76    76    74    1
    77    77    74    1
    78    78    21    1
    79    79    78    1
    80    80    78    1
    81    81    78    1
    82    24    27   ar
    83    28    30    1
    84    32    36   ar
    85    34    48   ar
    86    53    66   ar
    87    54    56   ar
    88    60    68   ar
    89    62    64   ar
    90    70    72   ar
    91    82    83    1
    92    83    84    3
@<TRIPOS>SUBSTRUCTURE
     1 RES1        1 GROUP             0 ****  ****    0  
     2 RES2       13 GROUP             0 ****  ****    0  
     3 RES3       82 GROUP             0 ****  ****    0  
@<TRIPOS>CRYSIN
   11.6647   12.8722   14.0602   95.9720  101.1580   90.1170     2     1
