@<TRIPOS>MOLECULE
OPEVIR32
    84    92     3     0     0
SMALL
USER_CHARGES
****
Generated from the CSD

@<TRIPOS>ATOM
     1 I1      14.6904  10.4058   8.3664   I         1 RES1   0.0000
     2 I2       9.7376  12.3257   5.3952   I         1 RES1   0.0000
     3 I3      12.7120   7.5181   3.4438   I         1 RES1   0.0000
     4 F1      14.4237   8.3406   5.9907   F         1 RES1   0.0000
     5 F2      12.1375  12.1531   7.4952   F         1 RES1   0.0000
     6 F3      10.5161   9.7188   3.8223   F         1 RES1   0.0000
     7 C1      12.4755   9.0202   4.8637   C.ar      1 RES1   0.0000
     8 C2      12.2562  11.1172   6.6465   C.ar      1 RES1   0.0000
     9 C3      13.4083   9.2091   5.8739   C.ar      1 RES1   0.0000
    10 C4      13.3100  10.2214   6.7945   C.ar      1 RES1   0.0000
    11 C5      11.2953  10.9782   5.6703   C.ar      1 RES1   0.0000
    12 C6      11.4402   9.8993   4.7727   C.ar      1 RES1   0.0000
    13 Fe1      6.4229   8.2100   2.8619   Fe        2 RES2   1.0000
    14 O1       5.2438   6.9781   3.5806   O.3       2 RES2   0.0000
    15 O2       5.2167   8.7125   1.5235   O.3       2 RES2   0.0000
    16 O3       0.8986  12.1303   1.6728   O.3       2 RES2   0.0000
    17 N1       7.7714   9.4251   2.0802   N.ar      2 RES2   0.0000
    18 N2       5.7448   9.5104   4.1495   N.2       2 RES2   0.0000
    19 N3       7.2319   6.9467   1.6307   N.2       2 RES2   0.0000
    20 N4       7.7189   7.8203   4.3206   N.ar      2 RES2   0.0000
    21 O4       4.0799   1.8021   2.0598   O.3       2 RES2   0.0000
    22 C7       4.6846  10.2096   4.0042   C.2       2 RES2   0.0000
    23 H1       4.4158  10.7500   4.7377   H         2 RES2   0.0000
    24 C8       4.9558   5.7746   3.0904   C.ar      2 RES2   0.0000
    25 C9       4.1883   9.5108   1.6579   C.ar      2 RES2   0.0000
    26 C10      5.6886   5.1553   2.0313   C.ar      2 RES2   0.0000
    27 C11      8.3736   7.4231   0.9573   C.ar      2 RES2   0.0000
    28 C12      6.7579   5.7636   1.3524   C.2       2 RES2   0.0000
    29 H2       7.1646   5.2800   0.6431   H         2 RES2   0.0000
    30 C13      8.6187   8.8010   1.2085   C.ar      2 RES2   0.0000
    31 C14      1.9615  11.2786   1.7543   C.ar      2 RES2   0.0000
    32 C15      3.8759  10.2491   2.8433   C.ar      2 RES2   0.0000
    33 C16      3.3222   9.6899   0.5581   C.ar      2 RES2   0.0000
    34 H3       3.4898   9.2067  -0.2422   H         2 RES2   0.0000
    35 C17      7.5641   8.6533   5.3973   C.ar      2 RES2   0.0000
    36 C18      6.5222   9.5849   5.3322   C.ar      2 RES2   0.0000
    37 C19      2.7689  11.1301   2.8623   C.ar      2 RES2   0.0000
    38 H4       2.5803  11.6265   3.6503   H         2 RES2   0.0000
    39 C20      7.9484  10.7194   2.3151   C.ar      2 RES2   0.0000
    40 H5       7.3726  11.1543   2.9332   H         2 RES2   0.0000
    41 C21      9.2170   6.7363   0.1399   C.ar      2 RES2   0.0000
    42 H6       9.0687   5.8124  -0.0277   H         2 RES2   0.0000
    43 C22      8.6654   6.9051   4.3572   C.ar      2 RES2   0.0000
    44 H7       8.7815   6.3348   3.6074   H         2 RES2   0.0000
    45 C23      5.3673   3.8233   1.6565   C.ar      2 RES2   0.0000
    46 H8       5.8415   3.4167   0.9413   H         2 RES2   0.0000
    47 C24      9.6829   9.4547   0.5676   C.ar      2 RES2   0.0000
    48 C25      3.9099   5.0413   3.6865   C.ar      2 RES2   0.0000
    49 H9       3.3739   5.4505   4.3559   H         2 RES2   0.0000
    50 C26      8.3867   8.5584   6.5501   C.ar      2 RES2   0.0000
    51 C27      4.3944   3.1118   2.3001   C.ar      2 RES2   0.0000
    52 C28      2.2603  10.5289   0.6083   C.ar      2 RES2   0.0000
    53 H10      1.7016  10.6116  -0.1555   H         2 RES2   0.0000
    54 C29     10.5303   8.7225  -0.2661   C.ar      2 RES2   0.0000
    55 H11     11.2615   9.1477  -0.6995   H         2 RES2   0.0000
    56 C30      9.5152   6.7432   5.4775   C.ar      2 RES2   0.0000
    57 H12     10.1692   6.0545   5.4773   H         2 RES2   0.0000
    58 C31      9.4041   7.5585   6.5406   C.ar      2 RES2   0.0000
    59 H13      9.9962   7.4695   7.2785   H         2 RES2   0.0000
    60 C32      7.1795  10.3962   7.5210   C.ar      2 RES2   0.0000
    61 H14      7.0549  11.0122   8.2327   H         2 RES2   0.0000
    62 C33      3.6524   3.7452   3.3117   C.ar      2 RES2   0.0000
    63 H15      2.9571   3.2656   3.7464   H         2 RES2   0.0000
    64 C34      0.7691  13.0920   2.6980   C.3       2 RES2   0.0000
    65 H16      0.0351  13.7036   2.4805   H         2 RES2   0.0000
    66 H17      1.6042  13.5984   2.7773   H         2 RES2   0.0000
    67 H18      0.5784  12.6405   3.5462   H         2 RES2   0.0000
    68 C35      8.1701   9.4586   7.5984   C.ar      2 RES2   0.0000
    69 H19      8.7185   9.4186   8.3738   H         2 RES2   0.0000
    70 C36     10.2983   7.3872  -0.4508   C.ar      2 RES2   0.0000
    71 H20     10.8926   6.8889  -0.9989   H         2 RES2   0.0000
    72 C37      9.8300  10.8551   0.8310   C.ar      2 RES2   0.0000
    73 H21     10.5264  11.3506   0.4173   H         2 RES2   0.0000
    74 C38      8.9585  11.4707   1.6837   C.ar      2 RES2   0.0000
    75 H22      9.0322  12.4036   1.8496   H         2 RES2   0.0000
    76 C39      6.3377  10.4546   6.3845   C.ar      2 RES2   0.0000
    77 H23      5.6404  11.0981   6.3467   H         2 RES2   0.0000
    78 C40      5.0017   1.0629   1.2709   C.3       2 RES2   0.0000
    79 H24      5.0767   1.4745   0.3846   H         2 RES2   0.0000
    80 H25      4.6854   0.1403   1.1769   H         2 RES2   0.0000
    81 H26      5.8796   1.0644   1.7068   H         2 RES2   0.0000
    82 S1      16.6277  10.0410  10.9269   S.2       3 RES3  -1.0000
    83 N5      18.5607  12.0241  10.4742   N.1       3 RES3   0.0000
    84 C41     17.7366  11.1762  10.6603   C.1       3 RES3   0.0000
@<TRIPOS>BOND
     1     1    10    1
     2     2    11    1
     3     3     7    1
     4     4     9    1
     5     5     8    1
     6     6    12    1
     7     7     9   ar
     8     8    10   ar
     9     9    10   ar
    10    11     8   ar
    11    12     7   ar
    12    11    12   ar
    13    13    14    1
    14    14    24    1
    15    15    13    1
    16    16    31    1
    17    17    13    1
    18    18    13    1
    19    19    13    1
    20    20    13    1
    21    21    51    1
    22    22    18    2
    23    23    22    1
    24    24    26   ar
    25    25    15    1
    26    26    28    1
    27    27    19    1
    28    28    19    2
    29    29    28    1
    30    30    17   ar
    31    31    37   ar
    32    32    22    1
    33    33    25   ar
    34    34    33    1
    35    35    20   ar
    36    36    18    1
    37    37    32   ar
    38    38    37    1
    39    39    17   ar
    40    40    39    1
    41    41    27   ar
    42    42    41    1
    43    43    20   ar
    44    44    43    1
    45    45    26   ar
    46    46    45    1
    47    47    30   ar
    48    48    24   ar
    49    49    48    1
    50    50    35   ar
    51    51    45   ar
    52    52    31   ar
    53    53    52    1
    54    54    47   ar
    55    55    54    1
    56    56    43   ar
    57    57    56    1
    58    58    50   ar
    59    59    58    1
    60    60    61    1
    61    62    48   ar
    62    63    62    1
    63    64    16    1
    64    65    64    1
    65    66    64    1
    66    67    64    1
    67    68    50   ar
    68    69    68    1
    69    70    41   ar
    70    71    70    1
    71    72    47   ar
    72    73    72    1
    73    74    39   ar
    74    75    74    1
    75    76    36   ar
    76    77    76    1
    77    78    21    1
    78    79    78    1
    79    80    78    1
    80    81    78    1
    81    25    32   ar
    82    27    30   ar
    83    33    52   ar
    84    35    36   ar
    85    51    62   ar
    86    54    70   ar
    87    56    58   ar
    88    60    68   ar
    89    60    76   ar
    90    72    74   ar
    91    82    84    1
    92    83    84    3
@<TRIPOS>SUBSTRUCTURE
     1 RES1        1 GROUP             0 ****  ****    0  
     2 RES2       13 GROUP             0 ****  ****    0  
     3 RES3       82 GROUP             0 ****  ****    0  
@<TRIPOS>CRYSIN
   11.7348   12.3780   14.0102   83.1960   77.4400   89.3130     2     1
