@<TRIPOS>MOLECULE
OPEVIR13
    84    92     3     0     0
SMALL
USER_CHARGES
****
Generated from the CSD

@<TRIPOS>ATOM
     1 I1      -2.7034   2.3830   8.5023   I         1 RES1   0.0000
     2 I2       2.0749   0.1698   5.4499   I         1 RES1   0.0000
     3 I3      -0.7546   5.0234   3.4371   I         1 RES1   0.0000
     4 F1      -0.2670   0.5061   7.6196   F         1 RES1   0.0000
     5 F2      -2.4313   4.3513   6.0298   F         1 RES1   0.0000
     6 F3       1.3499   2.7381   3.8242   F         1 RES1   0.0000
     7 C1      -1.3641   2.4419   6.8849   C.ar      1 RES1   0.0000
     8 C2      -1.4374   3.4342   5.9162   C.ar      1 RES1   0.0000
     9 C3       0.5970   1.5969   5.7178   C.ar      1 RES1   0.0000
    10 C4      -0.5523   3.5612   4.8887   C.ar      1 RES1   0.0000
    11 C5       0.4691   2.6226   4.8298   C.ar      1 RES1   0.0000
    12 C6      -0.3478   1.5199   6.7234   C.ar      1 RES1   0.0000
    13 Fe1      5.5846   4.3694   2.8291   Fe        2 RES2   1.0000
    14 O1       6.6880   5.7891   3.4082   O.3       2 RES2   0.0000
    15 O2       6.8410   3.6467   1.5858   O.3       2 RES2   0.0000
    16 N1       6.2066   2.8996   4.2086   N.2       2 RES2   0.0000
    17 N2       4.5708   5.7230   1.5871   N.2       2 RES2   0.0000
    18 O3      10.9813   0.0428   1.7883   O.3       2 RES2   0.0000
    19 N3       4.0441   3.1751   1.9702   N.ar      2 RES2   0.0000
    20 N4       4.2504   4.6664   4.4878   N.ar      2 RES2   0.0000
    21 O4       7.4381  11.0541   2.0537   O.3       2 RES2   0.0000
    22 C7       7.2469   2.1502   4.0540   C.2       2 RES2   0.0000
    23 H1       7.4894   1.6187   4.7769   H         2 RES2   0.0000
    24 C8       3.4288   5.2107   0.9044   C.ar      2 RES2   0.0000
    25 C9       7.8328   2.7989   1.7157   C.ar      2 RES2   0.0000
    26 C10      4.9312   6.9551   1.3846   C.2       2 RES2   0.0000
    27 H2       4.4498   7.4384   0.7528   H         2 RES2   0.0000
    28 C11      6.8435   7.0266   3.0073   C.ar      2 RES2   0.0000
    29 C12      3.1906   3.8339   1.1370   C.ar      2 RES2   0.0000
    30 C13      8.0641   2.0560   2.8897   C.ar      2 RES2   0.0000
    31 C14      5.4560   2.8364   5.4141   C.ar      2 RES2   0.0000
    32 C15      9.9377   0.9319   1.8416   C.ar      2 RES2   0.0000
    33 C16      4.4151   3.8060   5.5290   C.ar      2 RES2   0.0000
    34 C17      6.0005   7.6355   2.0455   C.ar      2 RES2   0.0000
    35 C18      9.1304   1.1202   2.9444   C.ar      2 RES2   0.0000
    36 H3       9.2849   0.6349   3.7225   H         2 RES2   0.0000
    37 C19      8.6923   2.5687   0.6321   C.ar      2 RES2   0.0000
    38 H4       8.5615   3.0426  -0.1571   H         2 RES2   0.0000
    39 C20      9.7107   1.6694   0.7046   C.ar      2 RES2   0.0000
    40 H5      10.2664   1.5526  -0.0314   H         2 RES2   0.0000
    41 C21      2.1051   3.1703   0.5103   C.ar      2 RES2   0.0000
    42 C22      3.8688   1.8736   2.1618   C.ar      2 RES2   0.0000
    43 H6       4.4613   1.4190   2.7158   H         2 RES2   0.0000
    44 C23      6.1963   8.9818   1.7048   C.ar      2 RES2   0.0000
    45 H7       5.6473   9.3739   1.0651   H         2 RES2   0.0000
    46 C24      3.6121   3.8501   6.6810   C.ar      2 RES2   0.0000
    47 C25      2.5499   5.9094   0.1163   C.ar      2 RES2   0.0000
    48 H8       2.6772   6.8199  -0.0247   H         2 RES2   0.0000
    49 C26      7.1863   9.7361   2.3013   C.ar      2 RES2   0.0000
    50 C27      7.8684   7.8207   3.5574   C.ar      2 RES2   0.0000
    51 H9       8.4564   7.4388   4.1692   H         2 RES2   0.0000
    52 C28      1.4619   5.2578  -0.4802   C.ar      2 RES2   0.0000
    53 H10      0.8771   5.7465  -1.0122   H         2 RES2   0.0000
    54 C29      1.2387   3.9293  -0.2996   C.ar      2 RES2   0.0000
    55 H11      0.5127   3.5212  -0.7131   H         2 RES2   0.0000
    56 C30      1.9584   1.7984   0.7689   C.ar      2 RES2   0.0000
    57 H12      1.2515   1.3313   0.3855   H         2 RES2   0.0000
    58 C31      5.6225   1.9423   6.4347   C.ar      2 RES2   0.0000
    59 H13      6.2784   1.2865   6.3653   H         2 RES2   0.0000
    60 C32      3.3132   5.5955   4.5740   C.ar      2 RES2   0.0000
    61 H14      3.1971   6.1902   3.8685   H         2 RES2   0.0000
    62 C33      8.0235   9.1164   3.2222   C.ar      2 RES2   0.0000
    63 H15      8.7065   9.6088   3.6174   H         2 RES2   0.0000
    64 C34      2.8201   1.1583   1.5611   C.ar      2 RES2   0.0000
    65 H16      2.7280   0.2449   1.7126   H         2 RES2   0.0000
    66 C35      2.6319   4.8506   6.7371   C.ar      2 RES2   0.0000
    67 H17      2.0837   4.9237   7.4847   H         2 RES2   0.0000
    68 C36      2.4843   5.7044   5.7096   C.ar      2 RES2   0.0000
    69 H18      1.8355   6.3692   5.7470   H         2 RES2   0.0000
    70 C37      4.8286   1.9992   7.5758   C.ar      2 RES2   0.0000
    71 H19      4.9765   1.3936   8.2662   H         2 RES2   0.0000
    72 C38      3.8491   2.9165   7.6990   C.ar      2 RES2   0.0000
    73 H20      3.3252   2.9306   8.4676   H         2 RES2   0.0000
    74 C39     11.0622  -0.9492   2.8007   C.3       2 RES2   0.0000
    75 H21     11.8204  -1.5147   2.6357   H         2 RES2   0.0000
    76 H22     10.2612  -1.4791   2.7948   H         2 RES2   0.0000
    77 H23     11.1591  -0.5263   3.6572   H         2 RES2   0.0000
    78 C40      6.4960  11.7733   1.3135   C.3       2 RES2   0.0000
    79 H24      6.3877  11.3648   0.4511   H         2 RES2   0.0000
    80 H25      6.7979  12.6774   1.2036   H         2 RES2   0.0000
    81 H26      5.6553  11.7698   1.7767   H         2 RES2   0.0000
    82 S1      -4.6610   2.7187  11.0280   S.2       3 RES3  -1.0000
    83 C41     -5.5055   1.3723  10.7706   C.1       3 RES3   0.0000
    84 N5      -6.1224   0.3794  10.5873   N.1       3 RES3   0.0000
@<TRIPOS>BOND
     1     1     7    1
     2     2     9    1
     3     3    10    1
     4     4    12    1
     5     5     8    1
     6     6    11    1
     7     7     8   ar
     8     8    10   ar
     9     9    11   ar
    10    10    11   ar
    11    12     7   ar
    12     9    12   ar
    13    13    14    1
    14    14    28    1
    15    15    13    1
    16    16    13    1
    17    17    13    1
    18    18    32    1
    19    19    13    1
    20    20    13    1
    21    21    49    1
    22    22    16    2
    23    23    22    1
    24    24    17    1
    25    25    15    1
    26    26    17    2
    27    27    26    1
    28    28    34   ar
    29    29    19   ar
    30    30    22    1
    31    31    16    1
    32    32    35   ar
    33    33    20   ar
    34    34    26    1
    35    35    30   ar
    36    36    35    1
    37    37    25   ar
    38    38    37    1
    39    39    32   ar
    40    40    39    1
    41    41    29   ar
    42    42    19   ar
    43    43    42    1
    44    44    34   ar
    45    45    44    1
    46    46    33   ar
    47    47    24   ar
    48    48    47    1
    49    49    44   ar
    50    50    28   ar
    51    51    50    1
    52    52    47   ar
    53    53    52    1
    54    54    41   ar
    55    55    54    1
    56    56    41   ar
    57    57    56    1
    58    58    31   ar
    59    59    58    1
    60    60    20   ar
    61    61    60    1
    62    62    49   ar
    63    63    62    1
    64    64    42   ar
    65    65    64    1
    66    66    46   ar
    67    67    66    1
    68    68    60   ar
    69    69    68    1
    70    70    58   ar
    71    71    70    1
    72    72    46   ar
    73    73    72    1
    74    74    18    1
    75    75    74    1
    76    76    74    1
    77    77    74    1
    78    78    21    1
    79    79    78    1
    80    80    78    1
    81    81    78    1
    82    24    29   ar
    83    25    30   ar
    84    31    33   ar
    85    37    39   ar
    86    50    62   ar
    87    52    54   ar
    88    56    64   ar
    89    66    68   ar
    90    70    72   ar
    91    82    83    1
    92    83    84    3
@<TRIPOS>SUBSTRUCTURE
     1 RES1        1 GROUP             0 ****  ****    0  
     2 RES2       13 GROUP             0 ****  ****    0  
     3 RES3       82 GROUP             0 ****  ****    0  
@<TRIPOS>CRYSIN
   11.6469   12.8411   14.0342   96.2020  101.2130   90.0650     2     1
