@<TRIPOS>MOLECULE
OPEVIR03
    84    92     3     0     0
SMALL
USER_CHARGES
****
Generated from the CSD

@<TRIPOS>ATOM
     1 I1       0.2269   3.6234   5.2182   I         1 RES1   0.0000
     2 I2       5.1885   1.7103   8.1931   I         1 RES1   0.0000
     3 I3       2.2341   6.5510  10.1028   I         1 RES1   0.0000
     4 F1       2.7724   1.8772   6.0967   F         1 RES1   0.0000
     5 F2       0.5078   5.7116   7.5801   F         1 RES1   0.0000
     6 F3       4.4252   4.3258   9.7329   F         1 RES1   0.0000
     7 C1       2.4533   5.0414   8.6993   C.ar      1 RES1   0.0000
     8 C2       2.6786   2.9181   6.9399   C.ar      1 RES1   0.0000
     9 C3       3.6456   3.0732   7.9166   C.ar      1 RES1   0.0000
    10 C4       1.6174   3.8037   6.7839   C.ar      1 RES1   0.0000
    11 C5       1.5447   4.8463   7.6900   C.ar      1 RES1   0.0000
    12 C6       3.5071   4.1508   8.7752   C.ar      1 RES1   0.0000
    13 Fe1      8.5571   5.8475  10.7126   Fe        2 RES2   1.0000
    14 O1       9.7470   7.0946   9.9860   O.3       2 RES2   0.0000
    15 O2       9.7671   5.3323  12.0523   O.3       2 RES2   0.0000
    16 O3      14.1197   1.9470  11.8762   O.3       2 RES2   0.0000
    17 N1       7.7486   7.1184  11.9399   N.2       2 RES2   0.0000
    18 N2       9.2174   4.5356   9.4263   N.2       2 RES2   0.0000
    19 O4      10.8871  12.2707  11.4909   O.3       2 RES2   0.0000
    20 N3       7.1844   4.6315  11.5018   N.ar      2 RES2   0.0000
    21 N4       7.2585   6.2234   9.2419   N.ar      2 RES2   0.0000
    22 C7      10.2963   3.8341   9.5674   C.2       2 RES2   0.0000
    23 H1      10.5599   3.2980   8.8421   H         2 RES2   0.0000
    24 C8       8.2067   8.3091  12.2031   C.2       2 RES2   0.0000
    25 H2       7.7867   8.7988  12.8871   H         2 RES2   0.0000
    26 C9       7.4002   5.3899   8.1729   C.ar      2 RES2   0.0000
    27 C10      6.5914   6.6446  12.6155   C.ar      2 RES2   0.0000
    28 C11      9.2994   8.9205  11.5276   C.ar      2 RES2   0.0000
    29 C12     10.0149   8.2865  10.4776   C.ar      2 RES2   0.0000
    30 C13      6.3364   5.2741  12.3713   C.ar      2 RES2   0.0000
    31 C14      8.4497   4.4422   8.2380   C.ar      2 RES2   0.0000
    32 C15     10.8080   4.5448  11.9006   C.ar      2 RES2   0.0000
    33 C16      9.5947  10.2545  11.8965   C.ar      2 RES2   0.0000
    34 H3       9.1168  10.6623  12.5960   H         2 RES2   0.0000
    35 C17      5.2603   4.6137  13.0021   C.ar      2 RES2   0.0000
    36 C18      6.3073   7.1517   9.1998   C.ar      2 RES2   0.0000
    37 H4       6.1968   7.7237   9.9367   H         2 RES2   0.0000
    38 C19     12.2257   2.9270  10.6960   C.ar      2 RES2   0.0000
    39 H5      12.4077   2.4309   9.9190   H         2 RES2   0.0000
    40 C20     11.1121   3.8100  10.7286   C.ar      2 RES2   0.0000
    41 C21     10.5790  10.9611  11.2386   C.ar      2 RES2   0.0000
    42 C22     13.0396   2.7949  11.7962   C.ar      2 RES2   0.0000
    43 C23      6.5726   5.4640   7.0253   C.ar      2 RES2   0.0000
    44 C24     11.6787   4.3752  12.9980   C.ar      2 RES2   0.0000
    45 H6      11.5114   4.8530  13.7902   H         2 RES2   0.0000
    46 C25      5.7370   7.3524  13.4212   C.ar      2 RES2   0.0000
    47 H7       5.8840   8.2674  13.5765   H         2 RES2   0.0000
    48 C26      7.7831   3.6077   6.0853   C.ar      2 RES2   0.0000
    49 H8       7.9058   2.9916   5.3865   H         2 RES2   0.0000
    50 C27     11.0652   9.0242   9.8808   C.ar      2 RES2   0.0000
    51 H9      11.5950   8.6182   9.2198   H         2 RES2   0.0000
    52 C28      7.0046   3.3293  11.2888   C.ar      2 RES2   0.0000
    53 H10      7.5835   2.8823  10.6984   H         2 RES2   0.0000
    54 C29     11.3234  10.3117  10.2443   C.ar      2 RES2   0.0000
    55 H11     12.0196  10.7773   9.8171   H         2 RES2   0.0000
    56 C30      8.6193   3.5484   7.2125   C.ar      2 RES2   0.0000
    57 H12      9.2943   2.8968   7.2639   H         2 RES2   0.0000
    58 C31      4.4103   5.3732  13.8350   C.ar      2 RES2   0.0000
    59 H13      3.6828   4.9615  14.2652   H         2 RES2   0.0000
    60 C32      6.7964   4.5442   5.9903   C.ar      2 RES2   0.0000
    61 H14      6.2589   4.5734   5.2196   H         2 RES2   0.0000
    62 C33     12.7515   3.5440  12.9438   C.ar      2 RES2   0.0000
    63 H15     13.3127   3.4689  13.6938   H         2 RES2   0.0000
    64 C34      5.5841   6.4748   7.0185   C.ar      2 RES2   0.0000
    65 H16      5.0134   6.5705   6.2772   H         2 RES2   0.0000
    66 C35      5.4607   7.3043   8.0848   C.ar      2 RES2   0.0000
    67 H17      4.8089   7.9815   8.0797   H         2 RES2   0.0000
    68 C36      5.1195   3.2250  12.7511   C.ar      2 RES2   0.0000
    69 H18      4.4295   2.7377  13.1633   H         2 RES2   0.0000
    70 C37      4.6440   6.7033  14.0127   C.ar      2 RES2   0.0000
    71 H19      4.0532   7.2014  14.5478   H         2 RES2   0.0000
    72 C38      5.9859   2.6046  11.9101   C.ar      2 RES2   0.0000
    73 H20      5.8994   1.6831  11.7463   H         2 RES2   0.0000
    74 C39     14.2291   0.9555  10.8724   C.3       2 RES2   0.0000
    75 H21     14.3281   1.3809  10.0069   H         2 RES2   0.0000
    76 H22     13.4305   0.4049  10.8733   H         2 RES2   0.0000
    77 H23     15.0045   0.3999  11.0506   H         2 RES2   0.0000
    78 C40      9.9691  13.0103  12.2641   C.3       2 RES2   0.0000
    79 H24      9.0981  12.9928  11.8369   H         2 RES2   0.0000
    80 H25     10.2740  13.9279  12.3391   H         2 RES2   0.0000
    81 H26      9.9024  12.6184  13.1491   H         2 RES2   0.0000
    82 S1      -1.7426   3.9619   2.6577   S.2       3 RES3  -1.0000
    83 C41     -2.8550   2.7980   2.9273   C.1       3 RES3   0.0000
    84 N5      -3.6585   1.9728   3.1200   N.1       3 RES3   0.0000
@<TRIPOS>BOND
     1     1    10    1
     2     2     9    1
     3     3     7    1
     4     4     8    1
     5     5    11    1
     6     6    12    1
     7     7    11   ar
     8     8     9   ar
     9     9    12   ar
    10    10     8   ar
    11    11    10   ar
    12    12     7   ar
    13    13    14    1
    14    14    29    1
    15    15    13    1
    16    16    42    1
    17    17    13    1
    18    18    13    1
    19    19    41    1
    20    20    13    1
    21    21    13    1
    22    22    18    2
    23    23    22    1
    24    24    17    2
    25    25    24    1
    26    26    21   ar
    27    27    17    1
    28    28    24    1
    29    29    28   ar
    30    30    20   ar
    31    31    18    1
    32    32    15    1
    33    33    28   ar
    34    34    33    1
    35    35    30   ar
    36    36    21   ar
    37    37    36    1
    38    38    39    1
    39    40    22    1
    40    41    33   ar
    41    42    38   ar
    42    43    26   ar
    43    44    32   ar
    44    45    44    1
    45    46    27   ar
    46    47    46    1
    47    48    49    1
    48    50    29   ar
    49    51    50    1
    50    52    20   ar
    51    53    52    1
    52    54    41   ar
    53    55    54    1
    54    56    31   ar
    55    57    56    1
    56    58    35   ar
    57    59    58    1
    58    60    43   ar
    59    61    60    1
    60    62    42   ar
    61    63    62    1
    62    64    43   ar
    63    65    64    1
    64    66    36   ar
    65    67    66    1
    66    68    35   ar
    67    69    68    1
    68    70    46   ar
    69    71    70    1
    70    72    52   ar
    71    73    72    1
    72    74    16    1
    73    75    74    1
    74    76    74    1
    75    77    74    1
    76    78    19    1
    77    79    78    1
    78    80    78    1
    79    81    78    1
    80    26    31   ar
    81    27    30   ar
    82    32    40   ar
    83    38    40   ar
    84    44    62   ar
    85    48    56   ar
    86    48    60   ar
    87    50    54   ar
    88    58    70   ar
    89    64    66   ar
    90    68    72   ar
    91    82    83    1
    92    83    84    3
@<TRIPOS>SUBSTRUCTURE
     1 RES1        1 GROUP             0 ****  ****    0  
     2 RES2       13 GROUP             0 ****  ****    0  
     3 RES3       82 GROUP             0 ****  ****    0  
@<TRIPOS>CRYSIN
   11.8205   12.3982   14.0057   82.9290   77.4250   89.3310     2     1
