@<TRIPOS>MOLECULE
OPEVUD30
    90    97     4     0     0
SMALL
USER_CHARGES
****
Generated from the CSD

@<TRIPOS>ATOM
     1 I1      11.3434   8.9119   5.3915   I         1 RES1   0.0000
     2 I2       6.5219  10.6843   8.6699   I         1 RES1   0.0000
     3 I3       9.9686   6.1889  10.6260   I         1 RES1   0.0000
     4 F1       7.6967   8.3407  10.3827   F         1 RES1   0.0000
     5 F2       8.8050  10.5764   6.4144   F         1 RES1   0.0000
     6 F3      11.4420   6.9892   7.9183   F         1 RES1   0.0000
     7 C1       8.4924   8.4852   9.3265   C.ar      1 RES1   0.0000
     8 C2       8.2036   9.4789   8.4098   C.ar      1 RES1   0.0000
     9 C3       9.5888   7.6478   9.1970   C.ar      1 RES1   0.0000
    10 C4      10.1633   8.7913   7.1297   C.ar      1 RES1   0.0000
    11 C5      10.3856   7.8071   8.0803   C.ar      1 RES1   0.0000
    12 C6       9.0664   9.6226   7.3227   C.ar      1 RES1   0.0000
    13 Fe1      3.4804   6.8664  11.1324   Fe        2 RES2   1.0000
    14 O1       2.3587   5.5571  10.4193   O.3       2 RES2   0.0000
    15 O2       2.2672   7.3618  12.4795   O.3       2 RES2   0.0000
    16 O3      -1.8997  11.0119  12.4654   O.3       2 RES2   0.0000
    17 O4       1.2558   0.4290  12.1556   O.3       2 RES2   0.0000
    18 N1       2.7479   8.1158   9.8152   N.2       2 RES2   0.0000
    19 N2       4.3222   5.6365  12.4049   N.2       2 RES2   0.0000
    20 N3       4.7863   6.5088   9.6631   N.ar      2 RES2   0.0000
    21 N4       4.7888   8.1438  11.9162   N.ar      2 RES2   0.0000
    22 C7       5.4585   6.1817  13.0710   C.ar      2 RES2   0.0000
    23 C8       4.5297   7.2361   8.5182   C.ar      2 RES2   0.0000
    24 C9       5.6542   7.5646  12.8048   C.ar      2 RES2   0.0000
    25 C10      1.2863   8.2453  12.3781   C.ar      2 RES2   0.0000
    26 C11      1.7136   8.8823  10.0011   C.2       2 RES2   0.0000
    27 H1       1.4289   9.4196   9.2711   H         2 RES2   0.0000
    28 C12      3.4179   8.1117   8.5647   C.ar      2 RES2   0.0000
    29 C13      0.9697   8.9801  11.2206   C.ar      2 RES2   0.0000
    30 C14      2.1079   4.3596  10.9432   C.ar      2 RES2   0.0000
    31 C15      3.8831   4.4600  12.7105   C.2       2 RES2   0.0000
    32 H2       4.3036   4.0035  13.4286   H         2 RES2   0.0000
    33 C16     -0.0959   9.9215  11.2121   C.ar      2 RES2   0.0000
    34 H3      -0.2886  10.4140  10.4238   H         2 RES2   0.0000
    35 C17      2.8139   3.8040  12.0444   C.ar      2 RES2   0.0000
    36 C18      6.6800   8.2899  13.4315   C.ar      2 RES2   0.0000
    37 C19     -0.8535  10.1189  12.3514   C.ar      2 RES2   0.0000
    38 C20      1.5693   1.7335  11.8416   C.ar      2 RES2   0.0000
    39 C21      2.5178   2.4879  12.4795   C.ar      2 RES2   0.0000
    40 H4       2.9835   2.1241  13.2241   H         2 RES2   0.0000
    41 C22      6.3324   5.5160  13.9032   C.ar      2 RES2   0.0000
    42 H5       6.2269   4.5860  14.0679   H         2 RES2   0.0000
    43 C23      1.1003   3.5700  10.3433   C.ar      2 RES2   0.0000
    44 H6       0.5948   3.9249   9.6212   H         2 RES2   0.0000
    45 C24      5.8242   5.6820   9.6589   C.ar      2 RES2   0.0000
    46 H7       6.0252   5.1943  10.4488   H         2 RES2   0.0000
    47 C25      5.2933   7.0952   7.3410   C.ar      2 RES2   0.0000
    48 C26      0.4739   8.4772  13.5258   C.ar      2 RES2   0.0000
    49 H8       0.6502   7.9955  14.3247   H         2 RES2   0.0000
    50 C27     -0.5497   9.3733  13.5033   C.ar      2 RES2   0.0000
    51 H9      -1.0725   9.4992  14.2867   H         2 RES2   0.0000
    52 C28      7.5623   7.5755  14.2989   C.ar      2 RES2   0.0000
    53 H10      8.2735   8.0342  14.7304   H         2 RES2   0.0000
    54 C29      4.9035   9.4468  11.6698   C.ar      2 RES2   0.0000
    55 H11      4.3167   9.8538  11.0433   H         2 RES2   0.0000
    56 C30      0.8412   2.2944  10.7897   C.ar      2 RES2   0.0000
    57 H12      0.1535   1.7852  10.3759   H         2 RES2   0.0000
    58 C31      3.8804   8.7232   6.2820   C.ar      2 RES2   0.0000
    59 H13      3.6579   9.2406   5.5172   H         2 RES2   0.0000
    60 C32      3.1093   8.8492   7.4438   C.ar      2 RES2   0.0000
    61 H14      2.3709   9.4467   7.4583   H         2 RES2   0.0000
    62 C33      4.9528   7.8650   6.2243   C.ar      2 RES2   0.0000
    63 H15      5.4633   7.7959   5.4262   H         2 RES2   0.0000
    64 C34      5.8792  10.2394  12.3162   C.ar      2 RES2   0.0000
    65 H16      5.9130  11.1746  12.1528   H         2 RES2   0.0000
    66 C35      6.7675   9.6724  13.1695   C.ar      2 RES2   0.0000
    67 H17      7.4400  10.1992  13.5859   H         2 RES2   0.0000
    68 C36      6.6404   5.5008   8.5210   C.ar      2 RES2   0.0000
    69 H18      7.3677   4.8915   8.5525   H         2 RES2   0.0000
    70 C37      7.3908   6.2394  14.5101   C.ar      2 RES2   0.0000
    71 H19      7.9973   5.7800  15.0786   H         2 RES2   0.0000
    72 C38      6.3902   6.1882   7.3973   C.ar      2 RES2   0.0000
    73 H20      6.9464   6.0700   6.6356   H         2 RES2   0.0000
    74 C39      2.2203  -0.2791  12.9189   C.3       2 RES2   0.0000
    75 H21      3.1039  -0.1710  12.5089   H         2 RES2   0.0000
    76 H22      1.9848  -1.2302  12.9409   H         2 RES2   0.0000
    77 H23      2.2380   0.0747  13.8321   H         2 RES2   0.0000
    78 C40     -2.1208  11.8629  11.3698   C.3       2 RES2   0.0000
    79 H24     -2.4084  11.3336  10.5968   H         2 RES2   0.0000
    80 H25     -1.2908  12.3362  11.1506   H         2 RES2   0.0000
    81 H26     -2.8173  12.5142  11.5969   H         2 RES2   0.0000
    82 S1       7.3480  15.4125  11.4332   S.2       3 RES3  -1.0000
    83 C41      6.2227  14.2962  11.1783   C.1       3 RES3   0.0000
    84 N5       5.3803  13.4994  11.0333   N.1       3 RES3   0.0000
    85 O5       3.8343  11.6848   9.6504   O.3       4 RES4   0.0000
    86 H27      4.5010  11.9082   9.1896   H         4 RES4   0.0000
    87 C42      2.6936  12.2456   9.1097   C.3       4 RES4   0.0000
    88 H28      2.5021  11.8267   8.2453   H         4 RES4   0.0000
    89 H29      2.8311  13.2078   8.9839   H         4 RES4   0.0000
    90 H30      1.9395  12.1003   9.7183   H         4 RES4   0.0000
@<TRIPOS>BOND
     1     1    10    1
     2     2     8    1
     3     3     9    1
     4     4     7    1
     5     5    12    1
     6     6    11    1
     7     7     8   ar
     8     8    12   ar
     9     9     7   ar
    10    10    11   ar
    11    11     9   ar
    12    12    10   ar
    13    13    14    1
    14    14    30    1
    15    15    13    1
    16    16    37    1
    17    17    38    1
    18    18    13    1
    19    19    13    1
    20    20    13    1
    21    21    13    1
    22    22    19    1
    23    23    20   ar
    24    24    21   ar
    25    25    15    1
    26    26    18    2
    27    27    26    1
    28    28    18    1
    29    29    25   ar
    30    30    35   ar
    31    31    19    2
    32    32    31    1
    33    33    29   ar
    34    34    33    1
    35    35    31    1
    36    36    24   ar
    37    37    33   ar
    38    38    39   ar
    39    39    35   ar
    40    40    39    1
    41    41    22   ar
    42    42    41    1
    43    43    30   ar
    44    44    43    1
    45    45    20   ar
    46    46    45    1
    47    47    23   ar
    48    48    25   ar
    49    49    48    1
    50    50    37   ar
    51    51    50    1
    52    52    36   ar
    53    53    52    1
    54    54    21   ar
    55    55    54    1
    56    56    38   ar
    57    57    56    1
    58    58    59    1
    59    60    28   ar
    60    61    60    1
    61    62    47   ar
    62    63    62    1
    63    64    54   ar
    64    65    64    1
    65    66    36   ar
    66    67    66    1
    67    68    45   ar
    68    69    68    1
    69    70    41   ar
    70    71    70    1
    71    72    47   ar
    72    73    72    1
    73    74    17    1
    74    75    74    1
    75    76    74    1
    76    77    74    1
    77    78    16    1
    78    79    78    1
    79    80    78    1
    80    81    78    1
    81    22    24   ar
    82    23    28   ar
    83    26    29    1
    84    43    56   ar
    85    48    50   ar
    86    52    70   ar
    87    58    60   ar
    88    58    62   ar
    89    64    66   ar
    90    68    72   ar
    91    82    83    1
    92    83    84    3
    93    85    86    1
    94    87    85    1
    95    88    87    1
    96    89    87    1
    97    90    87    1
@<TRIPOS>SUBSTRUCTURE
     1 RES1        1 GROUP             0 ****  ****    0  
     2 RES2       13 GROUP             0 ****  ****    0  
     3 RES3       82 GROUP             0 ****  ****    0  
     4 RES4       85 GROUP             0 ****  ****    0  
@<TRIPOS>CRYSIN
   11.5511   12.5908   14.3985   95.3950  100.7190   90.0670     2     1
