@<TRIPOS>MOLECULE
OPEVIR21
    84    92     3     0     0
SMALL
USER_CHARGES
****
Generated from the CSD

@<TRIPOS>ATOM
     1 I1       0.0940   3.8156   5.1775   I         1 RES1   0.0000
     2 I2       4.9533   1.7451   8.2209   I         1 RES1   0.0000
     3 I3       2.0650   6.6040  10.1550   I         1 RES1   0.0000
     4 F1       2.5838   1.9974   6.0690   F         1 RES1   0.0000
     5 F2       0.3678   5.8446   7.5914   F         1 RES1   0.0000
     6 F3       4.2121   4.3446   9.7858   F         1 RES1   0.0000
     7 C1       1.4581   3.9393   6.7765   C.ar      1 RES1   0.0000
     8 C2       3.4405   3.1466   7.9356   C.ar      1 RES1   0.0000
     9 C3       2.4933   3.0261   6.9343   C.ar      1 RES1   0.0000
    10 C4       2.2803   5.1146   8.7342   C.ar      1 RES1   0.0000
    11 C5       1.3813   4.9530   7.7070   C.ar      1 RES1   0.0000
    12 C6       3.3159   4.1954   8.7995   C.ar      1 RES1   0.0000
    13 Fe1      8.4150   5.9291  10.7762   Fe        2 RES2   1.0000
    14 O1       9.6624   5.2724  12.0469   O.3       2 RES2   0.0000
    15 O2       9.5471   7.2975  10.1477   O.3       2 RES2   0.0000
    16 N1       7.4650   7.2615  12.0197   N.2       2 RES2   0.0000
    17 N2       9.0405   4.5043   9.4267   N.2       2 RES2   0.0000
    18 N3       6.9241   4.7291  11.6211   N.ar      2 RES2   0.0000
    19 N4       7.0841   6.2459   9.1872   N.ar      2 RES2   0.0000
    20 O3      13.8763   1.7229  11.8388   O.3       2 RES2   0.0000
    21 O4      10.4405  12.5308  11.5544   O.3       2 RES2   0.0000
    22 C7       6.3143   6.7538  12.6904   C.ar      2 RES2   0.0000
    23 C8       6.0728   5.3837  12.4550   C.ar      2 RES2   0.0000
    24 C9       8.9375   9.1424  11.5775   C.ar      2 RES2   0.0000
    25 C10      7.2432   5.3824   8.1451   C.ar      2 RES2   0.0000
    26 C11      9.7424   8.5211  10.5776   C.ar      2 RES2   0.0000
    27 C12     10.0960   3.7704   9.5777   C.2       2 RES2   0.0000
    28 H1      10.3401   3.2398   8.8544   H         2 RES2   0.0000
    29 C13      7.8612   8.4779  12.2319   C.2       2 RES2   0.0000
    30 H2       7.3969   8.9647  12.8747   H         2 RES2   0.0000
    31 C14     10.6739   4.4350  11.9068   C.ar      2 RES2   0.0000
    32 C15      8.2774   4.4106   8.2267   C.ar      2 RES2   0.0000
    33 C16     10.9236   3.6905  10.7368   C.ar      2 RES2   0.0000
    34 C17      4.9835   4.7342  13.0863   C.ar      2 RES2   0.0000
    35 C18      5.4468   7.4645  13.4849   C.ar      2 RES2   0.0000
    36 H3       5.5855   8.3730  13.6276   H         2 RES2   0.0000
    37 C19     12.0013   2.7737  10.6851   C.ar      2 RES2   0.0000
    38 H4      12.1578   2.2820   9.9109   H         2 RES2   0.0000
    39 C20      6.1477   7.1668   9.0933   C.ar      2 RES2   0.0000
    40 H5       6.0398   7.7612   9.8000   H         2 RES2   0.0000
    41 C21      6.7438   3.4302  11.4089   C.ar      2 RES2   0.0000
    42 H6       7.3223   2.9809  10.8367   H         2 RES2   0.0000
    43 C22      4.1207   5.4945  13.9026   C.ar      2 RES2   0.0000
    44 H7       3.3933   5.0877  14.3159   H         2 RES2   0.0000
    45 C23     12.8175   2.6087  11.7803   C.ar      2 RES2   0.0000
    46 C24      6.4162   5.4353   6.9833   C.ar      2 RES2   0.0000
    47 C25      9.1702  10.4831  11.9272   C.ar      2 RES2   0.0000
    48 H8       8.6489  10.8843  12.5859   H         2 RES2   0.0000
    49 C26      4.8394   3.3509  12.8360   C.ar      2 RES2   0.0000
    50 H9       4.1430   2.8781  13.2327   H         2 RES2   0.0000
    51 C27     11.5478   4.2355  12.9992   C.ar      2 RES2   0.0000
    52 H10     11.4124   4.7158  13.7836   H         2 RES2   0.0000
    53 C28      4.3515   6.8198  14.0822   C.ar      2 RES2   0.0000
    54 H11      3.7705   7.3127  14.6156   H         2 RES2   0.0000
    55 C29      8.4329   3.5281   7.2064   C.ar      2 RES2   0.0000
    56 H12      9.0990   2.8809   7.2620   H         2 RES2   0.0000
    57 C30     10.7877   9.2870  10.0185   C.ar      2 RES2   0.0000
    58 H13     11.3582   8.8925   9.3994   H         2 RES2   0.0000
    59 C31     12.5907   3.3465  12.9258   C.ar      2 RES2   0.0000
    60 H14     13.1526   3.2391  13.6588   H         2 RES2   0.0000
    61 C32     10.1633  11.2134  11.3041   C.ar      2 RES2   0.0000
    62 C33      5.7006   2.7157  12.0265   C.ar      2 RES2   0.0000
    63 H15      5.6094   1.8024  11.8746   H         2 RES2   0.0000
    64 C34      5.4299   6.4484   6.9397   C.ar      2 RES2   0.0000
    65 H16      4.8718   6.5288   6.2000   H         2 RES2   0.0000
    66 C35      5.3078   7.2953   7.9805   C.ar      2 RES2   0.0000
    67 H17      4.6641   7.9657   7.9607   H         2 RES2   0.0000
    68 C36      6.6480   4.5031   5.9711   C.ar      2 RES2   0.0000
    69 H18      6.1230   4.5253   5.2036   H         2 RES2   0.0000
    70 C37     10.9784  10.5816  10.3640   C.ar      2 RES2   0.0000
    71 H19     11.6686  11.0616   9.9664   H         2 RES2   0.0000
    72 C38      7.6170   3.5702   6.0813   C.ar      2 RES2   0.0000
    73 H20      7.7410   2.9514   5.3989   H         2 RES2   0.0000
    74 C39     13.9515   0.7256  10.8334   C.3       2 RES2   0.0000
    75 H21     14.0721   1.1427   9.9768   H         2 RES2   0.0000
    76 H22     13.1396   0.2134  10.8280   H         2 RES2   0.0000
    77 H23     14.6948   0.1447  11.0130   H         2 RES2   0.0000
    78 C40      9.4948  13.2471  12.3108   C.3       2 RES2   0.0000
    79 H24      8.6467  13.2299  11.8610   H         2 RES2   0.0000
    80 H25      9.7865  14.1560  12.4094   H         2 RES2   0.0000
    81 H26      9.4062  12.8428  13.1766   H         2 RES2   0.0000
    82 S1      -1.8847   4.1408   2.6524   S.2       3 RES3  -1.0000
    83 C41     -2.8208   2.8390   2.9141   C.1       3 RES3   0.0000
    84 N5      -3.5010   1.8930   3.1046   N.1       3 RES3   0.0000
@<TRIPOS>BOND
     1     1     7    1
     2     2     8    1
     3     3    10    1
     4     4     9    1
     5     5    11    1
     6     6    12    1
     7     7     9   ar
     8     8     9   ar
     9    10    11   ar
    10    11     7   ar
    11    12     8   ar
    12    10    12   ar
    13    13    14    1
    14    14    31    1
    15    15    13    1
    16    16    13    1
    17    17    13    1
    18    18    13    1
    19    19    13    1
    20    20    45    1
    21    21    61    1
    22    22    16    1
    23    23    18   ar
    24    24    26   ar
    25    25    19   ar
    26    26    15    1
    27    27    17    2
    28    28    27    1
    29    29    16    2
    30    30    29    1
    31    31    33   ar
    32    32    17    1
    33    33    27    1
    34    34    23   ar
    35    35    22   ar
    36    36    35    1
    37    37    33   ar
    38    38    37    1
    39    39    19   ar
    40    40    39    1
    41    41    18   ar
    42    42    41    1
    43    43    34   ar
    44    44    43    1
    45    45    37   ar
    46    46    25   ar
    47    47    24   ar
    48    48    47    1
    49    49    34   ar
    50    50    49    1
    51    51    31   ar
    52    52    51    1
    53    53    35   ar
    54    54    53    1
    55    55    32   ar
    56    56    55    1
    57    57    26   ar
    58    58    57    1
    59    59    45   ar
    60    60    59    1
    61    61    47   ar
    62    62    41   ar
    63    63    62    1
    64    64    46   ar
    65    65    64    1
    66    66    39   ar
    67    67    66    1
    68    68    46   ar
    69    69    68    1
    70    70    57   ar
    71    71    70    1
    72    72    55   ar
    73    73    72    1
    74    74    20    1
    75    75    74    1
    76    76    74    1
    77    77    74    1
    78    78    21    1
    79    79    78    1
    80    80    78    1
    81    81    78    1
    82    22    23   ar
    83    24    29    1
    84    25    32   ar
    85    43    53   ar
    86    49    62   ar
    87    51    59   ar
    88    61    70   ar
    89    64    66   ar
    90    68    72   ar
    91    82    83    1
    92    83    84    3
@<TRIPOS>SUBSTRUCTURE
     1 RES1        1 GROUP             0 ****  ****    0  
     2 RES2       13 GROUP             0 ****  ****    0  
     3 RES3       82 GROUP             0 ****  ****    0  
@<TRIPOS>CRYSIN
   11.6911   12.6824   13.9985   83.2390   78.2030   89.7880     2     1
