@<TRIPOS>MOLECULE
OPEVUD04
    90    97     4     0     0
SMALL
USER_CHARGES
****
Generated from the CSD

@<TRIPOS>ATOM
     1 I1      -2.3967   2.4889   8.7770   I         1 RES1   0.0000
     2 I2       2.3352   0.6899   5.3851   I         1 RES1   0.0000
     3 I3      -1.1702   5.1630   3.4898   I         1 RES1   0.0000
     4 F1       1.0934   3.0002   3.6698   F         1 RES1   0.0000
     5 F2      -2.5531   4.3978   6.2380   F         1 RES1   0.0000
     6 F3       0.1227   0.8351   7.7129   F         1 RES1   0.0000
     7 C1       0.6616   1.8918   5.6731   C.ar      1 RES1   0.0000
     8 C2      -0.7530   3.7228   4.9166   C.ar      1 RES1   0.0000
     9 C3      -1.2473   2.5994   7.0156   C.ar      1 RES1   0.0000
    10 C4       0.3401   2.8558   4.7602   C.ar      1 RES1   0.0000
    11 C5      -1.5092   3.5650   6.0619   C.ar      1 RES1   0.0000
    12 C6      -0.1598   1.7766   6.8057   C.ar      1 RES1   0.0000
    13 Fe1      5.4133   4.5056   2.9123   Fe        2 RES2   1.0000
    14 O1       6.6930   3.8834   1.6468   O.3       2 RES2   0.0000
    15 O2       6.4494   5.9435   3.5599   O.3       2 RES2   0.0000
    16 N1       4.4300   5.7839   1.6215   N.2       2 RES2   0.0000
    17 N2       6.1191   3.1512   4.2981   N.2       2 RES2   0.0000
    18 N3       3.9873   3.2369   2.0709   N.ar      2 RES2   0.0000
    19 O3      10.6650   0.0511   1.6877   O.3       2 RES2   0.0000
    20 O4       7.3015  11.1381   1.9342   O.3       2 RES2   0.0000
    21 N4       4.0568   4.7861   4.4953   N.ar      2 RES2   0.0000
    22 C7       7.8547   2.1784   2.8851   C.ar      2 RES2   0.0000
    23 C8       3.3142   5.2255   0.9495   C.ar      2 RES2   0.0000
    24 C9       5.4577   3.1709   5.5505   C.ar      2 RES2   0.0000
    25 C10      4.3524   4.0280   5.6280   C.ar      2 RES2   0.0000
    26 C11      7.1042   2.3181   4.0882   C.2       2 RES2   0.0000
    27 H1       7.3405   1.7539   4.8028   H         2 RES2   0.0000
    28 C12      3.1152   3.8408   1.2073   C.ar      2 RES2   0.0000
    29 C13      7.6151   2.9477   1.7314   C.ar      2 RES2   0.0000
    30 C14      2.0727   3.1327   0.5720   C.ar      2 RES2   0.0000
    31 C15      5.8567   7.7070   2.0286   C.ar      2 RES2   0.0000
    32 C16      4.8051   7.0075   1.3735   C.2       2 RES2   0.0000
    33 H2       4.3380   7.4701   0.7011   H         2 RES2   0.0000
    34 C17      8.8835   1.2025   2.8964   C.ar      2 RES2   0.0000
    35 H3       9.0424   0.7005   3.6752   H         2 RES2   0.0000
    36 C18      6.6313   7.1497   3.0795   C.ar      2 RES2   0.0000
    37 C19      2.4266   5.8886   0.1381   C.ar      2 RES2   0.0000
    38 H4       2.5172   6.8127  -0.0041   H         2 RES2   0.0000
    39 C20      1.1981   3.8461  -0.2761   C.ar      2 RES2   0.0000
    40 H5       0.4896   3.3988  -0.7013   H         2 RES2   0.0000
    41 C21      3.0234   5.5978   4.5362   C.ar      2 RES2   0.0000
    42 H6       2.8120   6.1002   3.7697   H         2 RES2   0.0000
    43 C22      3.5872   4.1534   6.8310   C.ar      2 RES2   0.0000
    44 C23      5.7984   2.4287   6.6662   C.ar      2 RES2   0.0000
    45 H7       6.5319   1.8424   6.6298   H         2 RES2   0.0000
    46 C24      9.6493   0.9831   1.7778   C.ar      2 RES2   0.0000
    47 C25      3.8594   1.9271   2.2906   C.ar      2 RES2   0.0000
    48 H8       4.4602   1.5049   2.8768   H         2 RES2   0.0000
    49 C26      1.3786   5.1774  -0.4790   C.ar      2 RES2   0.0000
    50 H9       0.7872   5.6368  -1.0471   H         2 RES2   0.0000
    51 C27      6.0793   9.0510   1.6144   C.ar      2 RES2   0.0000
    52 H10      5.5704   9.4165   0.9142   H         2 RES2   0.0000
    53 C28      8.4331   2.6725   0.5903   C.ar      2 RES2   0.0000
    54 H11      8.2940   3.1562  -0.2042   H         2 RES2   0.0000
    55 C29      7.6164   7.9678   3.6740   C.ar      2 RES2   0.0000
    56 H12      8.1452   7.6246   4.3706   H         2 RES2   0.0000
    57 C30      1.9721   1.7385   0.8467   C.ar      2 RES2   0.0000
    58 H13      1.2924   1.2257   0.4487   H         2 RES2   0.0000
    59 C31      7.0307   9.8097   2.2343   C.ar      2 RES2   0.0000
    60 C32      2.8610   1.1598   1.6792   C.ar      2 RES2   0.0000
    61 H14      2.8100   0.2370   1.8510   H         2 RES2   0.0000
    62 C33      2.4933   5.0438   6.7986   C.ar      2 RES2   0.0000
    63 H15      1.9525   5.1484   7.5605   H         2 RES2   0.0000
    64 C34      5.0589   2.5436   7.8468   C.ar      2 RES2   0.0000
    65 H16      5.3099   2.0397   8.5988   H         2 RES2   0.0000
    66 C35      7.8143   9.2653   3.2472   C.ar      2 RES2   0.0000
    67 H17      8.4867   9.7871   3.6453   H         2 RES2   0.0000
    68 C36      9.4038   1.7309   0.6325   C.ar      2 RES2   0.0000
    69 H18      9.9265   1.5779  -0.1329   H         2 RES2   0.0000
    70 C37      2.2219   5.7430   5.6857   C.ar      2 RES2   0.0000
    71 H19      1.4916   6.3349   5.6729   H         2 RES2   0.0000
    72 C38      3.9773   3.3772   7.9271   C.ar      2 RES2   0.0000
    73 H20      3.4894   3.4275   8.7287   H         2 RES2   0.0000
    74 C39      6.3406  11.8217   1.1495   C.3       2 RES2   0.0000
    75 H21      6.2685  11.3943   0.2818   H         2 RES2   0.0000
    76 H22      6.6154  12.7448   1.0335   H         2 RES2   0.0000
    77 H23      5.4801  11.7942   1.5962   H         2 RES2   0.0000
    78 C40     10.8795  -0.7758   2.7865   C.3       2 RES2   0.0000
    79 H24     11.5614  -1.4304   2.5710   H         2 RES2   0.0000
    80 H25     10.0537  -1.2316   3.0144   H         2 RES2   0.0000
    81 H26     11.1716  -0.2409   3.5417   H         2 RES2   0.0000
    82 S1       1.7129  -4.3468   2.6362   S.2       3 RES3  -1.0000
    83 C41      2.6532  -3.0553   2.9063   C.1       3 RES3   0.0000
    84 N5       3.3339  -2.1338   3.0485   N.1       3 RES3   0.0000
    85 O5       4.9815  -0.3314   4.3657   O.3       4 RES4   0.0000
    86 H27      4.4948  -0.8817   3.9803   H         4 RES4   0.0000
    87 C42      5.9404  -0.9971   5.0898   C.3       4 RES4   0.0000
    88 H28      6.7782  -0.9897   4.5998   H         4 RES4   0.0000
    89 H29      5.6588  -1.9136   5.2340   H         4 RES4   0.0000
    90 H30      6.0632  -0.5574   5.9455   H         4 RES4   0.0000
@<TRIPOS>BOND
     1     1     9    1
     2     2     7    1
     3     3     8    1
     4     4    10    1
     5     5    11    1
     6     6    12    1
     7     7    10   ar
     8     8    10   ar
     9     9    11   ar
    10    11     8   ar
    11    12     7   ar
    12     9    12   ar
    13    13    14    1
    14    14    29    1
    15    15    13    1
    16    16    13    1
    17    17    13    1
    18    18    13    1
    19    19    46    1
    20    20    59    1
    21    21    13    1
    22    22    26    1
    23    23    16    1
    24    24    17    1
    25    25    21   ar
    26    26    17    2
    27    27    26    1
    28    28    18   ar
    29    29    22   ar
    30    30    28   ar
    31    31    32    1
    32    32    16    2
    33    33    32    1
    34    34    22   ar
    35    35    34    1
    36    36    15    1
    37    37    23   ar
    38    38    37    1
    39    39    30   ar
    40    40    39    1
    41    41    21   ar
    42    42    41    1
    43    43    25   ar
    44    44    24   ar
    45    45    44    1
    46    46    34   ar
    47    47    18   ar
    48    48    47    1
    49    49    37   ar
    50    50    49    1
    51    51    31   ar
    52    52    51    1
    53    53    29   ar
    54    54    53    1
    55    55    36   ar
    56    56    55    1
    57    57    30   ar
    58    58    57    1
    59    59    51   ar
    60    60    47   ar
    61    61    60    1
    62    62    43   ar
    63    63    62    1
    64    64    44   ar
    65    65    64    1
    66    66    55   ar
    67    67    66    1
    68    68    46   ar
    69    69    68    1
    70    70    41   ar
    71    71    70    1
    72    72    43   ar
    73    73    72    1
    74    74    20    1
    75    75    74    1
    76    76    74    1
    77    77    74    1
    78    78    19    1
    79    79    78    1
    80    80    78    1
    81    81    78    1
    82    23    28   ar
    83    24    25   ar
    84    31    36   ar
    85    39    49   ar
    86    53    68   ar
    87    57    60   ar
    88    59    66   ar
    89    62    70   ar
    90    64    72   ar
    91    82    83    1
    92    83    84    3
    93    85    86    1
    94    87    85    1
    95    88    87    1
    96    89    87    1
    97    90    87    1
@<TRIPOS>SUBSTRUCTURE
     1 RES1        1 GROUP             0 ****  ****    0  
     2 RES2       13 GROUP             0 ****  ****    0  
     3 RES3       82 GROUP             0 ****  ****    0  
     4 RES4       85 GROUP             0 ****  ****    0  
@<TRIPOS>CRYSIN
   11.3939   12.9112   14.3796   95.7020   99.9850   90.4510     2     1
