@<TRIPOS>MOLECULE
OPEVIR14
    84    92     3     0     0
SMALL
USER_CHARGES
****
Generated from the CSD

@<TRIPOS>ATOM
     1 I1      11.6070   8.9337   5.1793   I         1 RES1   0.0000
     2 I2       6.8212  11.1343   8.2325   I         1 RES1   0.0000
     3 I3       9.6542   6.2799  10.2365   I         1 RES1   0.0000
     4 F1       9.1604  10.8040   6.0631   F         1 RES1   0.0000
     5 F2      11.3344   6.9649   7.6438   F         1 RES1   0.0000
     6 F3       7.5464   8.5649   9.8453   F         1 RES1   0.0000
     7 C1       9.4485   7.7462   8.7910   C.ar      1 RES1   0.0000
     8 C2      10.2566   8.8726   6.7987   C.ar      1 RES1   0.0000
     9 C3       8.3098   9.7127   7.9597   C.ar      1 RES1   0.0000
    10 C4      10.3368   7.8706   7.7600   C.ar      1 RES1   0.0000
    11 C5       9.2502   9.7875   6.9587   C.ar      1 RES1   0.0000
    12 C6       8.4392   8.6866   8.8498   C.ar      1 RES1   0.0000
    13 Fe1      3.3125   6.9355  10.8464   Fe        2 RES2   1.0000
    14 O1       2.0517   7.6552  12.0906   O.3       2 RES2   0.0000
    15 O2       2.2106   5.5158  10.2610   O.3       2 RES2   0.0000
    16 N1       4.3255   5.5760  12.0837   N.2       2 RES2   0.0000
    17 N2       2.6948   8.4008   9.4652   N.2       2 RES2   0.0000
    18 O3      -2.0863  11.2638  11.8814   O.3       2 RES2   0.0000
    19 N3       4.8485   8.1334  11.7050   N.ar      2 RES2   0.0000
    20 N4       4.6518   6.6352   9.1903   N.ar      2 RES2   0.0000
    21 O4       1.4457   0.2541  11.6202   O.3       2 RES2   0.0000
    22 C7       5.4662   6.0958  12.7592   C.ar      2 RES2   0.0000
    23 C8       1.6521   9.1527   9.6265   C.2       2 RES2   0.0000
    24 H1       1.4095   9.6839   8.9029   H         2 RES2   0.0000
    25 C9       2.8824   3.6674  11.6311   C.ar      2 RES2   0.0000
    26 C10      3.9607   4.3492  12.2916   C.2       2 RES2   0.0000
    27 H2       4.4399   3.8660  12.9254   H         2 RES2   0.0000
    28 C11      1.0625   8.5075  11.9620   C.ar      2 RES2   0.0000
    29 C12      5.7129   7.4713  12.5418   C.ar      2 RES2   0.0000
    30 C13      4.4823   7.5040   8.1579   C.ar      2 RES2   0.0000
    31 C14      2.0455   4.2768  10.6575   C.ar      2 RES2   0.0000
    32 C15      0.8343   9.2549  10.7874   C.ar      2 RES2   0.0000
    33 C16      0.1979   8.7298  13.0368   C.ar      2 RES2   0.0000
    34 H3       0.3227   8.2430  13.8197   H         2 RES2   0.0000
    35 C17     -0.2330  10.1867  10.7286   C.ar      2 RES2   0.0000
    36 H4      -0.3857  10.6747   9.9522   H         2 RES2   0.0000
    37 C18     -1.0422  10.3637  11.8294   C.ar      2 RES2   0.0000
    38 C19      3.4480   8.4703   8.2714   C.ar      2 RES2   0.0000
    39 C20      6.3444   5.3926  13.5619   C.ar      2 RES2   0.0000
    40 H5       6.2165   4.4839  13.7086   H         2 RES2   0.0000
    41 C21      6.7954   8.1291  13.1640   C.ar      2 RES2   0.0000
    42 C22      5.0373   9.4346  11.5094   C.ar      2 RES2   0.0000
    43 H6       4.4492   9.8893  10.9513   H         2 RES2   0.0000
    44 C23      5.5968   5.7120   9.1042   C.ar      2 RES2   0.0000
    45 H7       5.7224   5.1234   9.8128   H         2 RES2   0.0000
    46 C24      5.2922   7.4487   6.9902   C.ar      2 RES2   0.0000
    47 C25      2.6928   2.3225  11.9757   C.ar      2 RES2   0.0000
    48 H8       3.2403   1.9309  12.6172   H         2 RES2   0.0000
    49 C26     -0.8204   9.6352  12.9835   C.ar      2 RES2   0.0000
    50 H9      -1.3671   9.7629  13.7246   H         2 RES2   0.0000
    51 C27      1.7069   1.5741  11.3713   C.ar      2 RES2   0.0000
    52 C28      1.0135   3.4945  10.1147   C.ar      2 RES2   0.0000
    53 H10      0.4236   3.8762   9.5052   H         2 RES2   0.0000
    54 C29      3.2792   9.3587   7.2472   C.ar      2 RES2   0.0000
    55 H11      2.6115  10.0028   7.3097   H         2 RES2   0.0000
    56 C30      7.6545   7.3769  13.9694   C.ar      2 RES2   0.0000
    57 H12      8.3809   7.7878  14.3789   H         2 RES2   0.0000
    58 C31      6.9307   9.5152  12.9097   C.ar      2 RES2   0.0000
    59 H13      7.6230   9.9895  13.3088   H         2 RES2   0.0000
    60 C32      7.4365   6.0577  14.1540   C.ar      2 RES2   0.0000
    61 H14      8.0230   5.5732  14.6894   H         2 RES2   0.0000
    62 C33      4.0884   9.3198   6.1055   C.ar      2 RES2   0.0000
    63 H15      3.9570   9.9443   5.4283   H         2 RES2   0.0000
    64 C34      6.4074   5.6019   7.9788   C.ar      2 RES2   0.0000
    65 H16      7.0531   4.9328   7.9437   H         2 RES2   0.0000
    66 C35      6.0746  10.1484  12.1015   C.ar      2 RES2   0.0000
    67 H17      6.1720  11.0590  11.9377   H         2 RES2   0.0000
    68 C36      6.2717   6.4457   6.9409   C.ar      2 RES2   0.0000
    69 H18      6.8236   6.3659   6.1966   H         2 RES2   0.0000
    70 C37      0.8641   2.1930  10.4620   C.ar      2 RES2   0.0000
    71 H19      0.1751   1.7007  10.0773   H         2 RES2   0.0000
    72 C38      5.0495   8.3939   5.9742   C.ar      2 RES2   0.0000
    73 H20      5.5649   8.3754   5.1998   H         2 RES2   0.0000
    74 C39     -2.1684  12.2538  10.8777   C.3       2 RES2   0.0000
    75 H21     -2.2392  11.8324  10.0185   H         2 RES2   0.0000
    76 H22     -1.3787  12.7997  10.9025   H         2 RES2   0.0000
    77 H23     -2.9411  12.8019  11.0310   H         2 RES2   0.0000
    78 C40      2.3914  -0.4567  12.3654   C.3       2 RES2   0.0000
    79 H24      3.2299  -0.4612  11.8989   H         2 RES2   0.0000
    80 H25      2.0886  -1.3600  12.4882   H         2 RES2   0.0000
    81 H26      2.5035  -0.0384  13.2222   H         2 RES2   0.0000
    82 S1      13.5699   8.6002   2.6543   S.2       3 RES3  -1.0000
    83 C41     14.4067   9.9415   2.9016   C.1       3 RES3   0.0000
    84 N5      15.0358  10.9259   3.0835   N.1       3 RES3   0.0000
@<TRIPOS>BOND
     1     1     8    1
     2     2     9    1
     3     3     7    1
     4     4    11    1
     5     5    10    1
     6     6    12    1
     7     7    10   ar
     8     8    10   ar
     9     9    11   ar
    10    11     8   ar
    11    12     7   ar
    12     9    12   ar
    13    13    14    1
    14    14    28    1
    15    15    13    1
    16    16    13    1
    17    17    13    1
    18    18    37    1
    19    19    13    1
    20    20    13    1
    21    21    51    1
    22    22    16    1
    23    23    17    2
    24    24    23    1
    25    25    26    1
    26    26    16    2
    27    27    26    1
    28    28    32   ar
    29    29    19   ar
    30    30    20   ar
    31    31    15    1
    32    32    23    1
    33    33    28   ar
    34    34    33    1
    35    35    32   ar
    36    36    35    1
    37    37    35   ar
    38    38    17    1
    39    39    22   ar
    40    40    39    1
    41    41    29   ar
    42    42    19   ar
    43    43    42    1
    44    44    20   ar
    45    45    44    1
    46    46    30   ar
    47    47    25   ar
    48    48    47    1
    49    49    33   ar
    50    50    49    1
    51    51    47   ar
    52    52    31   ar
    53    53    52    1
    54    54    38   ar
    55    55    54    1
    56    56    41   ar
    57    57    56    1
    58    58    41   ar
    59    59    58    1
    60    60    39   ar
    61    61    60    1
    62    62    54   ar
    63    63    62    1
    64    64    44   ar
    65    65    64    1
    66    66    42   ar
    67    67    66    1
    68    68    46   ar
    69    69    68    1
    70    70    51   ar
    71    71    70    1
    72    72    46   ar
    73    73    72    1
    74    74    18    1
    75    75    74    1
    76    76    74    1
    77    77    74    1
    78    78    21    1
    79    79    78    1
    80    80    78    1
    81    81    78    1
    82    22    29   ar
    83    25    31   ar
    84    30    38   ar
    85    37    49   ar
    86    52    70   ar
    87    56    60   ar
    88    58    66   ar
    89    62    72   ar
    90    64    68   ar
    91    82    83    1
    92    83    84    3
@<TRIPOS>SUBSTRUCTURE
     1 RES1        1 GROUP             0 ****  ****    0  
     2 RES2       13 GROUP             0 ****  ****    0  
     3 RES3       82 GROUP             0 ****  ****    0  
@<TRIPOS>CRYSIN
   11.6474   12.8314   14.0304   96.2580  101.2780   90.0330     2     1
