@<TRIPOS>MOLECULE
OPEVUD27
    90    97     4     0     0
SMALL
USER_CHARGES
****
Generated from the CSD

@<TRIPOS>ATOM
     1 I1      11.1854   9.0029   5.2901   I         1 RES1   0.0000
     2 I2       6.4757  10.8180   8.7089   I         1 RES1   0.0000
     3 I3       9.9870   6.3459  10.5931   I         1 RES1   0.0000
     4 F1       7.7267   8.5183  10.4257   F         1 RES1   0.0000
     5 F2       8.6707  10.6560   6.3614   F         1 RES1   0.0000
     6 F3      11.3523   7.1077   7.8393   F         1 RES1   0.0000
     7 C1       8.1372   9.6187   8.4147   C.ar      1 RES1   0.0000
     8 C2       9.5690   7.7890   9.1635   C.ar      1 RES1   0.0000
     9 C3      10.0458   8.8939   7.0468   C.ar      1 RES1   0.0000
    10 C4       8.4766   8.6519   9.3187   C.ar      1 RES1   0.0000
    11 C5       8.9627   9.7161   7.2809   C.ar      1 RES1   0.0000
    12 C6      10.3065   7.9326   8.0227   C.ar      1 RES1   0.0000
    13 Fe1      3.3710   6.9940  11.1979   Fe        2 RES2   1.0000
    14 O1       2.0753   7.6581  12.4394   O.3       2 RES2   0.0000
    15 O2       2.3596   5.5245  10.5766   O.3       2 RES2   0.0000
    16 N1       4.3910   5.6960  12.4874   N.2       2 RES2   0.0000
    17 O3      -1.8514  11.5191  12.3901   O.3       2 RES2   0.0000
    18 N2       2.6770   8.3803   9.7911   N.2       2 RES2   0.0000
    19 N3       4.8341   8.2569  12.0601   N.ar      2 RES2   0.0000
    20 O4       1.5658   0.3171  12.1771   O.3       2 RES2   0.0000
    21 N4       4.7349   6.7451   9.5711   N.ar      2 RES2   0.0000
    22 C7       4.4407   7.4819   8.4542   C.ar      2 RES2   0.0000
    23 C8       5.5186   6.2546  13.1544   C.ar      2 RES2   0.0000
    24 C9       0.9424   9.3748  11.2041   C.ar      2 RES2   0.0000
    25 C10      1.7049   9.2219  10.0012   C.2       2 RES2   0.0000
    26 H1       1.4782   9.7884   9.2871   H         2 RES2   0.0000
    27 C11      2.9817   3.7572  12.0742   C.ar      2 RES2   0.0000
    28 C12      3.3319   8.3600   8.5261   C.ar      2 RES2   0.0000
    29 C13      5.7072   7.6479  12.9119   C.ar      2 RES2   0.0000
    30 C14      1.1659   8.6044  12.3562   C.ar      2 RES2   0.0000
    31 C15      2.1960   4.3040  11.0447   C.ar      2 RES2   0.0000
    32 C16      4.0442   4.4614  12.7285   C.2       2 RES2   0.0000
    33 H2       4.5306   3.9968  13.3851   H         2 RES2   0.0000
    34 C17      6.7576   8.3460  13.5380   C.ar      2 RES2   0.0000
    35 C18     -0.8352  10.5866  12.3041   C.ar      2 RES2   0.0000
    36 C19     -0.0676  10.3643  11.1928   C.ar      2 RES2   0.0000
    37 H3      -0.2126  10.8736  10.4158   H         2 RES2   0.0000
    38 C20      5.1895   7.3676   7.2428   C.ar      2 RES2   0.0000
    39 C21      2.9797   9.0902   7.4219   C.ar      2 RES2   0.0000
    40 H4       2.2374   9.6653   7.4595   H         2 RES2   0.0000
    41 C22      2.7829   2.4068  12.4902   C.ar      2 RES2   0.0000
    42 H5       3.3065   2.0448  13.1814   H         2 RES2   0.0000
    43 C23      7.6326   7.6349  14.3841   C.ar      2 RES2   0.0000
    44 H6       8.3390   8.0849  14.8099   H         2 RES2   0.0000
    45 C24      6.3985   5.5979  13.9766   C.ar      2 RES2   0.0000
    46 H7       6.2934   4.6775  14.1335   H         2 RES2   0.0000
    47 C25      4.9650   9.5628  11.8331   C.ar      2 RES2   0.0000
    48 H8       4.3659   9.9871  11.2460   H         2 RES2   0.0000
    49 C26      1.2088   3.4943  10.4539   C.ar      2 RES2   0.0000
    50 H9       0.6687   3.8420   9.7680   H         2 RES2   0.0000
    51 C27      0.3435   8.8788  13.4915   C.ar      2 RES2   0.0000
    52 H10      0.4660   8.3849  14.2811   H         2 RES2   0.0000
    53 C28      6.8588   9.7377  13.2743   C.ar      2 RES2   0.0000
    54 H11      7.5406  10.2474  13.6724   H         2 RES2   0.0000
    55 C29      1.8275   1.6383  11.8782   C.ar      2 RES2   0.0000
    56 C30      5.7703   5.9176   9.5260   C.ar      2 RES2   0.0000
    57 H12      5.9833   5.4142  10.2905   H         2 RES2   0.0000
    58 C31      1.0280   2.1850  10.8755   C.ar      2 RES2   0.0000
    59 H13      0.3570   1.6598  10.4787   H         2 RES2   0.0000
    60 C32      5.9713  10.3206  12.4479   C.ar      2 RES2   0.0000
    61 H14      6.0263  11.2442  12.2822   H         2 RES2   0.0000
    62 C33     -0.6127   9.8405  13.4477   C.ar      2 RES2   0.0000
    63 H15     -1.1361  10.0038  14.2121   H         2 RES2   0.0000
    64 C34      7.4580   6.2948  14.5900   C.ar      2 RES2   0.0000
    65 H16      8.0558   5.8308  15.1478   H         2 RES2   0.0000
    66 C35      6.2803   6.4912   7.2541   C.ar      2 RES2   0.0000
    67 H17      6.8181   6.4038   6.4888   H         2 RES2   0.0000
    68 C36      3.7311   8.9838   6.2218   C.ar      2 RES2   0.0000
    69 H18      3.4794   9.4874   5.4693   H         2 RES2   0.0000
    70 C37      4.8010   8.1664   6.1541   C.ar      2 RES2   0.0000
    71 H19      5.2992   8.1304   5.3585   H         2 RES2   0.0000
    72 C38      6.5645   5.7696   8.3625   C.ar      2 RES2   0.0000
    73 H20      7.2882   5.1702   8.3611   H         2 RES2   0.0000
    74 C39     -2.0579  12.3480  11.2873   C.3       2 RES2   0.0000
    75 H21     -2.3412  11.8128  10.5295   H         2 RES2   0.0000
    76 H22     -1.2312  12.8061  11.0684   H         2 RES2   0.0000
    77 H23     -2.7435  13.0002  11.4976   H         2 RES2   0.0000
    78 C40      2.5277  -0.3771  12.9485   C.3       2 RES2   0.0000
    79 H24      3.3878  -0.3421  12.4997   H         2 RES2   0.0000
    80 H25      2.2545  -1.3020  13.0504   H         2 RES2   0.0000
    81 H26      2.6024   0.0369  13.8221   H         2 RES2   0.0000
    82 S1       7.0417  15.9211  11.4665   S.2       3 RES3  -1.0000
    83 C41      6.1293  14.5879  11.1956   C.1       3 RES3   0.0000
    84 N5       5.4993  13.6421  11.0490   N.1       3 RES3   0.0000
    85 O5       3.8404  11.8568   9.7375   O.3       4 RES4   0.0000
    86 H27      4.0161  12.2886  10.4243   H         4 RES4   0.0000
    87 C42      2.8994  12.5361   8.9971   C.3       4 RES4   0.0000
    88 H28      2.8926  12.1928   8.0900   H         4 RES4   0.0000
    89 H29      3.1173  13.4804   8.9847   H         4 RES4   0.0000
    90 H30      2.0233  12.4113   9.3960   H         4 RES4   0.0000
@<TRIPOS>BOND
     1     1     9    1
     2     2     7    1
     3     3     8    1
     4     4    10    1
     5     5    11    1
     6     6    12    1
     7     7    10   ar
     8     8    10   ar
     9     9    11   ar
    10    11     7   ar
    11    12     8   ar
    12     9    12   ar
    13    13    14    1
    14    14    30    1
    15    15    13    1
    16    16    13    1
    17    17    35    1
    18    18    13    1
    19    19    13    1
    20    20    55    1
    21    21    13    1
    22    22    21   ar
    23    23    16    1
    24    24    25    1
    25    25    18    2
    26    26    25    1
    27    27    31   ar
    28    28    18    1
    29    29    19   ar
    30    30    24   ar
    31    31    15    1
    32    32    16    2
    33    33    32    1
    34    34    29   ar
    35    35    36   ar
    36    36    24   ar
    37    37    36    1
    38    38    22   ar
    39    39    28   ar
    40    40    39    1
    41    41    27   ar
    42    42    41    1
    43    43    34   ar
    44    44    43    1
    45    45    23   ar
    46    46    45    1
    47    47    19   ar
    48    48    47    1
    49    49    31   ar
    50    50    49    1
    51    51    30   ar
    52    52    51    1
    53    53    34   ar
    54    54    53    1
    55    55    41   ar
    56    56    21   ar
    57    57    56    1
    58    58    49   ar
    59    59    58    1
    60    60    47   ar
    61    61    60    1
    62    62    35   ar
    63    63    62    1
    64    64    43   ar
    65    65    64    1
    66    66    38   ar
    67    67    66    1
    68    68    39   ar
    69    69    68    1
    70    70    38   ar
    71    71    70    1
    72    72    56   ar
    73    73    72    1
    74    74    17    1
    75    75    74    1
    76    76    74    1
    77    77    74    1
    78    78    20    1
    79    79    78    1
    80    80    78    1
    81    81    78    1
    82    22    28   ar
    83    23    29   ar
    84    27    32    1
    85    45    64   ar
    86    51    62   ar
    87    53    60   ar
    88    55    58   ar
    89    66    72   ar
    90    68    70   ar
    91    82    83    1
    92    83    84    3
    93    85    86    1
    94    87    85    1
    95    88    87    1
    96    89    87    1
    97    90    87    1
@<TRIPOS>SUBSTRUCTURE
     1 RES1        1 GROUP             0 ****  ****    0  
     2 RES2       13 GROUP             0 ****  ****    0  
     3 RES3       82 GROUP             0 ****  ****    0  
     4 RES4       85 GROUP             0 ****  ****    0  
@<TRIPOS>CRYSIN
   11.3799   13.0051   14.3888   95.7710   99.8080   90.5420     2     1
