@<TRIPOS>MOLECULE
OPEVIR26
    84    92     3     0     0
SMALL
USER_CHARGES
****
Generated from the CSD

@<TRIPOS>ATOM
     1 I1       0.2489   3.5893   5.2222   I         1 RES1   0.0000
     2 I2       5.2391   1.7225   8.1944   I         1 RES1   0.0000
     3 I3       2.2661   6.5718  10.0745   I         1 RES1   0.0000
     4 F1       2.8125   1.8615   6.0968   F         1 RES1   0.0000
     5 F2       0.5359   5.7042   7.5615   F         1 RES1   0.0000
     6 F3       4.4691   4.3453   9.7192   F         1 RES1   0.0000
     7 C1       2.4873   5.0586   8.6782   C.ar      1 RES1   0.0000
     8 C2       1.6500   3.7944   6.7845   C.ar      1 RES1   0.0000
     9 C3       3.6877   3.0894   7.9093   C.ar      1 RES1   0.0000
    10 C4       1.5696   4.8416   7.6806   C.ar      1 RES1   0.0000
    11 C5       3.5531   4.1663   8.7581   C.ar      1 RES1   0.0000
    12 C6       2.7119   2.9185   6.9347   C.ar      1 RES1   0.0000
    13 Fe1      8.5907   5.8569  10.6880   Fe        2 RES2   1.0000
    14 O1       9.8012   5.3531  12.0339   O.3       2 RES2   0.0000
    15 O2       9.7857   7.0935   9.9547   O.3       2 RES2   0.0000
    16 N1       9.2518   4.5519   9.4119   N.2       2 RES2   0.0000
    17 O3      14.1820   1.9873  11.8539   O.3       2 RES2   0.0000
    18 O4      10.9665  12.2624  11.4613   O.3       2 RES2   0.0000
    19 N2       7.8036   7.1283  11.9175   N.2       2 RES2   0.0000
    20 N3       7.2245   4.6426  11.4748   N.ar      2 RES2   0.0000
    21 N4       7.2922   6.2396   9.2386   N.ar      2 RES2   0.0000
    22 C7      10.3440   3.8657   9.5391   C.2       2 RES2   0.0000
    23 H1      10.6205   3.3384   8.7987   H         2 RES2   0.0000
    24 C8       9.3554   8.9118  11.4979   C.ar      2 RES2   0.0000
    25 C9       7.4362   5.4034   8.1571   C.ar      2 RES2   0.0000
    26 C10     11.1622   3.8456  10.7114   C.ar      2 RES2   0.0000
    27 C11      6.6389   6.6483  12.5889   C.ar      2 RES2   0.0000
    28 C12     10.8547   4.5745  11.8809   C.ar      2 RES2   0.0000
    29 C13      8.4786   4.4505   8.2261   C.ar      2 RES2   0.0000
    30 C14     12.2757   2.9629  10.6721   C.ar      2 RES2   0.0000
    31 H2      12.4584   2.4639   9.8842   H         2 RES2   0.0000
    32 C15     11.7270   4.4100  12.9760   C.ar      2 RES2   0.0000
    33 H3      11.5579   4.8914  13.7774   H         2 RES2   0.0000
    34 C16      6.3824   5.2740  12.3534   C.ar      2 RES2   0.0000
    35 C17     10.0754   8.2794  10.4461   C.ar      2 RES2   0.0000
    36 C18      7.0525   3.3398  11.2583   C.ar      2 RES2   0.0000
    37 H4       7.6395   2.8907  10.6619   H         2 RES2   0.0000
    38 C19     11.1196   9.0188   9.8342   C.ar      2 RES2   0.0000
    39 H5      11.6402   8.6119   9.1507   H         2 RES2   0.0000
    40 C20      9.6624  10.2479  11.8796   C.ar      2 RES2   0.0000
    41 H6       9.1883  10.6590  12.5937   H         2 RES2   0.0000
    42 C21      8.2689   8.3130  12.1869   C.2       2 RES2   0.0000
    43 H7       7.8568   8.8061  12.8869   H         2 RES2   0.0000
    44 C22      5.3091   4.6165  12.9787   C.ar      2 RES2   0.0000
    45 C23      7.7975   3.6122   6.0792   C.ar      2 RES2   0.0000
    46 H8       7.9158   2.9860   5.3753   H         2 RES2   0.0000
    47 C24      6.3584   7.1661   9.1858   C.ar      2 RES2   0.0000
    48 H9       6.2604   7.7556   9.9240   H         2 RES2   0.0000
    49 C25     10.6509  10.9482  11.2122   C.ar      2 RES2   0.0000
    50 C26     13.0943   2.8284  11.7794   C.ar      2 RES2   0.0000
    51 C27      5.7791   7.3642  13.3848   C.ar      2 RES2   0.0000
    52 H10      5.9218   8.2922  13.5269   H         2 RES2   0.0000
    53 C28     11.3898  10.3032  10.2078   C.ar      2 RES2   0.0000
    54 H11     12.0950  10.7731   9.7776   H         2 RES2   0.0000
    55 C29      6.5904   5.4770   7.0173   C.ar      2 RES2   0.0000
    56 C30      4.4446   5.3842  13.8031   C.ar      2 RES2   0.0000
    57 H12      3.6994   4.9721  14.2239   H         2 RES2   0.0000
    58 C31      8.6405   3.5468   7.1960   C.ar      2 RES2   0.0000
    59 H13      9.3202   2.8843   7.2443   H         2 RES2   0.0000
    60 C32      6.8108   4.5507   5.9750   C.ar      2 RES2   0.0000
    61 H14      6.2689   4.5799   5.1949   H         2 RES2   0.0000
    62 C33      4.6854   6.7144  13.9926   C.ar      2 RES2   0.0000
    63 H15      4.0991   7.2161  14.5473   H         2 RES2   0.0000
    64 C34     12.8078   3.5796  12.9205   C.ar      2 RES2   0.0000
    65 H16     13.3802   3.5118  13.6757   H         2 RES2   0.0000
    66 C35      5.1665   3.2282  12.7297   C.ar      2 RES2   0.0000
    67 H17      4.4728   2.7342  13.1510   H         2 RES2   0.0000
    68 C36      5.6144   6.4961   7.0132   C.ar      2 RES2   0.0000
    69 H18      5.0413   6.6009   6.2634   H         2 RES2   0.0000
    70 C37      5.4944   7.3213   8.0758   C.ar      2 RES2   0.0000
    71 H19      4.8335   8.0032   8.0779   H         2 RES2   0.0000
    72 C38      6.0304   2.6108  11.8836   C.ar      2 RES2   0.0000
    73 H20      5.9415   1.6797  11.7136   H         2 RES2   0.0000
    74 C39     10.0453  12.9937  12.2518   C.3       2 RES2   0.0000
    75 H21      9.1527  12.9328  11.8530   H         2 RES2   0.0000
    76 H22     10.3228  13.9324  12.2921   H         2 RES2   0.0000
    77 H23     10.0248  12.6199  13.1578   H         2 RES2   0.0000
    78 C40     14.2790   0.9900  10.8454   C.3       2 RES2   0.0000
    79 H24     14.3996   1.4190   9.9728   H         2 RES2   0.0000
    80 H25     13.4596   0.4538  10.8365   H         2 RES2   0.0000
    81 H26     15.0472   0.4108  11.0336   H         2 RES2   0.0000
    82 S1      -1.7317   3.9267   2.6623   S.2       3 RES3  -1.0000
    83 C41     -2.8791   2.7786   2.9306   C.1       3 RES3   0.0000
    84 N5      -3.7094   1.9740   3.1174   N.1       3 RES3   0.0000
@<TRIPOS>BOND
     1     1     8    1
     2     2     9    1
     3     3     7    1
     4     4    12    1
     5     5    10    1
     6     6    11    1
     7     7    10   ar
     8     8    10   ar
     9     9    11   ar
    10    11     7   ar
    11    12     8   ar
    12     9    12   ar
    13    13    14    1
    14    14    28    1
    15    15    13    1
    16    16    13    1
    17    17    50    1
    18    18    49    1
    19    19    13    1
    20    20    13    1
    21    21    13    1
    22    22    16    2
    23    23    22    1
    24    24    35   ar
    25    25    21   ar
    26    26    22    1
    27    27    19    1
    28    28    26   ar
    29    29    16    1
    30    30    26   ar
    31    31    30    1
    32    32    28   ar
    33    33    32    1
    34    34    20   ar
    35    35    15    1
    36    36    20   ar
    37    37    36    1
    38    38    35   ar
    39    39    38    1
    40    40    24   ar
    41    41    40    1
    42    42    19    2
    43    43    42    1
    44    44    34   ar
    45    45    46    1
    46    47    21   ar
    47    48    47    1
    48    49    40   ar
    49    50    30   ar
    50    51    27   ar
    51    52    51    1
    52    53    38   ar
    53    54    53    1
    54    55    25   ar
    55    56    44   ar
    56    57    56    1
    57    58    29   ar
    58    59    58    1
    59    60    45   ar
    60    61    60    1
    61    62    51   ar
    62    63    62    1
    63    64    32   ar
    64    65    64    1
    65    66    44   ar
    66    67    66    1
    67    68    55   ar
    68    69    68    1
    69    70    47   ar
    70    71    70    1
    71    72    36   ar
    72    73    72    1
    73    74    18    1
    74    75    74    1
    75    76    74    1
    76    77    74    1
    77    78    17    1
    78    79    78    1
    79    80    78    1
    80    81    78    1
    81    24    42    1
    82    25    29   ar
    83    27    34   ar
    84    45    58   ar
    85    49    53   ar
    86    50    64   ar
    87    55    60   ar
    88    56    62   ar
    89    66    72   ar
    90    68    70   ar
    91    82    83    1
    92    83    84    3
@<TRIPOS>SUBSTRUCTURE
     1 RES1        1 GROUP             0 ****  ****    0  
     2 RES2       13 GROUP             0 ****  ****    0  
     3 RES3       82 GROUP             0 ****  ****    0  
@<TRIPOS>CRYSIN
   11.8317   12.3456   13.9916   82.7740   77.2280   89.2770     2     1
