@<TRIPOS>MOLECULE
OPEVUD28
    90    97     4     0     0
SMALL
USER_CHARGES
****
Generated from the CSD

@<TRIPOS>ATOM
     1 I1      -2.4311   2.4412   8.7522   I         1 RES1   0.0000
     2 I2       2.3288   0.6541   5.3882   I         1 RES1   0.0000
     3 I3      -1.1600   5.1367   3.4823   I         1 RES1   0.0000
     4 F1       1.1035   2.9781   3.6772   F         1 RES1   0.0000
     5 F2      -2.5679   4.3472   6.2165   F         1 RES1   0.0000
     6 F3       0.0931   0.7801   7.7037   F         1 RES1   0.0000
     7 C1       0.6602   1.8554   5.6715   C.ar      1 RES1   0.0000
     8 C2      -0.7567   3.6929   4.9138   C.ar      1 RES1   0.0000
     9 C3      -1.2668   2.5603   7.0052   C.ar      1 RES1   0.0000
    10 C4       0.3321   2.8230   4.7617   C.ar      1 RES1   0.0000
    11 C5      -1.5252   3.5311   6.0517   C.ar      1 RES1   0.0000
    12 C6      -0.1825   1.7368   6.7883   C.ar      1 RES1   0.0000
    13 Fe1      5.4007   4.4726   2.9222   Fe        2 RES2   1.0000
    14 O1       6.6657   3.8895   1.6281   O.3       2 RES2   0.0000
    15 O2       6.4576   5.8677   3.5899   O.3       2 RES2   0.0000
    16 N1       4.4557   5.7496   1.6337   N.2       2 RES2   0.0000
    17 N2       4.0069   3.2008   2.0914   N.ar      2 RES2   0.0000
    18 O3      10.6935   0.1012   1.6689   O.3       2 RES2   0.0000
    19 N3       6.1177   3.1434   4.2856   N.2       2 RES2   0.0000
    20 N4       4.0533   4.7667   4.4744   N.ar      2 RES2   0.0000
    21 O4       7.3824  11.0576   1.9421   O.3       2 RES2   0.0000
    22 C7       7.1066   2.3356   4.0899   C.2       2 RES2   0.0000
    23 H1       7.3545   1.7816   4.8082   H         2 RES2   0.0000
    24 C8       3.1369   3.8008   1.2253   C.ar      2 RES2   0.0000
    25 C9       3.3334   5.1876   0.9633   C.ar      2 RES2   0.0000
    26 C10      4.3507   4.0286   5.6010   C.ar      2 RES2   0.0000
    27 C11      7.8622   2.2049   2.8759   C.ar      2 RES2   0.0000
    28 C12      7.6088   2.9730   1.7196   C.ar      2 RES2   0.0000
    29 C13      4.8478   6.9529   1.3717   C.2       2 RES2   0.0000
    30 H2       4.3977   7.4141   0.6873   H         2 RES2   0.0000
    31 C14      5.4482   3.1552   5.5461   C.ar      2 RES2   0.0000
    32 C15      6.6557   7.0860   3.0928   C.ar      2 RES2   0.0000
    33 C16      2.0928   3.0897   0.5957   C.ar      2 RES2   0.0000
    34 C17      8.8936   1.2364   2.8857   C.ar      2 RES2   0.0000
    35 H3       9.0565   0.7395   3.6663   H         2 RES2   0.0000
    36 C18      5.9057   7.6350   2.0337   C.ar      2 RES2   0.0000
    37 C19      2.4551   5.8499   0.1408   C.ar      2 RES2   0.0000
    38 H4       2.5559   6.7715  -0.0127   H         2 RES2   0.0000
    39 C20      1.3938   5.1350  -0.4760   C.ar      2 RES2   0.0000
    40 H5       0.7969   5.5909  -1.0406   H         2 RES2   0.0000
    41 C21      5.7854   2.4213   6.6559   C.ar      2 RES2   0.0000
    42 H6       6.5269   1.8442   6.6267   H         2 RES2   0.0000
    43 C22      3.0177   5.5919   4.4983   C.ar      2 RES2   0.0000
    44 H7       2.8160   6.0917   3.7286   H         2 RES2   0.0000
    45 C23      3.5724   4.1452   6.8024   C.ar      2 RES2   0.0000
    46 C24      3.8845   1.8904   2.3210   C.ar      2 RES2   0.0000
    47 H8       4.4835   1.4740   2.9142   H         2 RES2   0.0000
    48 C25      1.2240   3.7928  -0.2620   C.ar      2 RES2   0.0000
    49 H9       0.5221   3.3376  -0.6900   H         2 RES2   0.0000
    50 C26      9.6668   1.0132   1.7604   C.ar      2 RES2   0.0000
    51 C27      7.6427   7.9014   3.6927   C.ar      2 RES2   0.0000
    52 H10      8.1582   7.5560   4.3987   H         2 RES2   0.0000
    53 C28      8.4237   2.7115   0.5802   C.ar      2 RES2   0.0000
    54 H11      8.2854   3.2034  -0.2085   H         2 RES2   0.0000
    55 C29      6.1436   8.9891   1.6140   C.ar      2 RES2   0.0000
    56 H12      5.6450   9.3593   0.9093   H         2 RES2   0.0000
    57 C30      2.0027   1.6952   0.8577   C.ar      2 RES2   0.0000
    58 H13      1.3320   1.1787   0.4493   H         2 RES2   0.0000
    59 C31      7.0960   9.7323   2.2435   C.ar      2 RES2   0.0000
    60 C32      2.8913   1.1179   1.7027   C.ar      2 RES2   0.0000
    61 H14      2.8408   0.1955   1.8749   H         2 RES2   0.0000
    62 C33      2.4799   5.0497   6.7657   C.ar      2 RES2   0.0000
    63 H15      1.9445   5.1665   7.5295   H         2 RES2   0.0000
    64 C34      9.3980   1.7649   0.6140   C.ar      2 RES2   0.0000
    65 H16      9.9077   1.6097  -0.1603   H         2 RES2   0.0000
    66 C35      5.0264   2.5257   7.8389   C.ar      2 RES2   0.0000
    67 H17      5.2627   2.0129   8.5899   H         2 RES2   0.0000
    68 C36      3.9488   3.3684   7.9051   C.ar      2 RES2   0.0000
    69 H18      3.4543   3.4257   8.7021   H         2 RES2   0.0000
    70 C37      7.8642   9.1754   3.2660   C.ar      2 RES2   0.0000
    71 H19      8.5431   9.6874   3.6677   H         2 RES2   0.0000
    72 C38      2.2032   5.7435   5.6461   C.ar      2 RES2   0.0000
    73 H20      1.4691   6.3292   5.6253   H         2 RES2   0.0000
    74 C39      6.4117  11.7510   1.1675   C.3       2 RES2   0.0000
    75 H21      6.3208  11.3211   0.3026   H         2 RES2   0.0000
    76 H22      6.6937  12.6706   1.0434   H         2 RES2   0.0000
    77 H23      5.5581  11.7338   1.6281   H         2 RES2   0.0000
    78 C40     10.9003  -0.7215   2.7562   C.3       2 RES2   0.0000
    79 H24     11.6051  -1.3559   2.5516   H         2 RES2   0.0000
    80 H25     10.0823  -1.2007   2.9591   H         2 RES2   0.0000
    81 H26     11.1602  -0.1857   3.5221   H         2 RES2   0.0000
    82 S1       1.6683  -4.3054   2.6415   S.2       3 RES3  -1.0000
    83 C41      2.6636  -3.0518   2.9083   C.1       3 RES3   0.0000
    84 N5       3.3873  -2.1511   3.0477   N.1       3 RES3   0.0000
    85 O5       4.9799  -0.3608   4.3842   O.3       4 RES4   0.0000
    86 H27      4.9843  -0.5891   3.5869   H         4 RES4   0.0000
    87 C42      6.0161  -0.9948   5.0546   C.3       4 RES4   0.0000
    88 H28      6.8220  -0.9531   4.5160   H         4 RES4   0.0000
    89 H29      5.7801  -1.9222   5.2120   H         4 RES4   0.0000
    90 H30      6.1716  -0.5518   5.9034   H         4 RES4   0.0000
@<TRIPOS>BOND
     1     1     9    1
     2     2     7    1
     3     3     8    1
     4     4    10    1
     5     5    11    1
     6     6    12    1
     7     7    10   ar
     8     8    10   ar
     9     9    11   ar
    10    11     8   ar
    11    12     7   ar
    12     9    12   ar
    13    13    14    1
    14    14    28    1
    15    15    13    1
    16    16    13    1
    17    17    13    1
    18    18    50    1
    19    19    13    1
    20    20    13    1
    21    21    59    1
    22    22    19    2
    23    23    22    1
    24    24    17   ar
    25    25    16    1
    26    26    20   ar
    27    27    22    1
    28    28    27   ar
    29    29    16    2
    30    30    29    1
    31    31    19    1
    32    32    15    1
    33    33    24   ar
    34    34    27   ar
    35    35    34    1
    36    36    29    1
    37    37    25   ar
    38    38    37    1
    39    39    37   ar
    40    40    39    1
    41    41    31   ar
    42    42    41    1
    43    43    20   ar
    44    44    43    1
    45    45    26   ar
    46    46    17   ar
    47    47    46    1
    48    48    33   ar
    49    49    48    1
    50    50    34   ar
    51    51    32   ar
    52    52    51    1
    53    53    28   ar
    54    54    53    1
    55    55    36   ar
    56    56    55    1
    57    57    33   ar
    58    58    57    1
    59    59    55   ar
    60    60    46   ar
    61    61    60    1
    62    62    45   ar
    63    63    62    1
    64    64    50   ar
    65    65    64    1
    66    66    41   ar
    67    67    66    1
    68    68    45   ar
    69    69    68    1
    70    70    51   ar
    71    71    70    1
    72    72    43   ar
    73    73    72    1
    74    74    21    1
    75    75    74    1
    76    76    74    1
    77    77    74    1
    78    78    18    1
    79    79    78    1
    80    80    78    1
    81    81    78    1
    82    24    25   ar
    83    26    31   ar
    84    32    36   ar
    85    39    48   ar
    86    53    64   ar
    87    57    60   ar
    88    59    70   ar
    89    62    72   ar
    90    66    68   ar
    91    82    83    1
    92    83    84    3
    93    85    86    1
    94    87    85    1
    95    88    87    1
    96    89    87    1
    97    90    87    1
@<TRIPOS>SUBSTRUCTURE
     1 RES1        1 GROUP             0 ****  ****    0  
     2 RES2       13 GROUP             0 ****  ****    0  
     3 RES3       82 GROUP             0 ****  ****    0  
     4 RES4       85 GROUP             0 ****  ****    0  
@<TRIPOS>CRYSIN
   11.4366   12.8323   14.3840   95.6440  100.2130   90.3690     2     1
