@<TRIPOS>MOLECULE
OPEVIR17
    84    92     3     0     0
SMALL
USER_CHARGES
****
Generated from the CSD

@<TRIPOS>ATOM
     1 I1      14.3917  10.4830   8.4701   I         1 RES1   0.0000
     2 I2       9.5832  12.6412   5.4149   I         1 RES1   0.0000
     3 I3      12.4334   7.7826   3.4397   I         1 RES1   0.0000
     4 F1      11.9317  12.3337   7.5793   F         1 RES1   0.0000
     5 F2      14.1153   8.4979   6.0225   F         1 RES1   0.0000
     6 F3      10.3118  10.0586   3.8176   F         1 RES1   0.0000
     7 C1      13.0371  10.4097   6.8534   C.ar      1 RES1   0.0000
     8 C2      13.1203   9.3994   5.9106   C.ar      1 RES1   0.0000
     9 C3      12.0161  11.3108   6.6938   C.ar      1 RES1   0.0000
    10 C4      12.2259   9.2587   4.8778   C.ar      1 RES1   0.0000
    11 C5      11.0800  11.2247   5.6910   C.ar      1 RES1   0.0000
    12 C6      11.1961  10.1994   4.8177   C.ar      1 RES1   0.0000
    13 Fe1      6.0859   8.4459   2.8243   Fe        2 RES2   1.0000
    14 O1       4.8260   9.1571   1.5773   O.3       2 RES2   0.0000
    15 O2       4.9744   7.0378   3.4178   O.3       2 RES2   0.0000
    16 N1       7.0844   7.0973   1.5814   N.2       2 RES2   0.0000
    17 N2       5.4722   9.9041   4.1969   N.2       2 RES2   0.0000
    18 O3       0.6674  12.7440   1.7846   O.3       2 RES2   0.0000
    19 N3       7.6128   9.6434   1.9688   N.ar      2 RES2   0.0000
    20 N4       7.4270   8.1439   4.4603   N.ar      2 RES2   0.0000
    21 O4       4.1889   1.7790   2.0534   O.3       2 RES2   0.0000
    22 C7       8.2282   7.6042   0.9087   C.ar      2 RES2   0.0000
    23 C8       4.4283  10.6508   4.0400   C.2       2 RES2   0.0000
    24 H1       4.1911  11.1854   4.7632   H         2 RES2   0.0000
    25 C9       5.6401   5.1956   2.0371   C.ar      2 RES2   0.0000
    26 C10      3.5996  10.7451   2.8830   C.ar      2 RES2   0.0000
    27 C11      8.4724   8.9789   1.1297   C.ar      2 RES2   0.0000
    28 C12      4.8064   5.8065   3.0099   C.ar      2 RES2   0.0000
    29 C13      3.8304  10.0009   1.7082   C.ar      2 RES2   0.0000
    30 C14      7.2635   9.0159   5.5013   C.ar      2 RES2   0.0000
    31 C15      6.7160   5.8667   1.3794   C.2       2 RES2   0.0000
    32 H2       7.1972   5.3801   0.7495   H         2 RES2   0.0000
    33 C16      6.2280   9.9796   5.3962   C.ar      2 RES2   0.0000
    34 C17      9.5532   9.6419   0.5130   C.ar      2 RES2   0.0000
    35 C18      1.7197  11.8539   1.8406   C.ar      2 RES2   0.0000
    36 C19      9.1025   6.9095   0.1187   C.ar      2 RES2   0.0000
    37 H3       8.9700   6.0009  -0.0256   H         2 RES2   0.0000
    38 C20      5.4314   3.8438   1.6932   C.ar      2 RES2   0.0000
    39 H4       5.9715   3.4469   1.0486   H         2 RES2   0.0000
    40 C21      2.9712  10.2116   0.6181   C.ar      2 RES2   0.0000
    41 H5       3.1026   9.7355  -0.1692   H         2 RES2   0.0000
    42 C22      2.5265  11.6688   2.9308   C.ar      2 RES2   0.0000
    43 H6       2.3698  12.1525   3.7096   H         2 RES2   0.0000
    44 C23      7.7998  10.9464   2.1667   C.ar      2 RES2   0.0000
    45 H7       7.2166  11.4007   2.7308   H         2 RES2   0.0000
    46 C24      8.0884   8.9656   6.6624   C.ar      2 RES2   0.0000
    47 C25      4.4428   3.1022   2.2936   C.ar      2 RES2   0.0000
    48 C26      1.9464  11.1102   0.7027   C.ar      2 RES2   0.0000
    49 H8       1.3842  11.2222  -0.0289   H         2 RES2   0.0000
    50 C27      9.7023  11.0176   0.7532   C.ar      2 RES2   0.0000
    51 H9      10.3996  11.4846   0.3531   H         2 RES2   0.0000
    52 C28     10.4210   8.8803  -0.3029   C.ar      2 RES2   0.0000
    53 H10     11.1449   9.2882  -0.7201   H         2 RES2   0.0000
    54 C29      3.7757   5.0288   3.5638   C.ar      2 RES2   0.0000
    55 H11      3.1915   5.4141   4.1754   H         2 RES2   0.0000
    56 C30      8.3630   7.2266   4.5571   C.ar      2 RES2   0.0000
    57 H12      8.4774   6.6312   3.8521   H         2 RES2   0.0000
    58 C31      6.0638  10.8722   6.4168   C.ar      2 RES2   0.0000
    59 H13      5.4012  11.5218   6.3526   H         2 RES2   0.0000
    60 C32     10.1982   7.5546  -0.4762   C.ar      2 RES2   0.0000
    61 H14     10.7852   7.0599  -1.0012   H         2 RES2   0.0000
    62 C33      9.0576   7.9583   6.7115   C.ar      2 RES2   0.0000
    63 H15      9.6068   7.8770   7.4570   H         2 RES2   0.0000
    64 C34      8.8415  11.6641   1.5582   C.ar      2 RES2   0.0000
    65 H16      8.9354  12.5761   1.7114   H         2 RES2   0.0000
    66 C35      9.1949   7.1052   5.6787   C.ar      2 RES2   0.0000
    67 H17      9.8411   6.4374   5.7089   H         2 RES2   0.0000
    68 C36      6.8712  10.8307   7.5547   C.ar      2 RES2   0.0000
    69 H18      6.7361  11.4484   8.2365   H         2 RES2   0.0000
    70 C37      3.6186   3.7245   3.2214   C.ar      2 RES2   0.0000
    71 H19      2.9379   3.2321   3.6212   H         2 RES2   0.0000
    72 C38      7.8465   9.9025   7.6789   C.ar      2 RES2   0.0000
    73 H20      8.3657   9.8843   8.4504   H         2 RES2   0.0000
    74 C39      0.5914  13.7361   2.7916   C.3       2 RES2   0.0000
    75 H21     -0.1942  14.2714   2.6552   H         2 RES2   0.0000
    76 H22      1.3705  14.2958   2.7484   H         2 RES2   0.0000
    77 H23      0.5467  13.3156   3.6528   H         2 RES2   0.0000
    78 C40      5.1307   1.0665   1.2976   C.3       2 RES2   0.0000
    79 H24      5.1907   1.4476   0.4183   H         2 RES2   0.0000
    80 H25      4.8572   0.1480   1.2291   H         2 RES2   0.0000
    81 H26      5.9878   1.1135   1.7262   H         2 RES2   0.0000
    82 S1      16.3620  10.1532  10.9920   S.2       3 RES3  -1.0000
    83 N5      17.8635  12.4629  10.5537   N.1       3 RES3   0.0000
    84 C41     17.2312  11.4916  10.7365   C.1       3 RES3   0.0000
@<TRIPOS>BOND
     1     1     7    1
     2     2    11    1
     3     3    10    1
     4     4     9    1
     5     5     8    1
     6     6    12    1
     7     7     8   ar
     8     8    10   ar
     9     9     7   ar
    10    10    12   ar
    11    11     9   ar
    12    12    11   ar
    13    13    14    1
    14    14    29    1
    15    15    13    1
    16    16    13    1
    17    17    13    1
    18    18    35    1
    19    19    13    1
    20    20    13    1
    21    21    47    1
    22    22    16    1
    23    23    17    2
    24    24    23    1
    25    25    28   ar
    26    26    23    1
    27    27    19   ar
    28    28    15    1
    29    29    26   ar
    30    30    20   ar
    31    31    16    2
    32    32    31    1
    33    33    17    1
    34    34    27   ar
    35    35    42   ar
    36    36    22   ar
    37    37    36    1
    38    38    25   ar
    39    39    38    1
    40    40    29   ar
    41    41    40    1
    42    42    26   ar
    43    43    42    1
    44    44    19   ar
    45    45    44    1
    46    46    30   ar
    47    47    38   ar
    48    48    35   ar
    49    49    48    1
    50    50    34   ar
    51    51    50    1
    52    52    34   ar
    53    53    52    1
    54    54    28   ar
    55    55    54    1
    56    56    20   ar
    57    57    56    1
    58    58    33   ar
    59    59    58    1
    60    60    36   ar
    61    61    60    1
    62    62    46   ar
    63    63    62    1
    64    64    44   ar
    65    65    64    1
    66    66    56   ar
    67    67    66    1
    68    68    58   ar
    69    69    68    1
    70    70    47   ar
    71    71    70    1
    72    72    46   ar
    73    73    72    1
    74    74    18    1
    75    75    74    1
    76    76    74    1
    77    77    74    1
    78    78    21    1
    79    79    78    1
    80    80    78    1
    81    81    78    1
    82    22    27   ar
    83    25    31    1
    84    30    33   ar
    85    40    48   ar
    86    50    64   ar
    87    52    60   ar
    88    54    70   ar
    89    62    66   ar
    90    68    72   ar
    91    82    84    1
    92    83    84    3
@<TRIPOS>SUBSTRUCTURE
     1 RES1        1 GROUP             0 ****  ****    0  
     2 RES2       13 GROUP             0 ****  ****    0  
     3 RES3       82 GROUP             0 ****  ****    0  
@<TRIPOS>CRYSIN
   11.6512   12.7890   14.0131   83.5480   78.5540   89.9540     2     1
