@<TRIPOS>MOLECULE
OPEYAM18
    87    94     4     0     0
SMALL
USER_CHARGES
****
Generated from the CSD

@<TRIPOS>ATOM
     1 I1      14.6309  10.3279   8.5046   I         1 RES1   0.0000
     2 I2       9.6527  12.2058   5.5488   I         1 RES1   0.0000
     3 I3      12.7814   7.5178   3.4852   I         1 RES1   0.0000
     4 F1      12.0832  12.0603   7.6201   F         1 RES1   0.0000
     5 F2      14.4549   8.3262   6.0579   F         1 RES1   0.0000
     6 F3      10.5522   9.7040   3.8737   F         1 RES1   0.0000
     7 C1      12.5165   9.0077   4.9155   C.ar      1 RES1   0.0000
     8 C2      13.2925  10.1937   6.8874   C.ar      1 RES1   0.0000
     9 C3      13.4175   9.1833   5.9462   C.ar      1 RES1   0.0000
    10 C4      11.2744  10.9144   5.7423   C.ar      1 RES1   0.0000
    11 C5      12.2215  11.0530   6.7400   C.ar      1 RES1   0.0000
    12 C6      11.4488   9.8787   4.8521   C.ar      1 RES1   0.0000
    13 Fe1      6.4327   8.1696   2.9197   Fe        2 RES2   1.0000
    14 O1       5.2256   8.6590   1.5656   O.3       2 RES2   0.0000
    15 O2       5.2616   6.9072   3.6444   O.3       2 RES2   0.0000
    16 O3       0.9412  12.1480   1.6578   O.3       2 RES2   0.0000
    17 N1       5.7401   9.4489   4.2072   N.2       2 RES2   0.0000
    18 O4       4.0819   1.7710   2.0064   O.3       2 RES2   0.0000
    19 N2       7.7355   7.7916   4.3739   N.ar      2 RES2   0.0000
    20 N3       7.7745   9.4176   2.1525   N.ar      2 RES2   0.0000
    21 N4       7.2328   6.9327   1.6674   N.2       2 RES2   0.0000
    22 C7       4.6807  10.1787   4.0404   C.2       2 RES2   0.0000
    23 H1       4.4058  10.7216   4.7692   H         2 RES2   0.0000
    24 C8       4.2017   9.4846   1.6950   C.ar      2 RES2   0.0000
    25 C9       6.4816   9.5070   5.4171   C.ar      2 RES2   0.0000
    26 C10      5.6782   5.1229   2.0436   C.ar      2 RES2   0.0000
    27 C11      3.3566   9.6682   0.5802   C.ar      2 RES2   0.0000
    28 H2       3.5276   9.1754  -0.2138   H         2 RES2   0.0000
    29 C12      8.3781   7.4406   0.9922   C.ar      2 RES2   0.0000
    30 C13      8.6147   8.7994   1.2582   C.ar      2 RES2   0.0000
    31 C14      2.7928  11.1323   2.8649   C.ar      2 RES2   0.0000
    32 H3       2.6012  11.6324   3.6497   H         2 RES2   0.0000
    33 C15      7.5422   8.5850   5.4777   C.ar      2 RES2   0.0000
    34 C16      3.8975  10.2313   2.8581   C.ar      2 RES2   0.0000
    35 C17      4.9899   5.7227   3.1309   C.ar      2 RES2   0.0000
    36 C18      6.7622   5.7528   1.3643   C.2       2 RES2   0.0000
    37 H4       7.1698   5.2830   0.6461   H         2 RES2   0.0000
    38 C19      2.0087  11.2865   1.7625   C.ar      2 RES2   0.0000
    39 C20      5.3707   3.7982   1.6275   C.ar      2 RES2   0.0000
    40 H5       5.8302   3.4142   0.8907   H         2 RES2   0.0000
    41 C21      8.7078   6.9015   4.3987   C.ar      2 RES2   0.0000
    42 H6       8.8454   6.3516   3.6355   H         2 RES2   0.0000
    43 C22      2.2978  10.5356   0.6063   C.ar      2 RES2   0.0000
    44 H7       1.7516  10.6326  -0.1651   H         2 RES2   0.0000
    45 C23      3.6960   3.6741   3.3266   C.ar      2 RES2   0.0000
    46 H8       3.0094   3.1805   3.7598   H         2 RES2   0.0000
    47 C24      8.3500   8.4866   6.6256   C.ar      2 RES2   0.0000
    48 C25      4.4115   3.0760   2.2889   C.ar      2 RES2   0.0000
    49 C26      7.9362  10.7071   2.4074   C.ar      2 RES2   0.0000
    50 H9       7.3587  11.1327   3.0306   H         2 RES2   0.0000
    51 C27      3.9611   4.9624   3.7386   C.ar      2 RES2   0.0000
    52 H10      3.4464   5.3457   4.4395   H         2 RES2   0.0000
    53 C28      7.0612  10.2600   7.6233   C.ar      2 RES2   0.0000
    54 H11      6.8984  10.8491   8.3510   H         2 RES2   0.0000
    55 C29      6.2549  10.3402   6.4782   C.ar      2 RES2   0.0000
    56 H12      5.5488  10.9756   6.4383   H         2 RES2   0.0000
    57 C30      9.6759   9.4902   0.6367   C.ar      2 RES2   0.0000
    58 C31     10.5258   8.7647  -0.2329   C.ar      2 RES2   0.0000
    59 H13     11.2490   9.2015  -0.6680   H         2 RES2   0.0000
    60 C32      9.2305   6.7519   0.1530   C.ar      2 RES2   0.0000
    61 H14      9.0932   5.8279  -0.0177   H         2 RES2   0.0000
    62 C33      9.3748   7.5068   6.6229   C.ar      2 RES2   0.0000
    63 H15      9.9324   7.3906   7.3841   H         2 RES2   0.0000
    64 C34      9.8112  10.8695   0.9205   C.ar      2 RES2   0.0000
    65 H16     10.5043  11.3755   0.5132   H         2 RES2   0.0000
    66 C35      8.9470  11.4636   1.7763   C.ar      2 RES2   0.0000
    67 H17      9.0198  12.3948   1.9515   H         2 RES2   0.0000
    68 C36      8.0779   9.3511   7.7129   C.ar      2 RES2   0.0000
    69 H18      8.6014   9.2994   8.5045   H         2 RES2   0.0000
    70 C37     10.3002   7.4304  -0.4451   C.ar      2 RES2   0.0000
    71 H19     10.8877   6.9498  -1.0166   H         2 RES2   0.0000
    72 C38      9.5503   6.7366   5.5163   C.ar      2 RES2   0.0000
    73 H20     10.2420   6.0856   5.4957   H         2 RES2   0.0000
    74 C39      4.9852   1.0593   1.1603   C.3       2 RES2   0.0000
    75 H21      5.0206   1.4924   0.2820   H         2 RES2   0.0000
    76 H22      4.6758   0.1349   1.0562   H         2 RES2   0.0000
    77 H23      5.8794   1.0606   1.5616   H         2 RES2   0.0000
    78 C40      0.7610  13.0657   2.7120   C.3       2 RES2   0.0000
    79 H24     -0.0139  13.6344   2.5224   H         2 RES2   0.0000
    80 H25      1.5623  13.6246   2.7992   H         2 RES2   0.0000
    81 H26      0.6117  12.5780   3.5489   H         2 RES2   0.0000
    82 S1      10.3235  16.3871   2.6210   S.2       3 RES3  -1.0000
    83 N5       8.2899  14.5129   3.0730   N.1       3 RES3   0.0000
    84 C41      9.1323  15.2878   2.8884   C.1       3 RES3   0.0000
    85 O5       6.3549  12.9995   4.4318   O.3       4 RES4   0.0000
    86 H27      5.7866  13.4812   4.8403   H         4 RES4   0.0000
    87 H28      6.8761  13.4974   3.9808   H         4 RES4   0.0000
@<TRIPOS>BOND
     1     1     8    1
     2     2    10    1
     3     3     7    1
     4     4    11    1
     5     5     9    1
     6     6    12    1
     7     7     9   ar
     8     8     9   ar
     9    10    11   ar
    10    11     8   ar
    11    12     7   ar
    12    10    12   ar
    13    13    14    1
    14    14    24    1
    15    15    13    1
    16    16    38    1
    17    17    13    1
    18    18    48    1
    19    19    13    1
    20    20    13    1
    21    21    13    1
    22    22    17    2
    23    23    22    1
    24    24    27   ar
    25    25    17    1
    26    26    35   ar
    27    27    28    1
    28    29    21    1
    29    30    20   ar
    30    31    32    1
    31    33    19   ar
    32    34    22    1
    33    35    15    1
    34    36    21    2
    35    37    36    1
    36    38    31   ar
    37    39    26   ar
    38    40    39    1
    39    41    19   ar
    40    42    41    1
    41    43    27   ar
    42    44    43    1
    43    45    46    1
    44    47    33   ar
    45    48    39   ar
    46    49    20   ar
    47    50    49    1
    48    51    35   ar
    49    52    51    1
    50    53    54    1
    51    55    25   ar
    52    56    55    1
    53    57    30   ar
    54    58    57   ar
    55    59    58    1
    56    60    29   ar
    57    61    60    1
    58    62    47   ar
    59    63    62    1
    60    64    57   ar
    61    65    64    1
    62    66    49   ar
    63    67    66    1
    64    68    47   ar
    65    69    68    1
    66    70    58   ar
    67    71    70    1
    68    72    41   ar
    69    73    72    1
    70    74    18    1
    71    75    74    1
    72    76    74    1
    73    77    74    1
    74    78    16    1
    75    79    78    1
    76    80    78    1
    77    81    78    1
    78    24    34   ar
    79    25    33   ar
    80    26    36    1
    81    29    30   ar
    82    31    34   ar
    83    38    43   ar
    84    45    48   ar
    85    45    51   ar
    86    53    55   ar
    87    53    68   ar
    88    60    70   ar
    89    62    72   ar
    90    64    66   ar
    91    82    84    1
    92    83    84    3
    93    85    86    1
    94    87    85    1
@<TRIPOS>SUBSTRUCTURE
     1 RES1        1 GROUP             0 ****  ****    0  
     2 RES2       13 GROUP             0 ****  ****    0  
     3 RES3       82 GROUP             0 ****  ****    0  
     4 RES4       85 GROUP             0 ****  ****    0  
@<TRIPOS>CRYSIN
   11.7168   12.3682   14.1905   83.6740   77.6870   89.1890     2     1
