@<TRIPOS>MOLECULE
OPEYAM26
    87    94     4     0     0
SMALL
USER_CHARGES
****
Generated from the CSD

@<TRIPOS>ATOM
     1 I1       8.7516  10.3025   8.5293   I         1 RES1   0.0000
     2 I2       3.7681  12.1696   5.5755   I         1 RES1   0.0000
     3 I3       6.9330   7.5169   3.4857   I         1 RES1   0.0000
     4 F1       6.2004  12.0342   7.6466   F         1 RES1   0.0000
     5 F2       8.5953   8.3166   6.0671   F         1 RES1   0.0000
     6 F3       4.6946   9.6986   3.8767   F         1 RES1   0.0000
     7 C1       7.4253  10.1767   6.8972   C.ar      1 RES1   0.0000
     8 C2       6.6655   8.9964   4.9191   C.ar      1 RES1   0.0000
     9 C3       5.4055  10.8969   5.7575   C.ar      1 RES1   0.0000
    10 C4       6.3440  11.0345   6.7577   C.ar      1 RES1   0.0000
    11 C5       7.5594   9.1729   5.9592   C.ar      1 RES1   0.0000
    12 C6       5.5918   9.8668   4.8624   C.ar      1 RES1   0.0000
    13 Fe1      0.5765   8.1603   2.9297   Fe        2 RES2   1.0000
    14 O1      -0.5898   6.8911   3.6514   O.3       2 RES2   0.0000
    15 O2      -0.6315   8.6462   1.5759   O.3       2 RES2   0.0000
    16 O3      -4.9002  12.1491   1.6534   O.3       2 RES2   0.0000
    17 O4      -1.7719   1.7637   1.9988   O.3       2 RES2   0.0000
    18 N1      -0.1167   9.4374   4.2168   N.2       2 RES2   0.0000
    19 N2       1.3754   6.9251   1.6742   N.2       2 RES2   0.0000
    20 N3       1.8789   7.7864   4.3846   N.ar      2 RES2   0.0000
    21 N4       1.9100   9.4076   2.1649   N.ar      2 RES2   0.0000
    22 C7      -1.1688  10.1733   4.0474   C.2       2 RES2   0.0000
    23 H1      -1.4401  10.7206   4.7755   H         2 RES2   0.0000
    24 C8       0.8993   5.7543   1.3648   C.2       2 RES2   0.0000
    25 H2       1.3005   5.2927   0.6375   H         2 RES2   0.0000
    26 C9      -0.8588   5.7126   3.1329   C.ar      2 RES2   0.0000
    27 C10     -0.1779   5.1175   2.0403   C.ar      2 RES2   0.0000
    28 C11      2.5207   7.4394   0.9973   C.ar      2 RES2   0.0000
    29 C12      0.6129   9.4824   5.4357   C.ar      2 RES2   0.0000
    30 C13     -1.6421   9.4812   1.7018   C.ar      2 RES2   0.0000
    31 C14      1.6798   8.5691   5.4965   C.ar      2 RES2   0.0000
    32 C15      2.7560   8.7989   1.2681   C.ar      2 RES2   0.0000
    33 C16     -3.0513  11.1338   2.8663   C.ar      2 RES2   0.0000
    34 H3      -3.2402  11.6386   3.6493   H         2 RES2   0.0000
    35 C17     -1.9530  10.2294   2.8608   C.ar      2 RES2   0.0000
    36 C18     -3.8399  11.2872   1.7557   C.ar      2 RES2   0.0000
    37 C19     -2.4924   9.6581   0.5802   C.ar      2 RES2   0.0000
    38 H4      -2.3247   9.1606  -0.2110   H         2 RES2   0.0000
    39 C20     -1.4437   3.0694   2.2751   C.ar      2 RES2   0.0000
    40 C21      2.8584   6.8993   4.4024   C.ar      2 RES2   0.0000
    41 H5       3.0023   6.3574   3.6352   H         2 RES2   0.0000
    42 C22     -0.4912   3.7953   1.6231   C.ar      2 RES2   0.0000
    43 H6      -0.0322   3.4131   0.8847   H         2 RES2   0.0000
    44 C23     -1.8871   4.9400   3.7407   C.ar      2 RES2   0.0000
    45 H7      -2.3989   5.3180   4.4466   H         2 RES2   0.0000
    46 C24      2.4881   8.4644   6.6458   C.ar      2 RES2   0.0000
    47 C25      3.8113   9.4993   0.6437   C.ar      2 RES2   0.0000
    48 C26      3.3734   6.7577   0.1575   C.ar      2 RES2   0.0000
    49 H8       3.2363   5.8337  -0.0188   H         2 RES2   0.0000
    50 C27      2.0798  10.7004   2.4243   C.ar      2 RES2   0.0000
    51 H9       1.5054  11.1204   3.0536   H         2 RES2   0.0000
    52 C28      0.3782  10.3178   6.4980   C.ar      2 RES2   0.0000
    53 H10     -0.3205  10.9594   6.4550   H         2 RES2   0.0000
    54 C29     -2.1536   3.6613   3.3263   C.ar      2 RES2   0.0000
    55 H11     -2.8356   3.1641   3.7637   H         2 RES2   0.0000
    56 C30     -3.5504  10.5270   0.6119   C.ar      2 RES2   0.0000
    57 H12     -4.0998  10.6183  -0.1582   H         2 RES2   0.0000
    58 C31      1.1783  10.2174   7.6528   C.ar      2 RES2   0.0000
    59 H13      1.0050  10.7923   8.3897   H         2 RES2   0.0000
    60 C32      4.6593   8.7719  -0.2307   C.ar      2 RES2   0.0000
    61 H14      5.3776   9.2113  -0.6709   H         2 RES2   0.0000
    62 C33      3.0764  11.4663   1.7999   C.ar      2 RES2   0.0000
    63 H15      3.1447  12.3963   1.9804   H         2 RES2   0.0000
    64 C34      3.5143   7.4952   6.6361   C.ar      2 RES2   0.0000
    65 H16      4.0703   7.3755   7.3970   H         2 RES2   0.0000
    66 C35      2.1975   9.3139   7.7357   C.ar      2 RES2   0.0000
    67 H17      2.7137   9.2566   8.5314   H         2 RES2   0.0000
    68 C36      3.9434  10.8746   0.9338   C.ar      2 RES2   0.0000
    69 H18      4.6349  11.3838   0.5278   H         2 RES2   0.0000
    70 C37      3.6975   6.7337   5.5255   C.ar      2 RES2   0.0000
    71 H19      4.3935   6.0877   5.5044   H         2 RES2   0.0000
    72 C38      4.4453   7.4415  -0.4379   C.ar      2 RES2   0.0000
    73 H20      5.0405   6.9617  -1.0019   H         2 RES2   0.0000
    74 C39     -0.8814   1.0554   1.1410   C.3       2 RES2   0.0000
    75 H21     -0.8578   1.4913   0.2635   H         2 RES2   0.0000
    76 H22     -1.1929   0.1318   1.0385   H         2 RES2   0.0000
    77 H23      0.0174   1.0559   1.5306   H         2 RES2   0.0000
    78 C40     -5.0899  13.0596   2.7241   C.3       2 RES2   0.0000
    79 H24     -5.8451  13.6506   2.5204   H         2 RES2   0.0000
    80 H25     -4.2788  13.5967   2.8442   H         2 RES2   0.0000
    81 H26     -5.2773  12.5624   3.5473   H         2 RES2   0.0000
    82 S1      10.5905   9.8246  11.1971   S.2       3 RES3  -1.0000
    83 N5      12.6456  11.6747  10.7540   N.1       3 RES3   0.0000
    84 C41     11.7935  10.9084  10.9280   C.1       3 RES3   0.0000
    85 O5      14.5581  13.2285   9.3643   O.3       4 RES4   0.0000
    86 H27     15.2301  12.8045   9.0630   H         4 RES4   0.0000
    87 H28     13.9933  12.6777   9.6803   H         4 RES4   0.0000
@<TRIPOS>BOND
     1     1     7    1
     2     2     9    1
     3     3     8    1
     4     4    10    1
     5     5    11    1
     6     6    12    1
     7     7    10   ar
     8     8    11   ar
     9     9    10   ar
    10    11     7   ar
    11    12     8   ar
    12     9    12   ar
    13    13    14    1
    14    14    26    1
    15    15    13    1
    16    16    36    1
    17    17    39    1
    18    18    13    1
    19    19    13    1
    20    20    13    1
    21    21    13    1
    22    22    18    2
    23    23    22    1
    24    24    19    2
    25    25    24    1
    26    26    27   ar
    27    27    24    1
    28    28    19    1
    29    29    18    1
    30    30    15    1
    31    31    20   ar
    32    32    21   ar
    33    33    34    1
    34    35    22    1
    35    36    33   ar
    36    37    30   ar
    37    38    37    1
    38    39    42   ar
    39    40    20   ar
    40    41    40    1
    41    42    27   ar
    42    43    42    1
    43    44    26   ar
    44    45    44    1
    45    46    31   ar
    46    47    32   ar
    47    48    28   ar
    48    49    48    1
    49    50    21   ar
    50    51    50    1
    51    52    29   ar
    52    53    52    1
    53    54    39   ar
    54    55    54    1
    55    56    36   ar
    56    57    56    1
    57    58    52   ar
    58    59    58    1
    59    60    47   ar
    60    61    60    1
    61    62    50   ar
    62    63    62    1
    63    64    46   ar
    64    65    64    1
    65    66    46   ar
    66    67    66    1
    67    68    47   ar
    68    69    68    1
    69    70    40   ar
    70    71    70    1
    71    72    48   ar
    72    73    72    1
    73    74    17    1
    74    75    74    1
    75    76    74    1
    76    77    74    1
    77    78    16    1
    78    79    78    1
    79    80    78    1
    80    81    78    1
    81    28    32   ar
    82    29    31   ar
    83    30    35   ar
    84    33    35   ar
    85    37    56   ar
    86    44    54   ar
    87    58    66   ar
    88    60    72   ar
    89    62    68   ar
    90    64    70   ar
    91    82    84    1
    92    83    84    3
    93    85    86    1
    94    87    85    1
@<TRIPOS>SUBSTRUCTURE
     1 RES1        1 GROUP             0 ****  ****    0  
     2 RES2       13 GROUP             0 ****  ****    0  
     3 RES3       82 GROUP             0 ****  ****    0  
     4 RES4       85 GROUP             0 ****  ****    0  
@<TRIPOS>CRYSIN
   11.6999   12.3651   14.2180   83.8040   77.7430   89.1660     2     1
