@<TRIPOS>MOLECULE
OPEYAM
    87    94     4     0     0
SMALL
USER_CHARGES
****
Generated from the CSD

@<TRIPOS>ATOM
     1 I1       0.2795   3.5757   5.2866   I         1 RES1   0.0000
     2 I2       5.2361   1.6828   8.2607   I         1 RES1   0.0000
     3 I3       2.0798   6.3384  10.3473   I         1 RES1   0.0000
     4 F1       2.8198   1.8375   6.1795   F         1 RES1   0.0000
     5 F2       0.4290   5.5534   7.7558   F         1 RES1   0.0000
     6 F3       4.3100   4.1531   9.9629   F         1 RES1   0.0000
     7 C1       2.3500   4.8639   8.9124   C.ar      1 RES1   0.0000
     8 C2       1.5988   3.6937   6.9219   C.ar      1 RES1   0.0000
     9 C3       2.6732   2.8427   7.0645   C.ar      1 RES1   0.0000
    10 C4       1.4655   4.6944   7.8693   C.ar      1 RES1   0.0000
    11 C5       3.4257   3.9944   8.9747   C.ar      1 RES1   0.0000
    12 C6       3.6090   2.9649   8.0716   C.ar      1 RES1   0.0000
    13 Fe1      8.4475   5.7007  10.9178   Fe        2 RES2   1.0000
    14 O1       9.6532   5.2027  12.2683   O.3       2 RES2   0.0000
    15 O2       9.6091   6.9779  10.2026   O.3       2 RES2   0.0000
    16 O3      13.9038   1.6856  12.1937   O.3       2 RES2   0.0000
    17 N1       9.1441   4.4173   9.6241   N.2       2 RES2   0.0000
    18 N2       7.1017   4.4522  11.6864   N.ar      2 RES2   0.0000
    19 O4      10.7672  12.1070  11.8560   O.3       2 RES2   0.0000
    20 N3       7.1461   6.0752   9.4500   N.ar      2 RES2   0.0000
    21 N4       7.6343   6.9366  12.1762   N.2       2 RES2   0.0000
    22 C7      10.6631   4.3677  12.1399   C.ar      2 RES2   0.0000
    23 C8      10.1889   3.6811   9.7962   C.2       2 RES2   0.0000
    24 H1      10.4579   3.1422   9.0747   H         2 RES2   0.0000
    25 C9       8.4126   4.3740   8.4026   C.ar      2 RES2   0.0000
    26 C10      9.1837   8.7513  11.8075   C.ar      2 RES2   0.0000
    27 C11      8.1023   8.1087  12.4848   C.2       2 RES2   0.0000
    28 H2       7.7023   8.5645  13.2028   H         2 RES2   0.0000
    29 C12      6.4962   6.4256  12.8533   C.ar      2 RES2   0.0000
    30 C13     10.9707   3.6143  10.9861   C.ar      2 RES2   0.0000
    31 C14      7.3481   5.2905   8.3514   C.ar      2 RES2   0.0000
    32 C15      6.2600   5.0648  12.5790   C.ar      2 RES2   0.0000
    33 C16      9.8711   8.1623  10.7173   C.ar      2 RES2   0.0000
    34 C17     12.0643   2.7062  10.9764   C.ar      2 RES2   0.0000
    35 H3      12.2526   2.2079  10.2023   H         2 RES2   0.0000
    36 C18     11.5152   4.1765  13.2564   C.ar      2 RES2   0.0000
    37 H4      11.3493   4.6653  14.0421   H         2 RES2   0.0000
    38 C19     12.8453   2.5545  12.0914   C.ar      2 RES2   0.0000
    39 C20      9.4888  10.0685  12.2203   C.ar      2 RES2   0.0000
    40 H5       9.0296  10.4441  12.9494   H         2 RES2   0.0000
    41 C21      6.5453   5.3953   7.1920   C.ar      2 RES2   0.0000
    42 C22     10.4446  10.8062  11.5734   C.ar      2 RES2   0.0000
    43 C23      6.9336   3.1641  11.4307   C.ar      2 RES2   0.0000
    44 H6       7.5049   2.7457  10.8126   H         2 RES2   0.0000
    45 C24      8.6532   3.5502   7.3333   C.ar      2 RES2   0.0000
    46 H7       9.3531   2.9236   7.3696   H         2 RES2   0.0000
    47 C25      6.1642   6.9525   9.4263   C.ar      2 RES2   0.0000
    48 H8       6.0182   7.4857  10.1876   H         2 RES2   0.0000
    49 C26      5.2028   4.3657  13.2038   C.ar      2 RES2   0.0000
    50 C27     12.5692   3.3067  13.2342   C.ar      2 RES2   0.0000
    51 H9      13.1135   3.2150  13.9960   H         2 RES2   0.0000
    52 C28     11.1604  10.2134  10.5289   C.ar      2 RES2   0.0000
    53 H10     11.8390  10.7032  10.1007   H         2 RES2   0.0000
    54 C29      5.9320   2.4013  12.0513   C.ar      2 RES2   0.0000
    55 H11      5.8580   1.4824  11.8676   H         2 RES2   0.0000
    56 C30      4.3531   5.0919  14.0792   C.ar      2 RES2   0.0000
    57 H12      3.6406   4.6574  14.5121   H         2 RES2   0.0000
    58 C31      7.8546   3.6423   6.1836   C.ar      2 RES2   0.0000
    59 H13      8.0245   3.0731   5.4558   H         2 RES2   0.0000
    60 C32     10.8947   8.9280  10.1120   C.ar      2 RES2   0.0000
    61 H14     11.4021   8.5542   9.4148   H         2 RES2   0.0000
    62 C33      5.0740   2.9883  12.9129   C.ar      2 RES2   0.0000
    63 H15      4.3929   2.4831  13.3177   H         2 RES2   0.0000
    64 C34      4.5743   6.4150  14.2912   C.ar      2 RES2   0.0000
    65 H16      3.9907   6.8885  14.8557   H         2 RES2   0.0000
    66 C35      5.5183   6.3638   7.1975   C.ar      2 RES2   0.0000
    67 H17      4.9714   6.4819   6.4416   H         2 RES2   0.0000
    68 C36      5.6448   7.0981  13.6914   C.ar      2 RES2   0.0000
    69 H18      5.7778   8.0125  13.8641   H         2 RES2   0.0000
    70 C37      6.8346   4.5449   6.1060   C.ar      2 RES2   0.0000
    71 H19      6.3200   4.6000   5.3215   H         2 RES2   0.0000
    72 C38      5.3277   7.1255   8.3126   C.ar      2 RES2   0.0000
    73 H20      4.6392   7.7651   8.3350   H         2 RES2   0.0000
    74 C39      9.8768  12.8125  12.7120   C.3       2 RES2   0.0000
    75 H21      8.9843  12.7981  12.3333   H         2 RES2   0.0000
    76 H22     10.1751  13.7313  12.8027   H         2 RES2   0.0000
    77 H23      9.8644  12.3897  13.5854   H         2 RES2   0.0000
    78 C40     14.1024   0.7836  11.1246   C.3       2 RES2   0.0000
    79 H24     14.2706   1.2801  10.3090   H         2 RES2   0.0000
    80 H25     13.3100   0.2355  11.0128   H         2 RES2   0.0000
    81 H26     14.8639   0.2142  11.3194   H         2 RES2   0.0000
    82 S1       4.5586  -2.5657  11.2328   S.2       3 RES3  -1.0000
    83 N5       6.5781  -0.6872  10.7727   N.1       3 RES3   0.0000
    84 C41      5.7358  -1.4653  10.9583   C.1       3 RES3   0.0000
    85 O5       8.5114   0.8519   9.3903   O.3       4 RES4   0.0000
    86 H27      9.2003   0.4501   9.0953   H         4 RES4   0.0000
    87 H28      7.9609   0.2827   9.6971   H         4 RES4   0.0000
@<TRIPOS>BOND
     1     1     8    1
     2     2    12    1
     3     3     7    1
     4     4     9    1
     5     5    10    1
     6     6    11    1
     7     7    10   ar
     8     8     9   ar
     9     9    12   ar
    10    10     8   ar
    11    11     7   ar
    12    12    11   ar
    13    13    14    1
    14    14    22    1
    15    15    13    1
    16    16    38    1
    17    17    13    1
    18    18    13    1
    19    19    42    1
    20    20    13    1
    21    21    13    1
    22    22    30   ar
    23    23    17    2
    24    24    23    1
    25    25    17    1
    26    26    27    1
    27    27    21    2
    28    28    27    1
    29    29    21    1
    30    30    23    1
    31    31    20   ar
    32    32    18   ar
    33    33    15    1
    34    34    30   ar
    35    35    34    1
    36    36    22   ar
    37    37    36    1
    38    38    34   ar
    39    39    26   ar
    40    40    39    1
    41    41    31   ar
    42    42    39   ar
    43    43    18   ar
    44    44    43    1
    45    45    25   ar
    46    46    45    1
    47    47    20   ar
    48    48    47    1
    49    49    32   ar
    50    50    36   ar
    51    51    50    1
    52    52    42   ar
    53    53    52    1
    54    54    43   ar
    55    55    54    1
    56    56    49   ar
    57    57    56    1
    58    58    45   ar
    59    59    58    1
    60    60    33   ar
    61    61    60    1
    62    62    49   ar
    63    63    62    1
    64    64    56   ar
    65    65    64    1
    66    66    41   ar
    67    67    66    1
    68    68    29   ar
    69    69    68    1
    70    70    41   ar
    71    71    70    1
    72    72    47   ar
    73    73    72    1
    74    74    19    1
    75    75    74    1
    76    76    74    1
    77    77    74    1
    78    78    16    1
    79    79    78    1
    80    80    78    1
    81    81    78    1
    82    25    31   ar
    83    26    33   ar
    84    29    32   ar
    85    38    50   ar
    86    52    60   ar
    87    54    62   ar
    88    58    70   ar
    89    64    68   ar
    90    66    72   ar
    91    82    84    1
    92    83    84    3
    93    85    86    1
    94    87    85    1
@<TRIPOS>SUBSTRUCTURE
     1 RES1        1 GROUP             0 ****  ****    0  
     2 RES2       13 GROUP             0 ****  ****    0  
     3 RES3       82 GROUP             0 ****  ****    0  
     4 RES4       85 GROUP             0 ****  ****    0  
@<TRIPOS>CRYSIN
   11.6994   12.4106   14.2475   83.8900   77.8910   89.2290     2     1
