@<TRIPOS>MOLECULE
OPEYAM09
    87    94     4     0     0
SMALL
USER_CHARGES
****
Generated from the CSD

@<TRIPOS>ATOM
     1 I1      14.3161  10.4156   8.6527   I         1 RES1   0.0000
     2 I2       9.4706  12.4531   5.5955   I         1 RES1   0.0000
     3 I3      12.5497   7.7448   3.5336   I         1 RES1   0.0000
     4 F1      14.1590   8.4688   6.1607   F         1 RES1   0.0000
     5 F2      11.8234  12.2135   7.7419   F         1 RES1   0.0000
     6 F3      10.3615   9.9681   3.8980   F         1 RES1   0.0000
     7 C1      12.2831   9.2099   4.9738   C.ar      1 RES1   0.0000
     8 C2      13.0156  10.3309   6.9978   C.ar      1 RES1   0.0000
     9 C3      13.1472   9.3480   6.0441   C.ar      1 RES1   0.0000
    10 C4      11.0521  11.1216   5.8109   C.ar      1 RES1   0.0000
    11 C5      11.9665  11.2126   6.8340   C.ar      1 RES1   0.0000
    12 C6      11.2272  10.1046   4.9072   C.ar      1 RES1   0.0000
    13 Fe1      6.1615   8.3495   2.9137   Fe        2 RES2   1.0000
    14 O1       5.0653   6.9594   3.5607   O.3       2 RES2   0.0000
    15 O2       4.9191   8.9666   1.6269   O.3       2 RES2   0.0000
    16 N1       5.4991   9.7299   4.2575   N.2       2 RES2   0.0000
    17 N2       7.0925   7.0549   1.6394   N.2       2 RES2   0.0000
    18 N3       7.6190   9.5846   2.0934   N.ar      2 RES2   0.0000
    19 O3       0.8037  12.6281   1.7269   O.3       2 RES2   0.0000
    20 N4       7.4851   8.0345   4.4977   N.ar      2 RES2   0.0000
    21 O4       4.0969   1.7911   1.9712   O.3       2 RES2   0.0000
    22 C7       4.4833  10.5064   4.0840   C.2       2 RES2   0.0000
    23 H1       4.2445  11.0535   4.7981   H         2 RES2   0.0000
    24 C8       6.6776   5.8566   1.3757   C.2       2 RES2   0.0000
    25 H2       7.1157   5.3991   0.6949   H         2 RES2   0.0000
    26 C9       8.2291   7.5830   0.9634   C.ar      2 RES2   0.0000
    27 C10      3.6858  10.6084   2.8957   C.ar      2 RES2   0.0000
    28 C11      3.9453   9.8443   1.7324   C.ar      2 RES2   0.0000
    29 C12      5.6135   5.1727   2.0323   C.ar      2 RES2   0.0000
    30 C13      8.4650   8.9587   1.2230   C.ar      2 RES2   0.0000
    31 C14      6.2259   9.7859   5.4861   C.ar      2 RES2   0.0000
    32 C15      4.8444   5.7616   3.0776   C.ar      2 RES2   0.0000
    33 C16      7.2823   8.8509   5.5680   C.ar      2 RES2   0.0000
    34 C17      2.6315  11.5474   2.9096   C.ar      2 RES2   0.0000
    35 H3       2.4698  12.0450   3.6792   H         2 RES2   0.0000
    36 C18      1.8436  11.7347   1.8060   C.ar      2 RES2   0.0000
    37 C19      9.5299   9.6290   0.5941   C.ar      2 RES2   0.0000
    38 C20      9.0815   6.9016   0.1319   C.ar      2 RES2   0.0000
    39 H4       8.9495   5.9954  -0.0329   H         2 RES2   0.0000
    40 C21      3.0915  10.0772   0.6275   C.ar      2 RES2   0.0000
    41 H5       3.2272   9.5925  -0.1554   H         2 RES2   0.0000
    42 C22      5.9921  10.6151   6.5342   C.ar      2 RES2   0.0000
    43 H6       5.3019  11.2365   6.4774   H         2 RES2   0.0000
    44 C23      5.3589   3.8436   1.6269   C.ar      2 RES2   0.0000
    45 H7       5.8513   3.4704   0.9313   H         2 RES2   0.0000
    46 C24      7.7969  10.8735   2.3377   C.ar      2 RES2   0.0000
    47 H8       7.2288  11.2992   2.9385   H         2 RES2   0.0000
    48 C25      8.4587   7.1505   4.5574   C.ar      2 RES2   0.0000
    49 H9       8.6061   6.5977   3.8247   H         2 RES2   0.0000
    50 C26      3.8356   4.9772   3.6620   C.ar      2 RES2   0.0000
    51 H10      3.3020   5.3372   4.3337   H         2 RES2   0.0000
    52 C27     10.3759   8.9126  -0.2679   C.ar      2 RES2   0.0000
    53 H11     11.0808   9.3418  -0.6965   H         2 RES2   0.0000
    54 C28      8.0748   8.7702   6.7424   C.ar      2 RES2   0.0000
    55 C29      2.0845  10.9825   0.6705   C.ar      2 RES2   0.0000
    56 H12      1.5445  11.1009  -0.0775   H         2 RES2   0.0000
    57 C30      4.3901   3.0993   2.2530   C.ar      2 RES2   0.0000
    58 C31     10.1576   7.5824  -0.4706   C.ar      2 RES2   0.0000
    59 H13     10.7363   7.1100  -1.0238   H         2 RES2   0.0000
    60 C32      6.7673  10.5535   7.6975   C.ar      2 RES2   0.0000
    61 H14      6.5913  11.1319   8.4043   H         2 RES2   0.0000
    62 C33      8.8160  11.6226   1.7200   C.ar      2 RES2   0.0000
    63 H15      8.8988  12.5321   1.8955   H         2 RES2   0.0000
    64 C34      9.6723  11.0130   0.8718   C.ar      2 RES2   0.0000
    65 H16     10.3551  11.5005   0.4709   H         2 RES2   0.0000
    66 C35      9.0989   7.7918   6.7632   C.ar      2 RES2   0.0000
    67 H17      9.6385   7.6906   7.5138   H         2 RES2   0.0000
    68 C36      7.7851   9.6422   7.7988   C.ar      2 RES2   0.0000
    69 H18      8.2896   9.6027   8.5789   H         2 RES2   0.0000
    70 C37      9.2800   7.0111   5.6818   C.ar      2 RES2   0.0000
    71 H19      9.9565   6.3735   5.6824   H         2 RES2   0.0000
    72 C38      3.6304   3.6910   3.2539   C.ar      2 RES2   0.0000
    73 H20      2.9592   3.1923   3.6612   H         2 RES2   0.0000
    74 C39      0.6319  13.5374   2.7875   C.3       2 RES2   0.0000
    75 H21     -0.1196  14.1055   2.6030   H         2 RES2   0.0000
    76 H22      1.4230  14.0731   2.8805   H         2 RES2   0.0000
    77 H23      0.4754  13.0531   3.6010   H         2 RES2   0.0000
    78 C40      5.0018   1.0966   1.1369   C.3       2 RES2   0.0000
    79 H24      5.0694   1.5477   0.2923   H         2 RES2   0.0000
    80 H25      4.6853   0.2013   0.9974   H         2 RES2   0.0000
    81 H26      5.8656   1.0693   1.5552   H         2 RES2   0.0000
    82 S1       9.8901  16.8764   2.6227   S.2       3 RES3  -1.0000
    83 C41      8.8922  15.6249   2.9096   C.1       3 RES3   0.0000
    84 N5       8.1688  14.7360   3.1012   N.1       3 RES3   0.0000
    85 O5       6.1438  13.2897   4.4519   O.3       4 RES4   0.0000
    86 H27      6.6495  13.7733   3.9696   H         4 RES4   0.0000
    87 H28      5.4848  13.7523   4.7246   H         4 RES4   0.0000
@<TRIPOS>BOND
     1     1     8    1
     2     2    10    1
     3     3     7    1
     4     4     9    1
     5     5    11    1
     6     6    12    1
     7     7     9   ar
     8     8     9   ar
     9    10    11   ar
    10    11     8   ar
    11    12     7   ar
    12    10    12   ar
    13    13    14    1
    14    14    32    1
    15    15    13    1
    16    16    13    1
    17    17    13    1
    18    18    13    1
    19    19    36    1
    20    20    13    1
    21    21    57    1
    22    22    16    2
    23    23    22    1
    24    24    17    2
    25    25    24    1
    26    26    17    1
    27    27    22    1
    28    28    15    1
    29    29    24    1
    30    30    18   ar
    31    31    16    1
    32    32    29   ar
    33    33    20   ar
    34    34    27   ar
    35    35    34    1
    36    36    34   ar
    37    37    30   ar
    38    38    26   ar
    39    39    38    1
    40    40    28   ar
    41    41    40    1
    42    42    31   ar
    43    43    42    1
    44    44    29   ar
    45    45    44    1
    46    46    18   ar
    47    47    46    1
    48    48    20   ar
    49    49    48    1
    50    50    32   ar
    51    51    50    1
    52    52    37   ar
    53    53    52    1
    54    54    33   ar
    55    55    36   ar
    56    56    55    1
    57    57    44   ar
    58    58    38   ar
    59    59    58    1
    60    60    42   ar
    61    61    60    1
    62    62    46   ar
    63    63    62    1
    64    64    37   ar
    65    65    64    1
    66    66    54   ar
    67    67    66    1
    68    68    54   ar
    69    69    68    1
    70    70    48   ar
    71    71    70    1
    72    72    50   ar
    73    73    72    1
    74    74    19    1
    75    75    74    1
    76    76    74    1
    77    77    74    1
    78    78    21    1
    79    79    78    1
    80    80    78    1
    81    81    78    1
    82    26    30   ar
    83    27    28   ar
    84    31    33   ar
    85    40    55   ar
    86    52    58   ar
    87    57    72   ar
    88    60    68   ar
    89    62    64   ar
    90    66    70   ar
    91    82    83    1
    92    83    84    3
    93    85    86    1
    94    87    85    1
@<TRIPOS>SUBSTRUCTURE
     1 RES1        1 GROUP             0 ****  ****    0  
     2 RES2       13 GROUP             0 ****  ****    0  
     3 RES3       82 GROUP             0 ****  ****    0  
     4 RES4       85 GROUP             0 ****  ****    0  
@<TRIPOS>CRYSIN
   11.5679   12.7029   14.2437   83.9080   78.5850   89.6400     2     1
