@<TRIPOS>MOLECULE
OPEYAM23
    87    94     4     0     0
SMALL
USER_CHARGES
****
Generated from the CSD

@<TRIPOS>ATOM
     1 I1       6.1409   3.5450   5.2861   I         1 RES1   0.0000
     2 I2      11.1334   1.6854   8.2358   I         1 RES1   0.0000
     3 I3       7.9618   6.3385  10.3292   I         1 RES1   0.0000
     4 F1       8.6943   1.8144   6.1685   F         1 RES1   0.0000
     5 F2       6.2965   5.5328   7.7530   F         1 RES1   0.0000
     6 F3      10.2029   4.1585   9.9333   F         1 RES1   0.0000
     7 C1       7.4721   3.6731   6.9158   C.ar      1 RES1   0.0000
     8 C2       8.2292   4.8585   8.8988   C.ar      1 RES1   0.0000
     9 C3       9.4920   2.9562   8.0564   C.ar      1 RES1   0.0000
    10 C4       7.3393   4.6745   7.8590   C.ar      1 RES1   0.0000
    11 C5       8.5507   2.8197   7.0566   C.ar      1 RES1   0.0000
    12 C6       9.3080   3.9886   8.9554   C.ar      1 RES1   0.0000
    13 Fe1     14.3127   5.6931  10.8785   Fe        2 RES2   1.0000
    14 O1      15.4808   6.9619  10.1551   O.3       2 RES2   0.0000
    15 O2      15.5217   5.2086  12.2316   O.3       2 RES2   0.0000
    16 O3      19.7900   1.7044  12.1594   O.3       2 RES2   0.0000
    17 O4      16.6581  12.0946  11.8112   O.3       2 RES2   0.0000
    18 N1      15.0080   4.4134   9.5938   N.2       2 RES2   0.0000
    19 N2      12.9779   4.4458  11.6426   N.ar      2 RES2   0.0000
    20 N3      13.0097   6.0678   9.4227   N.ar      2 RES2   0.0000
    21 N4      13.5130   6.9284  12.1385   N.2       2 RES2   0.0000
    22 C7      16.0641   3.6843   9.7633   C.2       2 RES2   0.0000
    23 H1      16.3403   3.1419   9.0333   H         2 RES2   0.0000
    24 C8      14.2781   4.3696   8.3768   C.ar      2 RES2   0.0000
    25 C9      16.5343   4.3766  12.1109   C.ar      2 RES2   0.0000
    26 C10     12.3670   6.4156  12.8124   C.ar      2 RES2   0.0000
    27 C11     13.9899   8.1035  12.4478   C.2       2 RES2   0.0000
    28 H2      13.5907   8.5703  13.1726   H         2 RES2   0.0000
    29 C12     12.1345   5.0522  12.5431   C.ar      2 RES2   0.0000
    30 C13     15.0721   8.7294  11.7684   C.ar      2 RES2   0.0000
    31 C14     16.8435   3.6279  10.9454   C.ar      2 RES2   0.0000
    32 C15     17.3819   4.1977  13.2336   C.ar      2 RES2   0.0000
    33 H3      17.2127   4.6930  14.0261   H         2 RES2   0.0000
    34 C16     13.2090   5.2820   8.3133   C.ar      2 RES2   0.0000
    35 C17     17.9430   2.7221  10.9440   C.ar      2 RES2   0.0000
    36 H4      18.1368   2.2187  10.1622   H         2 RES2   0.0000
    37 C18     15.7532   8.1440  10.6733   C.ar      2 RES2   0.0000
    38 C19     18.4423   3.3255  13.2005   C.ar      2 RES2   0.0000
    39 H5      18.9934   3.2353  13.9690   H         2 RES2   0.0000
    40 C20     15.3817  10.0557  12.1855   C.ar      2 RES2   0.0000
    41 H6      14.9191  10.4378  12.9215   H         2 RES2   0.0000
    42 C21     12.4002   5.3914   7.1643   C.ar      2 RES2   0.0000
    43 C22     18.7276   2.5672  12.0598   C.ar      2 RES2   0.0000
    44 C23     16.3384  10.7860  11.5350   C.ar      2 RES2   0.0000
    45 C24     12.0327   6.9553   9.4029   C.ar      2 RES2   0.0000
    46 H7      11.8950   7.5029  10.1664   H         2 RES2   0.0000
    47 C25     17.0456  10.1914  10.4800   C.ar      2 RES2   0.0000
    48 H8      17.7276  10.6880  10.0423   H         2 RES2   0.0000
    49 C26     14.5091   3.5327   7.3093   C.ar      2 RES2   0.0000
    50 H9      15.2068   2.8897   7.3510   H         2 RES2   0.0000
    51 C27     12.8155   3.1472  11.3900   C.ar      2 RES2   0.0000
    52 H10     13.3957   2.7224  10.7685   H         2 RES2   0.0000
    53 C28     11.0799   4.3510  13.1659   C.ar      2 RES2   0.0000
    54 C29     16.7791   8.9109  10.0643   C.ar      2 RES2   0.0000
    55 H11     17.2899   8.5320   9.3584   H         2 RES2   0.0000
    56 C30     10.2286   5.0710  14.0442   C.ar      2 RES2   0.0000
    57 H12      9.5155   4.6266  14.4878   H         2 RES2   0.0000
    58 C31     13.7083   3.6291   6.1549   C.ar      2 RES2   0.0000
    59 H13     13.8808   3.0532   5.4195   H         2 RES2   0.0000
    60 C32     11.3732   6.3560   7.1726   C.ar      2 RES2   0.0000
    61 H14     10.8181   6.4721   6.4115   H         2 RES2   0.0000
    62 C33     11.8106   2.3868  12.0142   C.ar      2 RES2   0.0000
    63 H15     11.7321   1.4587  11.8272   H         2 RES2   0.0000
    64 C34     11.5181   7.0943  13.6507   C.ar      2 RES2   0.0000
    65 H16     11.6555   8.0182  13.8249   H         2 RES2   0.0000
    66 C35     12.6907   4.5356   6.0706   C.ar      2 RES2   0.0000
    67 H17     12.1739   4.5932   5.2752   H         2 RES2   0.0000
    68 C36     10.4394   6.4106  14.2527   C.ar      2 RES2   0.0000
    69 H18      9.8433   6.8906  14.8158   H         2 RES2   0.0000
    70 C37     10.9530   2.9774  12.8828   C.ar      2 RES2   0.0000
    71 H19     10.2682   2.4656  13.2982   H         2 RES2   0.0000
    72 C38     11.1861   7.1199   8.2857   C.ar      2 RES2   0.0000
    73 H20     10.4859   7.7615   8.3102   H         2 RES2   0.0000
    74 C39     19.9854   0.7956  11.0890   C.3       2 RES2   0.0000
    75 H21     20.1302   1.2959  10.2584   H         2 RES2   0.0000
    76 H22     19.1921   0.2280  10.9937   H         2 RES2   0.0000
    77 H23     20.7677   0.2361  11.2740   H         2 RES2   0.0000
    78 C40     15.7679  12.7993  12.6619   C.3       2 RES2   0.0000
    79 H24     14.8694  12.7947  12.2714   H         2 RES2   0.0000
    80 H25     16.0756  13.7247  12.7625   H         2 RES2   0.0000
    81 H26     15.7445  12.3662  13.5409   H         2 RES2   0.0000
    82 S1       4.3079   4.0290   2.6194   S.2       3 RES3  -1.0000
    83 N5       2.2391   2.1874   3.0464   N.1       3 RES3   0.0000
    84 C41      3.1000   2.9434   2.8848   C.1       3 RES3   0.0000
    85 O5       0.3687   0.6346   4.4549   O.3       4 RES4   0.0000
    86 H27      0.0187   1.1921   4.9930   H         4 RES4   0.0000
    87 H28     -0.2347   0.3061   3.9549   H         4 RES4   0.0000
@<TRIPOS>BOND
     1     1     7    1
     2     2     9    1
     3     3     8    1
     4     4    11    1
     5     5    10    1
     6     6    12    1
     7     7    10   ar
     8     8    10   ar
     9     9    11   ar
    10    11     7   ar
    11    12     8   ar
    12     9    12   ar
    13    13    14    1
    14    14    37    1
    15    15    13    1
    16    16    43    1
    17    17    44    1
    18    18    13    1
    19    19    13    1
    20    20    13    1
    21    21    13    1
    22    22    18    2
    23    23    22    1
    24    24    18    1
    25    25    15    1
    26    26    21    1
    27    27    21    2
    28    28    27    1
    29    29    19   ar
    30    30    27    1
    31    31    22    1
    32    32    25   ar
    33    33    32    1
    34    34    20   ar
    35    35    31   ar
    36    36    35    1
    37    37    30   ar
    38    38    32   ar
    39    39    38    1
    40    40    30   ar
    41    41    40    1
    42    42    34   ar
    43    43    35   ar
    44    44    40   ar
    45    45    20   ar
    46    46    45    1
    47    47    44   ar
    48    48    47    1
    49    49    24   ar
    50    50    49    1
    51    51    19   ar
    52    52    51    1
    53    53    29   ar
    54    54    37   ar
    55    55    54    1
    56    56    53   ar
    57    57    56    1
    58    58    49   ar
    59    59    58    1
    60    60    42   ar
    61    61    60    1
    62    62    51   ar
    63    63    62    1
    64    64    26   ar
    65    65    64    1
    66    66    42   ar
    67    67    66    1
    68    68    56   ar
    69    69    68    1
    70    70    53   ar
    71    71    70    1
    72    72    45   ar
    73    73    72    1
    74    74    16    1
    75    75    74    1
    76    76    74    1
    77    77    74    1
    78    78    17    1
    79    79    78    1
    80    80    78    1
    81    81    78    1
    82    24    34   ar
    83    25    31   ar
    84    26    29   ar
    85    38    43   ar
    86    47    54   ar
    87    58    66   ar
    88    60    72   ar
    89    62    70   ar
    90    64    68   ar
    91    82    84    1
    92    83    84    3
    93    85    86    1
    94    87    85    1
@<TRIPOS>SUBSTRUCTURE
     1 RES1        1 GROUP             0 ****  ****    0  
     2 RES2       13 GROUP             0 ****  ****    0  
     3 RES3       82 GROUP             0 ****  ****    0  
     4 RES4       85 GROUP             0 ****  ****    0  
@<TRIPOS>CRYSIN
   11.6907   12.3565   14.2137   83.7970   77.7460   89.1710     2     1
