@<TRIPOS>MOLECULE
OPEYAM11
    87    94     4     0     0
SMALL
USER_CHARGES
****
Generated from the CSD

@<TRIPOS>ATOM
     1 I1      14.6191  10.3296   8.5237   I         1 RES1   0.0000
     2 I2       9.6551  12.2219   5.5591   I         1 RES1   0.0000
     3 I3      12.7792   7.5339   3.4938   I         1 RES1   0.0000
     4 F1      12.0763  12.0671   7.6375   F         1 RES1   0.0000
     5 F2      14.4461   8.3299   6.0740   F         1 RES1   0.0000
     6 F3      10.5534   9.7217   3.8824   F         1 RES1   0.0000
     7 C1      12.5167   9.0180   4.9244   C.ar      1 RES1   0.0000
     8 C2      13.2845  10.2003   6.9063   C.ar      1 RES1   0.0000
     9 C3      11.2727  10.9289   5.7525   C.ar      1 RES1   0.0000
    10 C4      13.4101   9.1915   5.9650   C.ar      1 RES1   0.0000
    11 C5      12.2119  11.0595   6.7531   C.ar      1 RES1   0.0000
    12 C6      11.4478   9.8953   4.8678   C.ar      1 RES1   0.0000
    13 Fe1      6.4250   8.1827   2.9225   Fe        2 RES2   1.0000
    14 O1       5.2565   6.9139   3.6412   O.3       2 RES2   0.0000
    15 O2       5.2180   8.6758   1.5730   O.3       2 RES2   0.0000
    16 N1       5.7347   9.4628   4.2110   N.2       2 RES2   0.0000
    17 O3       0.9479  12.1720   1.6603   O.3       2 RES2   0.0000
    18 N2       7.2276   6.9426   1.6658   N.2       2 RES2   0.0000
    19 N3       7.7253   7.8060   4.3792   N.ar      2 RES2   0.0000
    20 O4       4.0910   1.7782   2.0040   O.3       2 RES2   0.0000
    21 N4       7.7699   9.4274   2.1572   N.ar      2 RES2   0.0000
    22 C7       4.6809  10.1972   4.0494   C.2       2 RES2   0.0000
    23 H1       4.4153  10.7367   4.7717   H         2 RES2   0.0000
    24 C8       6.4746   9.5216   5.4267   C.ar      2 RES2   0.0000
    25 C9       6.7626   5.7676   1.3677   C.2       2 RES2   0.0000
    26 H2       7.1676   5.3051   0.6576   H         2 RES2   0.0000
    27 C10      4.9878   5.7289   3.1302   C.ar      2 RES2   0.0000
    28 C11      8.3768   7.4551   0.9937   C.ar      2 RES2   0.0000
    29 C12      4.2012   9.5087   1.7003   C.ar      2 RES2   0.0000
    30 C13      5.6815   5.1328   2.0426   C.ar      2 RES2   0.0000
    31 C14      3.8946  10.2535   2.8666   C.ar      2 RES2   0.0000
    32 C15      7.5321   8.5946   5.4820   C.ar      2 RES2   0.0000
    33 C16      8.6098   8.8160   1.2587   C.ar      2 RES2   0.0000
    34 C17      2.7973  11.1586   2.8721   C.ar      2 RES2   0.0000
    35 H3       2.6080  11.6571   3.6454   H         2 RES2   0.0000
    36 C18      9.6709   9.5102   0.6390   C.ar      2 RES2   0.0000
    37 C19      5.3731   3.8110   1.6382   C.ar      2 RES2   0.0000
    38 H4       5.8339   3.4264   0.9139   H         2 RES2   0.0000
    39 C20      2.0116  11.3078   1.7569   C.ar      2 RES2   0.0000
    40 C21      4.4152   3.0903   2.2869   C.ar      2 RES2   0.0000
    41 C22      3.3510   9.6892   0.5879   C.ar      2 RES2   0.0000
    42 H5       3.5171   9.1966  -0.1953   H         2 RES2   0.0000
    43 C23      3.9673   4.9626   3.7361   C.ar      2 RES2   0.0000
    44 H6       3.4627   5.3372   4.4349   H         2 RES2   0.0000
    45 C24      8.6966   6.9115   4.4027   C.ar      2 RES2   0.0000
    46 H7       8.8290   6.3641   3.6499   H         2 RES2   0.0000
    47 C25      6.2401  10.3503   6.4881   C.ar      2 RES2   0.0000
    48 H8       5.5402  10.9769   6.4514   H         2 RES2   0.0000
    49 C26      7.9363  10.7160   2.4056   C.ar      2 RES2   0.0000
    50 H9       7.3617  11.1377   3.0189   H         2 RES2   0.0000
    51 C27     10.5210   8.7755  -0.2319   C.ar      2 RES2   0.0000
    52 H10     11.2389   9.2053  -0.6608   H         2 RES2   0.0000
    53 C28      8.3399   8.4944   6.6371   C.ar      2 RES2   0.0000
    54 C29      9.2273   6.7659   0.1546   C.ar      2 RES2   0.0000
    55 H11      9.0905   5.8510  -0.0121   H         2 RES2   0.0000
    56 C30      7.0484  10.2651   7.6336   C.ar      2 RES2   0.0000
    57 H12      6.8842  10.8417   8.3575   H         2 RES2   0.0000
    58 C31      3.7004   3.6824   3.3262   C.ar      2 RES2   0.0000
    59 H13      3.0210   3.1944   3.7548   H         2 RES2   0.0000
    60 C32      2.2946  10.5554   0.6114   C.ar      2 RES2   0.0000
    61 H14      1.7521  10.6477  -0.1512   H         2 RES2   0.0000
    62 C33      9.3633   7.5210   6.6302   C.ar      2 RES2   0.0000
    63 H15      9.9145   7.4047   7.3833   H         2 RES2   0.0000
    64 C34      8.9426  11.4779   1.7832   C.ar      2 RES2   0.0000
    65 H16      9.0168  12.3975   1.9636   H         2 RES2   0.0000
    66 C35      9.8052  10.8820   0.9233   C.ar      2 RES2   0.0000
    67 H17     10.4892  11.3837   0.5179   H         2 RES2   0.0000
    68 C36     10.2968   7.4422  -0.4472   C.ar      2 RES2   0.0000
    69 H18     10.8757   6.9668  -1.0155   H         2 RES2   0.0000
    70 C37      0.7606  13.0882   2.7175   C.3       2 RES2   0.0000
    71 H19     -0.0043  13.6525   2.5259   H         2 RES2   0.0000
    72 H20      1.5538  13.6398   2.8111   H         2 RES2   0.0000
    73 H21      0.6061  12.6030   3.5432   H         2 RES2   0.0000
    74 C38      9.5431   6.7530   5.5234   C.ar      2 RES2   0.0000
    75 H22     10.2319   6.1141   5.5032   H         2 RES2   0.0000
    76 C39      8.0673   9.3608   7.7150   C.ar      2 RES2   0.0000
    77 H23      8.5896   9.3147   8.4947   H         2 RES2   0.0000
    78 C40      4.9861   1.0694   1.1662   C.3       2 RES2   0.0000
    79 H24      5.0068   1.4851   0.2901   H         2 RES2   0.0000
    80 H25      4.6883   0.1500   1.0807   H         2 RES2   0.0000
    81 H26      5.8746   1.0869   1.5539   H         2 RES2   0.0000
    82 S1      10.3071  16.4164   2.6223   S.2       3 RES3  -1.0000
    83 N5       8.2928  14.5299   3.0860   N.1       3 RES3   0.0000
    84 C41      9.1329  15.3107   2.8956   C.1       3 RES3   0.0000
    85 O5       6.3451  13.0278   4.4399   O.3       4 RES4   0.0000
    86 H27      5.7186  13.4922   4.7785   H         4 RES4   0.0000
    87 H28      6.8925  13.5393   4.0387   H         4 RES4   0.0000
@<TRIPOS>BOND
     1     1     8    1
     2     2     9    1
     3     3     7    1
     4     4    11    1
     5     5    10    1
     6     6    12    1
     7     7    10   ar
     8     8    10   ar
     9     9    11   ar
    10    11     8   ar
    11    12     7   ar
    12     9    12   ar
    13    13    14    1
    14    14    27    1
    15    15    13    1
    16    16    13    1
    17    17    39    1
    18    18    13    1
    19    19    13    1
    20    20    40    1
    21    21    13    1
    22    22    16    2
    23    23    22    1
    24    24    16    1
    25    25    18    2
    26    26    25    1
    27    27    30   ar
    28    28    18    1
    29    29    15    1
    30    30    25    1
    31    31    22    1
    32    32    19   ar
    33    33    21   ar
    34    34    31   ar
    35    35    34    1
    36    36    33   ar
    37    37    30   ar
    38    38    37    1
    39    39    34   ar
    40    40    37   ar
    41    41    29   ar
    42    42    41    1
    43    43    27   ar
    44    44    43    1
    45    45    19   ar
    46    46    45    1
    47    47    24   ar
    48    48    47    1
    49    49    21   ar
    50    50    49    1
    51    51    36   ar
    52    52    51    1
    53    53    32   ar
    54    54    28   ar
    55    55    54    1
    56    56    47   ar
    57    57    56    1
    58    58    40   ar
    59    59    58    1
    60    60    39   ar
    61    61    60    1
    62    62    53   ar
    63    63    62    1
    64    64    49   ar
    65    65    64    1
    66    66    36   ar
    67    67    66    1
    68    68    51   ar
    69    69    68    1
    70    70    17    1
    71    71    70    1
    72    72    70    1
    73    73    70    1
    74    74    45   ar
    75    75    74    1
    76    76    53   ar
    77    77    76    1
    78    78    20    1
    79    79    78    1
    80    80    78    1
    81    81    78    1
    82    24    32   ar
    83    28    33   ar
    84    29    31   ar
    85    41    60   ar
    86    43    58   ar
    87    54    68   ar
    88    56    76   ar
    89    62    74   ar
    90    64    66   ar
    91    82    84    1
    92    83    84    3
    93    85    86    1
    94    87    85    1
@<TRIPOS>SUBSTRUCTURE
     1 RES1        1 GROUP             0 ****  ****    0  
     2 RES2       13 GROUP             0 ****  ****    0  
     3 RES3       82 GROUP             0 ****  ****    0  
     4 RES4       85 GROUP             0 ****  ****    0  
@<TRIPOS>CRYSIN
   11.7180   12.3915   14.2067   83.7260   77.7650   89.2170     2     1
