@<TRIPOS>MOLECULE
OPEYAM17
    87    94     4     0     0
SMALL
USER_CHARGES
****
Generated from the CSD

@<TRIPOS>ATOM
     1 I1       6.1421   3.5505   5.2751   I         1 RES1   0.0000
     2 I2      11.1335   1.6851   8.2246   I         1 RES1   0.0000
     3 I3       7.9994   6.3765  10.2874   I         1 RES1   0.0000
     4 F1       8.6923   1.8193   6.1553   F         1 RES1   0.0000
     5 F2       6.3218   5.5568   7.7208   F         1 RES1   0.0000
     6 F3      10.2386   4.1904   9.8956   F         1 RES1   0.0000
     7 C1       7.4848   3.6910   6.8921   C.ar      1 RES1   0.0000
     8 C2       8.2584   4.8828   8.8578   C.ar      1 RES1   0.0000
     9 C3       8.5572   2.8304   7.0394   C.ar      1 RES1   0.0000
    10 C4       9.5073   2.9701   8.0291   C.ar      1 RES1   0.0000
    11 C5       7.3609   4.6992   7.8281   C.ar      1 RES1   0.0000
    12 C6       9.3318   4.0109   8.9142   C.ar      1 RES1   0.0000
    13 Fe1     14.3402   5.7218  10.8465   Fe        2 RES2   1.0000
    14 O1      15.5128   6.9858  10.1200   O.3       2 RES2   0.0000
    15 O2      15.5514   5.2371  12.2008   O.3       2 RES2   0.0000
    16 O3      16.6943  12.1247  11.7580   O.3       2 RES2   0.0000
    17 O4      19.8356   1.7507  12.1049   O.3       2 RES2   0.0000
    18 N1      15.0303   4.4398   9.5611   N.2       2 RES2   0.0000
    19 N2      13.5419   6.9591  12.1022   N.2       2 RES2   0.0000
    20 N3      13.0387   6.0997   9.3932   N.ar      2 RES2   0.0000
    21 N4      13.0007   4.4777  11.6135   N.ar      2 RES2   0.0000
    22 C7      16.0941   3.7101   9.7194   C.2       2 RES2   0.0000
    23 H1      16.3690   3.1704   8.9870   H         2 RES2   0.0000
    24 C8      15.7844   8.1661  10.6376   C.ar      2 RES2   0.0000
    25 C9      14.2870   4.3825   8.3457   C.ar      2 RES2   0.0000
    26 C10     14.0179   8.1376  12.4036   C.2       2 RES2   0.0000
    27 H2      13.6144   8.6062  13.1255   H         2 RES2   0.0000
    28 C11     12.3986   6.4568  12.7725   C.ar      2 RES2   0.0000
    29 C12     16.5684   4.4051  12.0719   C.ar      2 RES2   0.0000
    30 C13     15.0991   8.7675  11.7250   C.ar      2 RES2   0.0000
    31 C14     12.1573   5.0920  12.5068   C.ar      2 RES2   0.0000
    32 C15     13.2233   5.3000   8.2879   C.ar      2 RES2   0.0000
    33 C16     16.8771   3.6602  10.9046   C.ar      2 RES2   0.0000
    34 C17     16.3659  10.8149  11.4758   C.ar      2 RES2   0.0000
    35 C18     18.7664   2.6122  12.0099   C.ar      2 RES2   0.0000
    36 C19     17.9840   2.7626  10.8963   C.ar      2 RES2   0.0000
    37 H3      18.1818   2.2654  10.1121   H         2 RES2   0.0000
    38 C20     16.8154   8.9330  10.0250   C.ar      2 RES2   0.0000
    39 H4      17.3280   8.5521   9.3219   H         2 RES2   0.0000
    40 C21     17.4171   4.2269  13.1910   C.ar      2 RES2   0.0000
    41 H5      17.2435   4.7180  13.9854   H         2 RES2   0.0000
    42 C22     12.0618   6.9926   9.3698   C.ar      2 RES2   0.0000
    43 H6      11.9226   7.5397  10.1342   H         2 RES2   0.0000
    44 C23     11.0987   4.3971  13.1331   C.ar      2 RES2   0.0000
    45 C24     15.4096  10.0943  12.1379   C.ar      2 RES2   0.0000
    46 H7      14.9516  10.4807  12.8757   H         2 RES2   0.0000
    47 C25     11.5388   7.1413  13.6080   C.ar      2 RES2   0.0000
    48 H8      11.6700   8.0668  13.7748   H         2 RES2   0.0000
    49 C26     13.7053   3.6238   6.1433   C.ar      2 RES2   0.0000
    50 H9      13.8712   3.0402   5.4119   H         2 RES2   0.0000
    51 C27     14.5155   3.5405   7.2941   C.ar      2 RES2   0.0000
    52 H10     15.2180   2.9024   7.3390   H         2 RES2   0.0000
    53 C28     12.8372   3.1861  11.3616   C.ar      2 RES2   0.0000
    54 H11     13.4148   2.7599  10.7388   H         2 RES2   0.0000
    55 C29     12.4149   5.4056   7.1385   C.ar      2 RES2   0.0000
    56 C30     18.4779   3.3689  13.1621   C.ar      2 RES2   0.0000
    57 H12     19.0300   3.2802  13.9297   H         2 RES2   0.0000
    58 C31     17.0784  10.2166  10.4380   C.ar      2 RES2   0.0000
    59 H13     17.7641  10.7106  10.0045   H         2 RES2   0.0000
    60 C32     11.3925   6.3819   7.1426   C.ar      2 RES2   0.0000
    61 H14     10.8307   6.4950   6.3847   H         2 RES2   0.0000
    62 C33     10.2472   5.1311  14.0031   C.ar      2 RES2   0.0000
    63 H15      9.5239   4.6966  14.4394   H         2 RES2   0.0000
    64 C34     11.2232   7.1602   8.2548   C.ar      2 RES2   0.0000
    65 H16     10.5355   7.8153   8.2735   H         2 RES2   0.0000
    66 C35     12.6820   4.5325   6.0621   C.ar      2 RES2   0.0000
    67 H17     12.1496   4.5738   5.2767   H         2 RES2   0.0000
    68 C36     20.0199   0.8292  11.0491   C.3       2 RES2   0.0000
    69 H18     20.1681   1.3170  10.2123   H         2 RES2   0.0000
    70 H19     19.2218   0.2673  10.9631   H         2 RES2   0.0000
    71 H20     20.7979   0.2646  11.2404   H         2 RES2   0.0000
    72 C37     10.9690   3.0191  12.8592   C.ar      2 RES2   0.0000
    73 H21     10.2841   2.5107  13.2773   H         2 RES2   0.0000
    74 C38     10.4707   6.4611  14.2109   C.ar      2 RES2   0.0000
    75 H22      9.8826   6.9420  14.7816   H         2 RES2   0.0000
    76 C39     11.8287   2.4260  11.9907   C.ar      2 RES2   0.0000
    77 H23     11.7510   1.4973  11.8076   H         2 RES2   0.0000
    78 C40     15.7992  12.8329  12.6073   C.3       2 RES2   0.0000
    79 H24     14.8978  12.8116  12.2213   H         2 RES2   0.0000
    80 H25     16.0955  13.7630  12.6919   H         2 RES2   0.0000
    81 H26     15.7852  12.4121  13.4917   H         2 RES2   0.0000
    82 S1       4.2881   4.0121   2.6217   S.2       3 RES3  -1.0000
    83 N5       2.2417   2.1484   3.0600   N.1       3 RES3   0.0000
    84 C41      3.0875   2.9152   2.8796   C.1       3 RES3   0.0000
    85 O5       0.3212   0.6219   4.4282   O.3       4 RES4   0.0000
    86 H27     -0.2493   1.1219   4.8120   H         4 RES4   0.0000
    87 H28      0.8413   1.0985   3.9538   H         4 RES4   0.0000
@<TRIPOS>BOND
     1     1     7    1
     2     2    10    1
     3     3     8    1
     4     4     9    1
     5     5    11    1
     6     6    12    1
     7     7     9   ar
     8     8    11   ar
     9     9    10   ar
    10    10    12   ar
    11    11     7   ar
    12    12     8   ar
    13    13    14    1
    14    14    24    1
    15    15    13    1
    16    16    34    1
    17    17    35    1
    18    18    13    1
    19    19    13    1
    20    20    13    1
    21    21    13    1
    22    22    18    2
    23    23    22    1
    24    24    30   ar
    25    25    18    1
    26    26    19    2
    27    27    26    1
    28    28    19    1
    29    29    15    1
    30    30    26    1
    31    31    21   ar
    32    32    20   ar
    33    33    22    1
    34    34    45   ar
    35    35    36   ar
    36    36    33   ar
    37    37    36    1
    38    38    24   ar
    39    39    38    1
    40    40    29   ar
    41    41    40    1
    42    42    20   ar
    43    43    42    1
    44    44    31   ar
    45    45    30   ar
    46    46    45    1
    47    47    28   ar
    48    48    47    1
    49    49    50    1
    50    51    25   ar
    51    52    51    1
    52    53    21   ar
    53    54    53    1
    54    55    32   ar
    55    56    35   ar
    56    57    56    1
    57    58    34   ar
    58    59    58    1
    59    60    55   ar
    60    61    60    1
    61    62    44   ar
    62    63    62    1
    63    64    42   ar
    64    65    64    1
    65    66    49   ar
    66    67    66    1
    67    68    17    1
    68    69    68    1
    69    70    68    1
    70    71    68    1
    71    72    44   ar
    72    73    72    1
    73    74    47   ar
    74    75    74    1
    75    76    53   ar
    76    77    76    1
    77    78    16    1
    78    79    78    1
    79    80    78    1
    80    81    78    1
    81    25    32   ar
    82    28    31   ar
    83    29    33   ar
    84    38    58   ar
    85    40    56   ar
    86    49    51   ar
    87    55    66   ar
    88    60    64   ar
    89    62    74   ar
    90    72    76   ar
    91    82    84    1
    92    83    84    3
    93    85    86    1
    94    87    85    1
@<TRIPOS>SUBSTRUCTURE
     1 RES1        1 GROUP             0 ****  ****    0  
     2 RES2       13 GROUP             0 ****  ****    0  
     3 RES3       82 GROUP             0 ****  ****    0  
     4 RES4       85 GROUP             0 ****  ****    0  
@<TRIPOS>CRYSIN
   11.7056   12.3530   14.1782   83.6310   77.6430   89.1900     2     1
