@<TRIPOS>MOLECULE
OPEYAM33
    87    94     4     0     0
SMALL
USER_CHARGES
****
Generated from the CSD

@<TRIPOS>ATOM
     1 I1       0.2562   3.6071   5.2713   I         1 RES1   0.0000
     2 I2       5.1955   1.6880   8.2568   I         1 RES1   0.0000
     3 I3       2.0803   6.3790  10.3194   I         1 RES1   0.0000
     4 F1       2.7854   1.8617   6.1642   F         1 RES1   0.0000
     5 F2       0.4224   5.5944   7.7280   F         1 RES1   0.0000
     6 F3       4.2990   4.1843   9.9390   F         1 RES1   0.0000
     7 C1       2.3421   4.8984   8.8826   C.ar      1 RES1   0.0000
     8 C2       1.5835   3.7302   6.8970   C.ar      1 RES1   0.0000
     9 C3       3.4142   4.0203   8.9462   C.ar      1 RES1   0.0000
    10 C4       2.6533   2.8603   7.0477   C.ar      1 RES1   0.0000
    11 C5       3.5848   2.9871   8.0529   C.ar      1 RES1   0.0000
    12 C6       1.4548   4.7327   7.8400   C.ar      1 RES1   0.0000
    13 Fe1      8.4429   5.7381  10.9037   Fe        2 RES2   1.0000
    14 O1       9.6504   5.2282  12.2462   O.3       2 RES2   0.0000
    15 O2       9.5992   7.0188  10.1924   O.3       2 RES2   0.0000
    16 N1       9.1319   4.4406   9.6057   N.2       2 RES2   0.0000
    17 O3      13.8989   1.7093  12.1555   O.3       2 RES2   0.0000
    18 N2       7.0805   4.4974  11.6729   N.ar      2 RES2   0.0000
    19 N3       7.6183   6.9841  12.1624   N.2       2 RES2   0.0000
    20 N4       7.1406   6.1085   9.4218   N.ar      2 RES2   0.0000
    21 O4      10.7410  12.1594  11.8264   O.3       2 RES2   0.0000
    22 C7      10.1764   3.6982   9.7730   C.2       2 RES2   0.0000
    23 H1      10.4350   3.1572   9.0629   H         2 RES2   0.0000
    24 C8      10.6601   4.3929  12.1195   C.ar      2 RES2   0.0000
    25 C9      10.9648   3.6415  10.9567   C.ar      2 RES2   0.0000
    26 C10      6.4767   6.4720  12.8330   C.ar      2 RES2   0.0000
    27 C11      8.0747   8.1662  12.4555   C.2       2 RES2   0.0000
    28 H2       7.6689   8.6263  13.1544   H         2 RES2   0.0000
    29 C12      6.2379   5.1105  12.5717   C.ar      2 RES2   0.0000
    30 C13      8.3965   4.3888   8.3862   C.ar      2 RES2   0.0000
    31 C14      9.1540   8.8031  11.7766   C.ar      2 RES2   0.0000
    32 C15      7.3370   5.3162   8.3295   C.ar      2 RES2   0.0000
    33 C16     11.5101   4.2002  13.2326   C.ar      2 RES2   0.0000
    34 H3      11.3491   4.6855  14.0098   H         2 RES2   0.0000
    35 C17      9.8604   8.2055  10.6995   C.ar      2 RES2   0.0000
    36 C18     12.0546   2.7359  10.9511   C.ar      2 RES2   0.0000
    37 H4      12.2377   2.2445  10.1830   H         2 RES2   0.0000
    38 C19     12.8415   2.5750  12.0573   C.ar      2 RES2   0.0000
    39 C20      6.5302   5.4150   7.1666   C.ar      2 RES2   0.0000
    40 C21     12.5578   3.3288  13.2091   C.ar      2 RES2   0.0000
    41 H5      13.0910   3.2308  13.9640   H         2 RES2   0.0000
    42 C22     10.4180  10.8505  11.5457   C.ar      2 RES2   0.0000
    43 C23      9.4547  10.1249  12.1873   C.ar      2 RES2   0.0000
    44 H6       8.9925  10.5031  12.9008   H         2 RES2   0.0000
    45 C24      6.9101   3.2059  11.4268   C.ar      2 RES2   0.0000
    46 H7       7.4752   2.7859  10.8193   H         2 RES2   0.0000
    47 C25     11.1405  10.2513  10.5114   C.ar      2 RES2   0.0000
    48 H8      11.8155  10.7353  10.0927   H         2 RES2   0.0000
    49 C26      6.1666   6.9950   9.4011   C.ar      2 RES2   0.0000
    50 H9       6.0260   7.5291  10.1485   H         2 RES2   0.0000
    51 C27      5.1791   4.4198  13.1911   C.ar      2 RES2   0.0000
    52 C28      5.6275   7.1537  13.6751   C.ar      2 RES2   0.0000
    53 H10      5.7650   8.0575  13.8452   H         2 RES2   0.0000
    54 C29      8.6242   3.5591   7.3270   C.ar      2 RES2   0.0000
    55 H11      9.3102   2.9335   7.3683   H         2 RES2   0.0000
    56 C30      4.3354   5.1456  14.0622   C.ar      2 RES2   0.0000
    57 H12      3.6311   4.7170  14.4921   H         2 RES2   0.0000
    58 C31     10.8837   8.9793  10.1008   C.ar      2 RES2   0.0000
    59 H13     11.3899   8.6115   9.4126   H         2 RES2   0.0000
    60 C32      4.5551   6.4781  14.2738   C.ar      2 RES2   0.0000
    61 H14      3.9781   6.9493  14.8299   H         2 RES2   0.0000
    62 C33      7.8266   3.6467   6.1752   C.ar      2 RES2   0.0000
    63 H15      7.9953   3.0804   5.4573   H         2 RES2   0.0000
    64 C34      5.0462   3.0457  12.9063   C.ar      2 RES2   0.0000
    65 H16      4.3679   2.5510  13.3058   H         2 RES2   0.0000
    66 C35      5.5114   6.3828   7.1722   C.ar      2 RES2   0.0000
    67 H17      4.9659   6.4936   6.4274   H         2 RES2   0.0000
    68 C36      5.9064   2.4497  12.0504   C.ar      2 RES2   0.0000
    69 H18      5.8325   1.5389  11.8766   H         2 RES2   0.0000
    70 C37      6.8100   4.5468   6.0964   C.ar      2 RES2   0.0000
    71 H19      6.2928   4.5888   5.3238   H         2 RES2   0.0000
    72 C38      5.3288   7.1576   8.2756   C.ar      2 RES2   0.0000
    73 H20      4.6518   7.7948   8.2891   H         2 RES2   0.0000
    74 C39      9.8419  12.8709  12.6685   C.3       2 RES2   0.0000
    75 H21      8.9676  12.8763  12.2720   H         2 RES2   0.0000
    76 H22     10.1502  13.7742  12.7747   H         2 RES2   0.0000
    77 H23      9.8014  12.4439  13.5272   H         2 RES2   0.0000
    78 C40     14.0828   0.7884  11.1046   C.3       2 RES2   0.0000
    79 H24     14.2470   1.2651  10.2869   H         2 RES2   0.0000
    80 H25     13.2942   0.2503  11.0080   H         2 RES2   0.0000
    81 H26     14.8339   0.2240  11.3015   H         2 RES2   0.0000
    82 S1       4.5917  -2.5460  11.2040   S.2       3 RES3  -1.0000
    83 N5       6.5520  -0.6113  10.7327   N.1       3 RES3   0.0000
    84 C41      5.7314  -1.4176  10.9304   C.1       3 RES3   0.0000
    85 O5       8.5153   0.8745   9.3790   O.3       4 RES4   0.0000
    86 H27      9.1232   0.4033   9.0158   H         4 RES4   0.0000
    87 H28      8.0018   0.3725   9.8324   H         4 RES4   0.0000
@<TRIPOS>BOND
     1     1     8    1
     2     2    11    1
     3     3     7    1
     4     4    10    1
     5     5    12    1
     6     6     9    1
     7     7     9   ar
     8     8    10   ar
     9     9    11   ar
    10    10    11   ar
    11    12     7   ar
    12     8    12   ar
    13    13    14    1
    14    14    24    1
    15    15    13    1
    16    16    13    1
    17    17    38    1
    18    18    13    1
    19    19    13    1
    20    20    13    1
    21    21    42    1
    22    22    16    2
    23    23    22    1
    24    24    25   ar
    25    25    22    1
    26    26    19    1
    27    27    19    2
    28    28    27    1
    29    29    18   ar
    30    30    16    1
    31    31    27    1
    32    32    20   ar
    33    33    24   ar
    34    34    33    1
    35    35    15    1
    36    36    25   ar
    37    37    36    1
    38    38    36   ar
    39    39    32   ar
    40    40    33   ar
    41    41    40    1
    42    42    43   ar
    43    43    31   ar
    44    44    43    1
    45    45    18   ar
    46    46    45    1
    47    47    42   ar
    48    48    47    1
    49    49    20   ar
    50    50    49    1
    51    51    29   ar
    52    52    26   ar
    53    53    52    1
    54    54    30   ar
    55    55    54    1
    56    56    51   ar
    57    57    56    1
    58    58    35   ar
    59    59    58    1
    60    60    52   ar
    61    61    60    1
    62    62    54   ar
    63    63    62    1
    64    64    51   ar
    65    65    64    1
    66    66    39   ar
    67    67    66    1
    68    68    45   ar
    69    69    68    1
    70    70    39   ar
    71    71    70    1
    72    72    49   ar
    73    73    72    1
    74    74    21    1
    75    75    74    1
    76    76    74    1
    77    77    74    1
    78    78    17    1
    79    79    78    1
    80    80    78    1
    81    81    78    1
    82    26    29   ar
    83    30    32   ar
    84    31    35   ar
    85    38    40   ar
    86    47    58   ar
    87    56    60   ar
    88    62    70   ar
    89    64    68   ar
    90    66    72   ar
    91    82    84    1
    92    83    84    3
    93    85    86    1
    94    87    85    1
@<TRIPOS>SUBSTRUCTURE
     1 RES1        1 GROUP             0 ****  ****    0  
     2 RES2       13 GROUP             0 ****  ****    0  
     3 RES3       82 GROUP             0 ****  ****    0  
     4 RES4       85 GROUP             0 ****  ****    0  
@<TRIPOS>CRYSIN
   11.6997   12.4486   14.2237   83.7820   77.9200   89.2940     2     1
