@<TRIPOS>MOLECULE
OPEYAM28
    87    94     4     0     0
SMALL
USER_CHARGES
****
Generated from the CSD

@<TRIPOS>ATOM
     1 I1      14.5955  10.3058   8.5424   I         1 RES1   0.0000
     2 I2       9.6213  12.1818   5.5827   I         1 RES1   0.0000
     3 I3      12.7836   7.5273   3.4929   I         1 RES1   0.0000
     4 F1      12.0489  12.0441   7.6579   F         1 RES1   0.0000
     5 F2      14.4436   8.3241   6.0773   F         1 RES1   0.0000
     6 F3      10.5474   9.7112   3.8829   F         1 RES1   0.0000
     7 C1      12.5193   8.9988   4.9262   C.ar      1 RES1   0.0000
     8 C2      13.2716  10.1815   6.9122   C.ar      1 RES1   0.0000
     9 C3      11.2551  10.9073   5.7643   C.ar      1 RES1   0.0000
    10 C4      12.1944  11.0349   6.7670   C.ar      1 RES1   0.0000
    11 C5      13.4081   9.1831   5.9731   C.ar      1 RES1   0.0000
    12 C6      11.4395   9.8737   4.8653   C.ar      1 RES1   0.0000
    13 Fe1      6.4227   8.1689   2.9321   Fe        2 RES2   1.0000
    14 O1       5.2163   8.6564   1.5787   O.3       2 RES2   0.0000
    15 O2       5.2546   6.8975   3.6543   O.3       2 RES2   0.0000
    16 O3       0.9486  12.1640   1.6529   O.3       2 RES2   0.0000
    17 O4       4.0824   1.7720   1.9984   O.3       2 RES2   0.0000
    18 N1       5.7266   9.4428   4.2192   N.2       2 RES2   0.0000
    19 N2       7.7631   9.4156   2.1681   N.ar      2 RES2   0.0000
    20 N3       7.7247   7.7948   4.3888   N.ar      2 RES2   0.0000
    21 N4       7.2265   6.9385   1.6724   N.2       2 RES2   0.0000
    22 C7       4.6740  10.1797   4.0494   C.2       2 RES2   0.0000
    23 H1       4.4017  10.7163   4.7717   H         2 RES2   0.0000
    24 C8       6.4581   9.4948   5.4407   C.ar      2 RES2   0.0000
    25 C9       5.6727   5.1246   2.0371   C.ar      2 RES2   0.0000
    26 C10      3.8978  10.2428   2.8628   C.ar      2 RES2   0.0000
    27 C11      8.6053   8.8138   1.2682   C.ar      2 RES2   0.0000
    28 C12      4.2074   9.4935   1.7066   C.ar      2 RES2   0.0000
    29 C13      8.3668   7.4470   1.0013   C.ar      2 RES2   0.0000
    30 C14      6.7532   5.7632   1.3678   C.2       2 RES2   0.0000
    31 H2       7.1564   5.3036   0.6542   H         2 RES2   0.0000
    32 C15      7.5209   8.5785   5.4960   C.ar      2 RES2   0.0000
    33 C16      2.7965  11.1471   2.8683   C.ar      2 RES2   0.0000
    34 H3       2.6063  11.6428   3.6440   H         2 RES2   0.0000
    35 C17      4.9902   5.7167   3.1352   C.ar      2 RES2   0.0000
    36 C18      3.3574   9.6716   0.5878   C.ar      2 RES2   0.0000
    37 H4       3.5250   9.1790  -0.1955   H         2 RES2   0.0000
    38 C19      2.0123  11.3013   1.7578   C.ar      2 RES2   0.0000
    39 C20      5.3662   3.8005   1.6264   C.ar      2 RES2   0.0000
    40 H5       5.8261   3.4185   0.9011   H         2 RES2   0.0000
    41 C21      4.4088   3.0773   2.2805   C.ar      2 RES2   0.0000
    42 C22      2.2963  10.5410   0.6140   C.ar      2 RES2   0.0000
    43 H6       1.7501  10.6288  -0.1467   H         2 RES2   0.0000
    44 C23      7.9263  10.7079   2.4216   C.ar      2 RES2   0.0000
    45 H7       7.3506  11.1266   3.0343   H         2 RES2   0.0000
    46 C24      8.3273   8.4725   6.6522   C.ar      2 RES2   0.0000
    47 C25      8.7066   6.9070   4.4090   C.ar      2 RES2   0.0000
    48 H8       8.8511   6.3725   3.6488   H         2 RES2   0.0000
    49 C26      3.6962   3.6662   3.3261   C.ar      2 RES2   0.0000
    50 H9       3.0178   3.1752   3.7531   H         2 RES2   0.0000
    51 C27      3.9652   4.9454   3.7451   C.ar      2 RES2   0.0000
    52 H10      3.4627   5.3173   4.4466   H         2 RES2   0.0000
    53 C28      9.6600   9.5123   0.6486   C.ar      2 RES2   0.0000
    54 C29      7.0164  10.2281   7.6576   C.ar      2 RES2   0.0000
    55 H11      6.8437  10.7970   8.3854   H         2 RES2   0.0000
    56 C30      6.2197  10.3184   6.5042   C.ar      2 RES2   0.0000
    57 H12      5.5211  10.9465   6.4646   H         2 RES2   0.0000
    58 C31      8.9298  11.4686   1.8048   C.ar      2 RES2   0.0000
    59 H13      9.0060  12.3867   1.9950   H         2 RES2   0.0000
    60 C32      9.3581   7.5036   6.6439   C.ar      2 RES2   0.0000
    61 H14      9.9075   7.3903   7.3979   H         2 RES2   0.0000
    62 C33     10.5068   8.7844  -0.2268   C.ar      2 RES2   0.0000
    63 H15     11.2167   9.2196  -0.6628   H         2 RES2   0.0000
    64 C34      9.2230   6.7674   0.1604   C.ar      2 RES2   0.0000
    65 H16      9.0923   5.8521  -0.0111   H         2 RES2   0.0000
    66 C35      9.7930  10.8838   0.9363   C.ar      2 RES2   0.0000
    67 H17     10.4729  11.3892   0.5287   H         2 RES2   0.0000
    68 C36      8.0400   9.3280   7.7364   C.ar      2 RES2   0.0000
    69 H18      8.5562   9.2768   8.5197   H         2 RES2   0.0000
    70 C37     10.2884   7.4548  -0.4356   C.ar      2 RES2   0.0000
    71 H19     10.8748   6.9822  -0.9987   H         2 RES2   0.0000
    72 C38      9.5465   6.7358   5.5347   C.ar      2 RES2   0.0000
    73 H20     10.2336   6.0948   5.5174   H         2 RES2   0.0000
    74 C39      4.9738   1.0612   1.1437   C.3       2 RES2   0.0000
    75 H21      4.9968   1.4889   0.2736   H         2 RES2   0.0000
    76 H22      4.6686   0.1463   1.0475   H         2 RES2   0.0000
    77 H23      5.8644   1.0664   1.5297   H         2 RES2   0.0000
    78 C40      0.7557  13.0674   2.7217   C.3       2 RES2   0.0000
    79 H24     -0.0027  13.6402   2.5277   H         2 RES2   0.0000
    80 H25      1.5514  13.6115   2.8328   H         2 RES2   0.0000
    81 H26      0.5865  12.5719   3.5379   H         2 RES2   0.0000
    82 S1      10.3293  16.4131   2.6173   S.2       3 RES3  -1.0000
    83 N5       8.2832  14.5590   3.0675   N.1       3 RES3   0.0000
    84 C41      9.1367  15.3247   2.8891   C.1       3 RES3   0.0000
    85 O5       6.3865  13.0239   4.4601   O.3       4 RES4   0.0000
    86 H27      5.9333  13.6096   4.8781   H         4 RES4   0.0000
    87 H28      5.8664  12.5518   3.9819   H         4 RES4   0.0000
@<TRIPOS>BOND
     1     1     8    1
     2     2     9    1
     3     3     7    1
     4     4    10    1
     5     5    11    1
     6     6    12    1
     7     7    11   ar
     8     8    10   ar
     9     9    10   ar
    10    11     8   ar
    11    12     7   ar
    12     9    12   ar
    13    13    14    1
    14    14    28    1
    15    15    13    1
    16    16    38    1
    17    17    41    1
    18    18    13    1
    19    19    13    1
    20    20    13    1
    21    21    13    1
    22    22    18    2
    23    23    22    1
    24    24    18    1
    25    25    30    1
    26    26    22    1
    27    27    19   ar
    28    28    26   ar
    29    29    21    1
    30    30    21    2
    31    31    30    1
    32    32    20   ar
    33    33    26   ar
    34    34    33    1
    35    35    15    1
    36    36    28   ar
    37    37    36    1
    38    38    33   ar
    39    39    25   ar
    40    40    39    1
    41    41    39   ar
    42    42    36   ar
    43    43    42    1
    44    44    19   ar
    45    45    44    1
    46    46    32   ar
    47    47    20   ar
    48    48    47    1
    49    49    41   ar
    50    50    49    1
    51    51    35   ar
    52    52    51    1
    53    53    27   ar
    54    54    55    1
    55    56    24   ar
    56    57    56    1
    57    58    44   ar
    58    59    58    1
    59    60    46   ar
    60    61    60    1
    61    62    53   ar
    62    63    62    1
    63    64    29   ar
    64    65    64    1
    65    66    53   ar
    66    67    66    1
    67    68    46   ar
    68    69    68    1
    69    70    62   ar
    70    71    70    1
    71    72    47   ar
    72    73    72    1
    73    74    17    1
    74    75    74    1
    75    76    74    1
    76    77    74    1
    77    78    16    1
    78    79    78    1
    79    80    78    1
    80    81    78    1
    81    24    32   ar
    82    25    35   ar
    83    27    29   ar
    84    38    42   ar
    85    49    51   ar
    86    54    56   ar
    87    54    68   ar
    88    58    66   ar
    89    60    72   ar
    90    64    70   ar
    91    82    84    1
    92    83    84    3
    93    85    86    1
    94    87    85    1
@<TRIPOS>SUBSTRUCTURE
     1 RES1        1 GROUP             0 ****  ****    0  
     2 RES2       13 GROUP             0 ****  ****    0  
     3 RES3       82 GROUP             0 ****  ****    0  
     4 RES4       85 GROUP             0 ****  ****    0  
@<TRIPOS>CRYSIN
   11.7033   12.3801   14.2310   83.8350   77.7970   89.1870     2     1
