@<TRIPOS>MOLECULE
OPEYAM06
    87    94     4     0     0
SMALL
USER_CHARGES
****
Generated from the CSD

@<TRIPOS>ATOM
     1 I1       0.1418   3.8044   5.2294   I         1 RES1   0.0000
     2 I2       4.9734   1.7543   8.2991   I         1 RES1   0.0000
     3 I3       1.8767   6.4453  10.3735   I         1 RES1   0.0000
     4 F1       2.6256   2.0061   6.1431   F         1 RES1   0.0000
     5 F2       0.2794   5.7343   7.7366   F         1 RES1   0.0000
     6 F3       4.0617   4.2220  10.0107   F         1 RES1   0.0000
     7 C1       2.1486   4.9792   8.9195   C.ar      1 RES1   0.0000
     8 C2       1.4294   3.8793   6.8876   C.ar      1 RES1   0.0000
     9 C3       3.3889   3.0849   8.0845   C.ar      1 RES1   0.0000
    10 C4       1.2850   4.8532   7.8521   C.ar      1 RES1   0.0000
    11 C5       3.2000   4.0841   8.9989   C.ar      1 RES1   0.0000
    12 C6       2.4771   2.9939   7.0574   C.ar      1 RES1   0.0000
    13 Fe1      8.2746   5.8528  10.9982   Fe        2 RES2   1.0000
    14 O1       9.3573   7.2616  10.3628   O.3       2 RES2   0.0000
    15 O2       9.5247   5.2242  12.2750   O.3       2 RES2   0.0000
    16 N1       7.3263   7.1484  12.2750   N.2       2 RES2   0.0000
    17 N2       8.9357   4.4519   9.6432   N.2       2 RES2   0.0000
    18 O3      13.6003   1.5226  12.1929   O.3       2 RES2   0.0000
    19 N3       6.8053   4.6164  11.8185   N.ar      2 RES2   0.0000
    20 N4       6.9483   6.1580   9.4011   N.ar      2 RES2   0.0000
    21 O4      10.3036  12.4309  11.9549   O.3       2 RES2   0.0000
    22 C7       9.9477   3.6688   9.8283   C.2       2 RES2   0.0000
    23 H1      10.1871   3.1190   9.1181   H         2 RES2   0.0000
    24 C8       6.1959   6.6191  12.9555   C.ar      2 RES2   0.0000
    25 C9       7.7373   8.3568  12.5422   C.2       2 RES2   0.0000
    26 H2       7.2966   8.8133  13.2215   H         2 RES2   0.0000
    27 C10     10.7346   3.5627  11.0155   C.ar      2 RES2   0.0000
    28 C11      8.2177   4.4107   8.4130   C.ar      2 RES2   0.0000
    29 C12      8.8012   9.0387  11.8825   C.ar      2 RES2   0.0000
    30 C13     10.4907   4.3318  12.1748   C.ar      2 RES2   0.0000
    31 C14      7.1579   5.3449   8.3308   C.ar      2 RES2   0.0000
    32 C15      5.9619   5.2395  12.6953   C.ar      2 RES2   0.0000
    33 C16      9.5662   8.4684  10.8429   C.ar      2 RES2   0.0000
    34 C17     11.7836   2.6242  10.9974   C.ar      2 RES2   0.0000
    35 H3      11.9460   2.1327  10.2245   H         2 RES2   0.0000
    36 C18      6.6262   3.3279  11.5763   C.ar      2 RES2   0.0000
    37 H4       7.1967   2.9028  10.9774   H         2 RES2   0.0000
    38 C19     12.5729   2.4220  12.1066   C.ar      2 RES2   0.0000
    39 C20      4.8957   4.5674  13.3146   C.ar      2 RES2   0.0000
    40 C21      5.3407   7.2963  13.7892   C.ar      2 RES2   0.0000
    41 H5       5.4701   8.2019  13.9560   H         2 RES2   0.0000
    42 C22      6.3717   5.4297   7.1479   C.ar      2 RES2   0.0000
    43 C23      9.0497  10.3653  12.2917   C.ar      2 RES2   0.0000
    44 H6       8.5556  10.7309  12.9893   H         2 RES2   0.0000
    45 C24     11.3326   4.1052  13.2826   C.ar      2 RES2   0.0000
    46 H7      11.1992   4.5959  14.0617   H         2 RES2   0.0000
    47 C25      4.0477   5.2864  14.1830   C.ar      2 RES2   0.0000
    48 H8       3.3437   4.8552  14.6100   H         2 RES2   0.0000
    49 C26      5.9685   7.0410   9.3398   C.ar      2 RES2   0.0000
    50 H9       5.8138   7.5885  10.0764   H         2 RES2   0.0000
    51 C27     12.3352   3.1869  13.2394   C.ar      2 RES2   0.0000
    52 H10     12.8742   3.0682  13.9877   H         2 RES2   0.0000
    53 C28     10.5779   9.2545  10.2653   C.ar      2 RES2   0.0000
    54 H11     11.1172   8.8934   9.5992   H         2 RES2   0.0000
    55 C29      7.6843   3.6615   6.1918   C.ar      2 RES2   0.0000
    56 H12      7.8671   3.0926   5.4788   H         2 RES2   0.0000
    57 C30      8.4620   3.5816   7.3608   C.ar      2 RES2   0.0000
    58 H13      9.1497   2.9575   7.4157   H         2 RES2   0.0000
    59 C31      5.6096   2.5770  12.1859   C.ar      2 RES2   0.0000
    60 H14      5.5272   1.6680  12.0066   H         2 RES2   0.0000
    61 C32      4.2631   6.6109  14.3918   C.ar      2 RES2   0.0000
    62 H15      3.6852   7.0795  14.9494   H         2 RES2   0.0000
    63 C33      4.7538   3.1820  13.0363   C.ar      2 RES2   0.0000
    64 H16      4.0721   2.6930  13.4371   H         2 RES2   0.0000
    65 C34     10.0075  11.1227  11.6710   C.ar      2 RES2   0.0000
    66 C35      5.3459   6.4066   7.1312   C.ar      2 RES2   0.0000
    67 H17      4.8111   6.5083   6.3768   H         2 RES2   0.0000
    68 C36     10.7748  10.5363  10.6717   C.ar      2 RES2   0.0000
    69 H18     11.4457  11.0381  10.2667   H         2 RES2   0.0000
    70 C37      5.1491   7.1886   8.2084   C.ar      2 RES2   0.0000
    71 H19      4.4722   7.8259   8.2042   H         2 RES2   0.0000
    72 C38      6.6714   4.5557   6.0916   C.ar      2 RES2   0.0000
    73 H20      6.1671   4.5899   5.3110   H         2 RES2   0.0000
    74 C39      9.3994  13.1275  12.7913   C.3       2 RES2   0.0000
    75 H21      8.5215  13.1032  12.4022   H         2 RES2   0.0000
    76 H22      9.6841  14.0391  12.8819   H         2 RES2   0.0000
    77 H23      9.3769  12.7109  13.6559   H         2 RES2   0.0000
    78 C40     13.7916   0.6314  11.1199   C.3       2 RES2   0.0000
    79 H24     13.9470   1.1293  10.3141   H         2 RES2   0.0000
    80 H25     13.0081   0.0863  11.0128   H         2 RES2   0.0000
    81 H26     14.5490   0.0699  11.3006   H         2 RES2   0.0000
    82 S1       4.5534  -2.7200  11.2956   S.2       3 RES3  -1.0000
    83 C41      5.5422  -1.4604  11.0169   C.1       3 RES3   0.0000
    84 N5       6.2514  -0.5636  10.8220   N.1       3 RES3   0.0000
    85 O5       8.2720   0.8969   9.4776   O.3       4 RES4   0.0000
    86 H27      8.9877   0.4402   9.5084   H         4 RES4   0.0000
    87 H28      7.8448   0.7059   8.7673   H         4 RES4   0.0000
@<TRIPOS>BOND
     1     1     8    1
     2     2     9    1
     3     3     7    1
     4     4    12    1
     5     5    10    1
     6     6    11    1
     7     7    10   ar
     8     8    10   ar
     9     9    11   ar
    10    11     7   ar
    11    12     8   ar
    12     9    12   ar
    13    13    14    1
    14    14    33    1
    15    15    13    1
    16    16    13    1
    17    17    13    1
    18    18    38    1
    19    19    13    1
    20    20    13    1
    21    21    65    1
    22    22    17    2
    23    23    22    1
    24    24    16    1
    25    25    16    2
    26    26    25    1
    27    27    22    1
    28    28    17    1
    29    29    25    1
    30    30    15    1
    31    31    20   ar
    32    32    19   ar
    33    33    29   ar
    34    34    27   ar
    35    35    34    1
    36    36    19   ar
    37    37    36    1
    38    38    34   ar
    39    39    32   ar
    40    40    24   ar
    41    41    40    1
    42    42    31   ar
    43    43    29   ar
    44    44    43    1
    45    45    30   ar
    46    46    45    1
    47    47    39   ar
    48    48    47    1
    49    49    20   ar
    50    50    49    1
    51    51    38   ar
    52    52    51    1
    53    53    33   ar
    54    54    53    1
    55    55    56    1
    56    57    28   ar
    57    58    57    1
    58    59    36   ar
    59    60    59    1
    60    61    40   ar
    61    62    61    1
    62    63    39   ar
    63    64    63    1
    64    65    43   ar
    65    66    42   ar
    66    67    66    1
    67    68    53   ar
    68    69    68    1
    69    70    49   ar
    70    71    70    1
    71    72    42   ar
    72    73    72    1
    73    74    21    1
    74    75    74    1
    75    76    74    1
    76    77    74    1
    77    78    18    1
    78    79    78    1
    79    80    78    1
    80    81    78    1
    81    24    32   ar
    82    27    30   ar
    83    28    31   ar
    84    45    51   ar
    85    47    61   ar
    86    55    57   ar
    87    55    72   ar
    88    59    63   ar
    89    65    68   ar
    90    66    70   ar
    91    82    83    1
    92    83    84    3
    93    85    86    1
    94    87    85    1
@<TRIPOS>SUBSTRUCTURE
     1 RES1        1 GROUP             0 ****  ****    0  
     2 RES2       13 GROUP             0 ****  ****    0  
     3 RES3       82 GROUP             0 ****  ****    0  
     4 RES4       85 GROUP             0 ****  ****    0  
@<TRIPOS>CRYSIN
   11.5373   12.7433   14.2705   83.9990   78.7290   89.6740     2     1
