@<TRIPOS>MOLECULE
OPEYAM07
    87    94     4     0     0
SMALL
USER_CHARGES
****
Generated from the CSD

@<TRIPOS>ATOM
     1 I1      14.2210  10.4272   8.6980   I         1 RES1   0.0000
     2 I2       9.4075  12.5036   5.6167   I         1 RES1   0.0000
     3 I3      12.4881   7.8015   3.5443   I         1 RES1   0.0000
     4 F1      14.0799   8.5004   6.1866   F         1 RES1   0.0000
     5 F2      11.7439  12.2352   7.7820   F         1 RES1   0.0000
     6 F3      10.3119  10.0289   3.9007   F         1 RES1   0.0000
     7 C1      12.2150   9.2579   4.9977   C.ar      1 RES1   0.0000
     8 C2      12.9316  10.3533   7.0344   C.ar      1 RES1   0.0000
     9 C3      10.9835  11.1623   5.8372   C.ar      1 RES1   0.0000
    10 C4      13.0733   9.3863   6.0655   C.ar      1 RES1   0.0000
    11 C5      11.8932  11.2486   6.8687   C.ar      1 RES1   0.0000
    12 C6      11.1638  10.1616   4.9239   C.ar      1 RES1   0.0000
    13 Fe1      6.0879   8.3914   2.9150   Fe        2 RES2   1.0000
    14 O1       4.8310   9.0409   1.6469   O.3       2 RES2   0.0000
    15 O2       5.0149   6.9682   3.5388   O.3       2 RES2   0.0000
    16 N1       5.4336   9.8007   4.2808   N.2       2 RES2   0.0000
    17 N2       7.0551   7.0902   1.6371   N.2       2 RES2   0.0000
    18 O3       0.7722  12.7598   1.7402   O.3       2 RES2   0.0000
    19 N3       7.5712   9.6276   2.0798   N.ar      2 RES2   0.0000
    20 N4       7.4199   8.0936   4.5314   N.ar      2 RES2   0.0000
    21 O4       4.1074   1.7863   1.9573   O.3       2 RES2   0.0000
    22 C7       4.4249  10.5927   4.0928   C.2       2 RES2   0.0000
    23 H1       4.1901  11.1435   4.8042   H         2 RES2   0.0000
    24 C8       8.1887   7.6211   0.9522   C.ar      2 RES2   0.0000
    25 C9       5.5856   5.1865   2.0353   C.ar      2 RES2   0.0000
    26 C10      6.6536   5.8787   1.3768   C.2       2 RES2   0.0000
    27 H2       7.1011   5.4207   0.7027   H         2 RES2   0.0000
    28 C11      3.6334  10.7082   2.9026   C.ar      2 RES2   0.0000
    29 C12      8.4241   8.9976   1.2139   C.ar      2 RES2   0.0000
    30 C13      6.1491   9.8419   5.5142   C.ar      2 RES2   0.0000
    31 C14      7.2051   8.9165   5.6005   C.ar      2 RES2   0.0000
    32 C15      3.8743   9.9320   1.7429   C.ar      2 RES2   0.0000
    33 C16      4.8104   5.7651   3.0682   C.ar      2 RES2   0.0000
    34 C17      2.5852  11.6509   2.9193   C.ar      2 RES2   0.0000
    35 H3       2.4263  12.1452   3.6900   H         2 RES2   0.0000
    36 C18      1.8004  11.8476   1.8195   C.ar      2 RES2   0.0000
    37 C19      9.4866   9.6694   0.5917   C.ar      2 RES2   0.0000
    38 C20      7.7606  10.9176   2.3207   C.ar      2 RES2   0.0000
    39 H4       7.1946  11.3463   2.9206   H         2 RES2   0.0000
    40 C21      9.0419   6.9414   0.1239   C.ar      2 RES2   0.0000
    41 H5       8.9081   6.0365  -0.0426   H         2 RES2   0.0000
    42 C22      3.0324  10.1628   0.6390   C.ar      2 RES2   0.0000
    43 H6       3.1584   9.6685  -0.1384   H         2 RES2   0.0000
    44 C23      8.3970   7.2107   4.5968   C.ar      2 RES2   0.0000
    45 H7       8.5570   6.6602   3.8636   H         2 RES2   0.0000
    46 C24      5.3511   3.8505   1.6260   C.ar      2 RES2   0.0000
    47 H8       5.8534   3.4833   0.9352   H         2 RES2   0.0000
    48 C25      3.7985   4.9703   3.6515   C.ar      2 RES2   0.0000
    49 H9       3.2552   5.3254   4.3172   H         2 RES2   0.0000
    50 C26      7.9949   8.8351   6.7755   C.ar      2 RES2   0.0000
    51 C27     10.3375   8.9478  -0.2701   C.ar      2 RES2   0.0000
    52 H10     11.0428   9.3784  -0.6963   H         2 RES2   0.0000
    53 C28      2.0346  11.0919   0.6835   C.ar      2 RES2   0.0000
    54 H11      1.5005  11.2208  -0.0673   H         2 RES2   0.0000
    55 C29      8.7766  11.6593   1.7067   C.ar      2 RES2   0.0000
    56 H12      8.8607  12.5700   1.8783   H         2 RES2   0.0000
    57 C30      4.3889   3.0978   2.2441   C.ar      2 RES2   0.0000
    58 C31      6.6781  10.6046   7.7291   C.ar      2 RES2   0.0000
    59 H13      6.4882  11.1725   8.4410   H         2 RES2   0.0000
    60 C32      5.9107  10.6811   6.5569   C.ar      2 RES2   0.0000
    61 H14      5.2311  11.3132   6.4915   H         2 RES2   0.0000
    62 C33      9.6264  11.0491   0.8715   C.ar      2 RES2   0.0000
    63 H15     10.3111  11.5351   0.4717   H         2 RES2   0.0000
    64 C34     10.1214   7.6180  -0.4761   C.ar      2 RES2   0.0000
    65 H16     10.7031   7.1451  -1.0266   H         2 RES2   0.0000
    66 C35      9.0163   7.8576   6.8047   C.ar      2 RES2   0.0000
    67 H17      9.5506   7.7612   7.5604   H         2 RES2   0.0000
    68 C36      9.2084   7.0751   5.7425   C.ar      2 RES2   0.0000
    69 H18      9.8817   6.4338   5.7565   H         2 RES2   0.0000
    70 C37      7.6951   9.7092   7.8335   C.ar      2 RES2   0.0000
    71 H19      8.1994   9.6756   8.6150   H         2 RES2   0.0000
    72 C38      3.6162   3.6837   3.2367   C.ar      2 RES2   0.0000
    73 H20      2.9456   3.1776   3.6367   H         2 RES2   0.0000
    74 C39      5.0129   1.0948   1.1262   C.3       2 RES2   0.0000
    75 H21      5.0328   1.5083   0.2603   H         2 RES2   0.0000
    76 H22      4.7323   0.1810   1.0385   H         2 RES2   0.0000
    77 H23      5.8900   1.1243   1.5154   H         2 RES2   0.0000
    78 C40      0.5920  13.6426   2.8079   C.3       2 RES2   0.0000
    79 H24     -0.1583  14.2132   2.6275   H         2 RES2   0.0000
    80 H25      1.3819  14.1769   2.9176   H         2 RES2   0.0000
    81 H26      0.4291  13.1433   3.6113   H         2 RES2   0.0000
    82 S1       9.7912  16.9987   2.6251   S.2       3 RES3  -1.0000
    83 C41      8.8319  15.7212   2.9026   C.1       3 RES3   0.0000
    84 N5       8.1468  14.8115   3.1016   N.1       3 RES3   0.0000
    85 O5       6.1270  13.3720   4.4659   O.3       4 RES4   0.0000
    86 H27      5.6906  14.0049   4.8273   H         4 RES4   0.0000
    87 H28      5.6816  13.0568   3.8140   H         4 RES4   0.0000
@<TRIPOS>BOND
     1     1     8    1
     2     2     9    1
     3     3     7    1
     4     4    10    1
     5     5    11    1
     6     6    12    1
     7     7    10   ar
     8     8    10   ar
     9     9    11   ar
    10    11     8   ar
    11    12     7   ar
    12     9    12   ar
    13    13    14    1
    14    14    32    1
    15    15    13    1
    16    16    13    1
    17    17    13    1
    18    18    36    1
    19    19    13    1
    20    20    13    1
    21    21    57    1
    22    22    16    2
    23    23    22    1
    24    24    17    1
    25    25    26    1
    26    26    17    2
    27    27    26    1
    28    28    22    1
    29    29    19   ar
    30    30    16    1
    31    31    20   ar
    32    32    28   ar
    33    33    15    1
    34    34    28   ar
    35    35    34    1
    36    36    34   ar
    37    37    29   ar
    38    38    19   ar
    39    39    38    1
    40    40    24   ar
    41    41    40    1
    42    42    32   ar
    43    43    42    1
    44    44    20   ar
    45    45    44    1
    46    46    25   ar
    47    47    46    1
    48    48    33   ar
    49    49    48    1
    50    50    31   ar
    51    51    37   ar
    52    52    51    1
    53    53    36   ar
    54    54    53    1
    55    55    38   ar
    56    56    55    1
    57    57    46   ar
    58    58    59    1
    59    60    30   ar
    60    61    60    1
    61    62    37   ar
    62    63    62    1
    63    64    40   ar
    64    65    64    1
    65    66    50   ar
    66    67    66    1
    67    68    44   ar
    68    69    68    1
    69    70    50   ar
    70    71    70    1
    71    72    48   ar
    72    73    72    1
    73    74    21    1
    74    75    74    1
    75    76    74    1
    76    77    74    1
    77    78    18    1
    78    79    78    1
    79    80    78    1
    80    81    78    1
    81    24    29   ar
    82    25    33   ar
    83    30    31   ar
    84    42    53   ar
    85    51    64   ar
    86    55    62   ar
    87    57    72   ar
    88    58    60   ar
    89    58    70   ar
    90    66    68   ar
    91    82    83    1
    92    83    84    3
    93    85    86    1
    94    87    85    1
@<TRIPOS>SUBSTRUCTURE
     1 RES1        1 GROUP             0 ****  ****    0  
     2 RES2       13 GROUP             0 ****  ****    0  
     3 RES3       82 GROUP             0 ****  ****    0  
     4 RES4       85 GROUP             0 ****  ****    0  
@<TRIPOS>CRYSIN
   11.5254   12.7852   14.2685   84.0170   78.8490   89.7440     2     1
