@<TRIPOS>MOLECULE
OPEYAM22
    87    94     4     0     0
SMALL
USER_CHARGES
****
Generated from the CSD

@<TRIPOS>ATOM
     1 I1       6.1408   3.5434   5.2853   I         1 RES1   0.0000
     2 I2      11.1366   1.6869   8.2338   I         1 RES1   0.0000
     3 I3       7.9635   6.3401  10.3276   I         1 RES1   0.0000
     4 F1       8.7007   1.8128   6.1675   F         1 RES1   0.0000
     5 F2       6.2933   5.5327   7.7501   F         1 RES1   0.0000
     6 F3      10.2061   4.1587   9.9351   F         1 RES1   0.0000
     7 C1       8.2301   4.8525   8.8945   C.ar      1 RES1   0.0000
     8 C2       7.4688   3.6735   6.9149   C.ar      1 RES1   0.0000
     9 C3       7.3366   4.6774   7.8591   C.ar      1 RES1   0.0000
    10 C4       9.4924   2.9574   8.0579   C.ar      1 RES1   0.0000
    11 C5       9.3101   3.9893   8.9525   C.ar      1 RES1   0.0000
    12 C6       8.5526   2.8209   7.0598   C.ar      1 RES1   0.0000
    13 Fe1     14.3125   5.6942  10.8747   Fe        2 RES2   1.0000
    14 O1      15.4808   6.9652  10.1494   O.3       2 RES2   0.0000
    15 O2      15.5210   5.2097  12.2302   O.3       2 RES2   0.0000
    16 O3      19.7921   1.7040  12.1545   O.3       2 RES2   0.0000
    17 O4      16.6579  12.0955  11.8046   O.3       2 RES2   0.0000
    18 N1      15.0092   4.4137   9.5865   N.2       2 RES2   0.0000
    19 N2      12.9773   4.4432  11.6388   N.ar      2 RES2   0.0000
    20 N3      13.0112   6.0679   9.4195   N.ar      2 RES2   0.0000
    21 N4      13.5124   6.9287  12.1331   N.2       2 RES2   0.0000
    22 C7      16.0618   3.6812   9.7573   C.2       2 RES2   0.0000
    23 H1      16.3353   3.1350   9.0293   H         2 RES2   0.0000
    24 C8      14.2759   4.3667   8.3658   C.ar      2 RES2   0.0000
    25 C9      15.0709   8.7307  11.7673   C.ar      2 RES2   0.0000
    26 C10     13.9881   8.1016  12.4368   C.2       2 RES2   0.0000
    27 H2      13.5838   8.5687  13.1587   H         2 RES2   0.0000
    28 C11     17.3856   4.1993  13.2306   C.ar      2 RES2   0.0000
    29 H3      17.2148   4.6955  14.0221   H         2 RES2   0.0000
    30 C12     16.5390   4.3736  12.1028   C.ar      2 RES2   0.0000
    31 C13     12.1352   5.0494  12.5376   C.ar      2 RES2   0.0000
    32 C14     16.8441   3.6267  10.9418   C.ar      2 RES2   0.0000
    33 C15     13.2066   5.2815   8.3050   C.ar      2 RES2   0.0000
    34 C16     12.3711   6.4179  12.8110   C.ar      2 RES2   0.0000
    35 C17     17.9462   2.7196  10.9376   C.ar      2 RES2   0.0000
    36 H4      18.1382   2.2149  10.1567   H         2 RES2   0.0000
    37 C18     15.7545   8.1487  10.6698   C.ar      2 RES2   0.0000
    38 C19     15.3792  10.0590  12.1828   C.ar      2 RES2   0.0000
    39 H5      14.9192  10.4424  12.9207   H         2 RES2   0.0000
    40 C20     18.7294   2.5722  12.0517   C.ar      2 RES2   0.0000
    41 C21     18.4433   3.3299  13.1975   C.ar      2 RES2   0.0000
    42 H6      18.9934   3.2381  13.9664   H         2 RES2   0.0000
    43 C22     12.0313   6.9528   9.4011   C.ar      2 RES2   0.0000
    44 H7      11.8887   7.4930  10.1702   H         2 RES2   0.0000
    45 C23     17.0520  10.1938  10.4738   C.ar      2 RES2   0.0000
    46 H8      17.7400  10.6863  10.0417   H         2 RES2   0.0000
    47 C24     12.4019   5.3897   7.1592   C.ar      2 RES2   0.0000
    48 C25     16.3373  10.7868  11.5243   C.ar      2 RES2   0.0000
    49 C26     10.2297   5.0776  14.0410   C.ar      2 RES2   0.0000
    50 H9       9.5136   4.6371  14.4834   H         2 RES2   0.0000
    51 C27     12.8166   3.1508  11.3835   C.ar      2 RES2   0.0000
    52 H10     13.3941   2.7293  10.7578   H         2 RES2   0.0000
    53 C28     11.8148   2.3849  12.0103   C.ar      2 RES2   0.0000
    54 H11     11.7416   1.4557  11.8289   H         2 RES2   0.0000
    55 C29     16.7724   8.9124  10.0583   C.ar      2 RES2   0.0000
    56 H12     17.2745   8.5347   9.3455   H         2 RES2   0.0000
    57 C30     11.0775   4.3504  13.1657   C.ar      2 RES2   0.0000
    58 C31     14.5084   3.5338   7.3014   C.ar      2 RES2   0.0000
    59 H13     15.2088   2.8933   7.3442   H         2 RES2   0.0000
    60 C32     13.7099   3.6275   6.1473   C.ar      2 RES2   0.0000
    61 H14     13.8854   3.0535   5.4117   H         2 RES2   0.0000
    62 C33     11.5111   7.1040  13.6489   C.ar      2 RES2   0.0000
    63 H15     11.6423   8.0291  13.8194   H         2 RES2   0.0000
    64 C34     11.3715   6.3575   7.1661   C.ar      2 RES2   0.0000
    65 H16     10.8145   6.4722   6.4050   H         2 RES2   0.0000
    66 C35     10.4425   6.4142  14.2481   C.ar      2 RES2   0.0000
    67 H17      9.8485   6.8914  14.8150   H         2 RES2   0.0000
    68 C36     10.9531   2.9804  12.8786   C.ar      2 RES2   0.0000
    69 H18     10.2655   2.4694  13.2901   H         2 RES2   0.0000
    70 C37     12.6859   4.5300   6.0645   C.ar      2 RES2   0.0000
    71 H19     12.1633   4.5814   5.2729   H         2 RES2   0.0000
    72 C38     15.7705  12.7971  12.6605   C.3       2 RES2   0.0000
    73 H20     14.8689  12.7850  12.2768   H         2 RES2   0.0000
    74 H21     16.0729  13.7247  12.7545   H         2 RES2   0.0000
    75 H22     15.7573  12.3669  13.5406   H         2 RES2   0.0000
    76 C39     11.1874   7.1266   8.2802   C.ar      2 RES2   0.0000
    77 H23     10.4942   7.7759   8.3018   H         2 RES2   0.0000
    78 C40     19.9836   0.7957  11.0895   C.3       2 RES2   0.0000
    79 H24     20.1555   1.2933  10.2628   H         2 RES2   0.0000
    80 H25     19.1787   0.2477  10.9795   H         2 RES2   0.0000
    81 H26     20.7488   0.2167  11.2875   H         2 RES2   0.0000
    82 S1       4.3072   4.0297   2.6175   S.2       3 RES3  -1.0000
    83 N5       2.2393   2.1849   3.0454   N.1       3 RES3   0.0000
    84 C41      3.0980   2.9451   2.8797   C.1       3 RES3   0.0000
    85 O5       0.3463   0.6300   4.4383   O.3       4 RES4   0.0000
    86 H27      0.6312   0.4384   5.2163   H         4 RES4   0.0000
    87 H28     -0.3586   1.1012   4.5032   H         4 RES4   0.0000
@<TRIPOS>BOND
     1     1     8    1
     2     2    10    1
     3     3     7    1
     4     4    12    1
     5     5     9    1
     6     6    11    1
     7     7     9   ar
     8     8     9   ar
     9    10    11   ar
    10    11     7   ar
    11    12     8   ar
    12    10    12   ar
    13    13    14    1
    14    14    37    1
    15    15    13    1
    16    16    40    1
    17    17    48    1
    18    18    13    1
    19    19    13    1
    20    20    13    1
    21    21    13    1
    22    22    18    2
    23    23    22    1
    24    24    18    1
    25    25    26    1
    26    26    21    2
    27    27    26    1
    28    28    29    1
    29    30    15    1
    30    31    19   ar
    31    32    22    1
    32    33    20   ar
    33    34    21    1
    34    35    32   ar
    35    36    35    1
    36    37    25   ar
    37    38    25   ar
    38    39    38    1
    39    40    35   ar
    40    41    28   ar
    41    42    41    1
    42    43    20   ar
    43    44    43    1
    44    45    46    1
    45    47    33   ar
    46    48    38   ar
    47    49    50    1
    48    51    19   ar
    49    52    51    1
    50    53    51   ar
    51    54    53    1
    52    55    37   ar
    53    56    55    1
    54    57    31   ar
    55    58    24   ar
    56    59    58    1
    57    60    58   ar
    58    61    60    1
    59    62    34   ar
    60    63    62    1
    61    64    47   ar
    62    65    64    1
    63    66    49   ar
    64    67    66    1
    65    68    53   ar
    66    69    68    1
    67    70    47   ar
    68    71    70    1
    69    72    17    1
    70    73    72    1
    71    74    72    1
    72    75    72    1
    73    76    43   ar
    74    77    76    1
    75    78    16    1
    76    79    78    1
    77    80    78    1
    78    81    78    1
    79    24    33   ar
    80    28    30   ar
    81    30    32   ar
    82    31    34   ar
    83    40    41   ar
    84    45    48   ar
    85    45    55   ar
    86    49    57   ar
    87    57    68   ar
    88    60    70   ar
    89    62    66   ar
    90    64    76   ar
    91    82    84    1
    92    83    84    3
    93    85    86    1
    94    87    85    1
@<TRIPOS>SUBSTRUCTURE
     1 RES1        1 GROUP             0 ****  ****    0  
     2 RES2       13 GROUP             0 ****  ****    0  
     3 RES3       82 GROUP             0 ****  ****    0  
     4 RES4       85 GROUP             0 ****  ****    0  
@<TRIPOS>CRYSIN
   11.6878   12.3526   14.2100   83.7840   77.7340   89.1660     2     1
