@<TRIPOS>MOLECULE
OPEYAM03
    87    94     4     0     0
SMALL
USER_CHARGES
****
Generated from the CSD

@<TRIPOS>ATOM
     1 I1      14.4676  10.3507   8.6147   I         1 RES1   0.0000
     2 I2       9.5570  12.2959   5.6044   I         1 RES1   0.0000
     3 I3      12.6932   7.6290   3.5256   I         1 RES1   0.0000
     4 F1      11.9469  12.1107   7.7160   F         1 RES1   0.0000
     5 F2      14.3208   8.3909   6.1378   F         1 RES1   0.0000
     6 F3      10.4820   9.8285   3.8948   F         1 RES1   0.0000
     7 C1      12.4196   9.0964   4.9621   C.ar      1 RES1   0.0000
     8 C2      11.1698  10.9949   5.8019   C.ar      1 RES1   0.0000
     9 C3      13.1596  10.2485   6.9692   C.ar      1 RES1   0.0000
    10 C4      12.0992  11.1128   6.8151   C.ar      1 RES1   0.0000
    11 C5      11.3574   9.9829   4.8983   C.ar      1 RES1   0.0000
    12 C6      13.2965   9.2526   6.0170   C.ar      1 RES1   0.0000
    13 Fe1      6.3150   8.2493   2.9315   Fe        2 RES2   1.0000
    14 O1       5.1801   6.9372   3.6270   O.3       2 RES2   0.0000
    15 O2       5.0974   8.7864   1.6023   O.3       2 RES2   0.0000
    16 N1       5.6290   9.5677   4.2459   N.2       2 RES2   0.0000
    17 N2       7.1665   6.9967   1.6670   N.2       2 RES2   0.0000
    18 N3       7.7013   9.4909   2.1473   N.ar      2 RES2   0.0000
    19 O3       0.9082  12.3665   1.6795   O.3       2 RES2   0.0000
    20 O4       4.0811   1.7935   1.9835   O.3       2 RES2   0.0000
    21 N4       7.6252   7.8976   4.4458   N.ar      2 RES2   0.0000
    22 C7       4.6004  10.3215   4.0655   C.2       2 RES2   0.0000
    23 H1       4.3483  10.8659   4.7765   H         2 RES2   0.0000
    24 C8       8.3060   7.5170   0.9883   C.ar      2 RES2   0.0000
    25 C9       6.7201   5.8087   1.3700   C.2       2 RES2   0.0000
    26 H2       7.1308   5.3541   0.6710   H         2 RES2   0.0000
    27 C10      8.5360   8.8828   1.2603   C.ar      2 RES2   0.0000
    28 C11      6.3602   9.6093   5.4729   C.ar      2 RES2   0.0000
    29 C12      4.1019   9.6370   1.7197   C.ar      2 RES2   0.0000
    30 C13      4.9303   5.7492   3.1175   C.ar      2 RES2   0.0000
    31 C14      5.6456   5.1587   2.0432   C.ar      2 RES2   0.0000
    32 C15      3.8134  10.4023   2.8829   C.ar      2 RES2   0.0000
    33 C16      7.4116   8.6960   5.5312   C.ar      2 RES2   0.0000
    34 C17      2.7369  11.3169   2.8829   C.ar      2 RES2   0.0000
    35 H3       2.5597  11.8118   3.6498   H         2 RES2   0.0000
    36 C18      1.9501  11.4870   1.7739   C.ar      2 RES2   0.0000
    37 C19      3.2554   9.8432   0.6080   C.ar      2 RES2   0.0000
    38 H4       3.4105   9.3613  -0.1722   H         2 RES2   0.0000
    39 C20      8.2143   8.5856   6.6958   C.ar      2 RES2   0.0000
    40 C21      7.8694  10.7863   2.3943   C.ar      2 RES2   0.0000
    41 H5       7.2994  11.2057   2.9977   H         2 RES2   0.0000
    42 C22      9.1562   6.8416   0.1513   C.ar      2 RES2   0.0000
    43 H6       9.0262   5.9358  -0.0137   H         2 RES2   0.0000
    44 C23      8.6010   7.0175   4.4750   C.ar      2 RES2   0.0000
    45 H7       8.7458   6.4807   3.7301   H         2 RES2   0.0000
    46 C24      9.6007   9.5683   0.6385   C.ar      2 RES2   0.0000
    47 C25      5.3536   3.8391   1.6281   C.ar      2 RES2   0.0000
    48 H8       5.8176   3.4670   0.9129   H         2 RES2   0.0000
    49 C26      4.3939   3.1020   2.2708   C.ar      2 RES2   0.0000
    50 C27      3.9102   4.9662   3.7185   C.ar      2 RES2   0.0000
    51 H9       3.3997   5.3281   4.4057   H         2 RES2   0.0000
    52 C28      2.2205  10.7250   0.6413   C.ar      2 RES2   0.0000
    53 H10      1.6819  10.8221  -0.1109   H         2 RES2   0.0000
    54 C29      6.9091  10.3477   7.6896   C.ar      2 RES2   0.0000
    55 H11      6.7362  10.9084   8.4111   H         2 RES2   0.0000
    56 C30      6.1176  10.4422   6.5292   C.ar      2 RES2   0.0000
    57 H12      5.4318  11.0681   6.4827   H         2 RES2   0.0000
    58 C31     10.4486   8.8414  -0.2346   C.ar      2 RES2   0.0000
    59 H13     11.1593   9.2684  -0.6559   H         2 RES2   0.0000
    60 C32     10.2253   7.5225  -0.4553   C.ar      2 RES2   0.0000
    61 H14     10.7934   7.0561  -1.0248   H         2 RES2   0.0000
    62 C33      8.8770  11.5440   1.7794   C.ar      2 RES2   0.0000
    63 H15      8.9530  12.4537   1.9576   H         2 RES2   0.0000
    64 C34      9.2416   7.6243   6.6916   C.ar      2 RES2   0.0000
    65 H16      9.7842   7.5151   7.4395   H         2 RES2   0.0000
    66 C35      3.6687   3.6874   3.2979   C.ar      2 RES2   0.0000
    67 H17      2.9978   3.1956   3.7138   H         2 RES2   0.0000
    68 C36      4.9827   1.0846   1.1382   C.3       2 RES2   0.0000
    69 H18      5.0198   1.5122   0.2790   H         2 RES2   0.0000
    70 H19      4.6791   0.1803   1.0323   H         2 RES2   0.0000
    71 H20      5.8579   1.0844   1.5329   H         2 RES2   0.0000
    72 C37      7.9262   9.4414   7.7673   C.ar      2 RES2   0.0000
    73 H21      8.4371   9.3915   8.5439   H         2 RES2   0.0000
    74 C38      9.4355   6.8628   5.5992   C.ar      2 RES2   0.0000
    75 H22     10.1198   6.2338   5.5863   H         2 RES2   0.0000
    76 C39      9.7356  10.9435   0.9286   C.ar      2 RES2   0.0000
    77 H23     10.4170  11.4366   0.5330   H         2 RES2   0.0000
    78 C40      0.7111  13.2616   2.7441   C.3       2 RES2   0.0000
    79 H24     -0.0277  13.8405   2.5432   H         2 RES2   0.0000
    80 H25      1.5044  13.7871   2.8709   H         2 RES2   0.0000
    81 H26      0.5225  12.7682   3.5457   H         2 RES2   0.0000
    82 S1      10.1341  16.6235   2.6175   S.2       3 RES3  -1.0000
    83 C41      9.0243  15.4637   2.9051   C.1       3 RES3   0.0000
    84 N5       8.2289  14.6371   3.0967   N.1       3 RES3   0.0000
    85 O5       6.2643  13.1394   4.4444   O.3       4 RES4   0.0000
    86 H27      6.6297  13.3933   5.1692   H         4 RES4   0.0000
    87 H28      5.4662  13.4289   4.4128   H         4 RES4   0.0000
@<TRIPOS>BOND
     1     1     9    1
     2     2     8    1
     3     3     7    1
     4     4    10    1
     5     5    12    1
     6     6    11    1
     7     7    11   ar
     8     8    10   ar
     9     9    10   ar
    10    11     8   ar
    11    12     7   ar
    12     9    12   ar
    13    13    14    1
    14    14    30    1
    15    15    13    1
    16    16    13    1
    17    17    13    1
    18    18    13    1
    19    19    36    1
    20    20    49    1
    21    21    13    1
    22    22    16    2
    23    23    22    1
    24    24    17    1
    25    25    17    2
    26    26    25    1
    27    27    18   ar
    28    28    16    1
    29    29    15    1
    30    30    31   ar
    31    31    25    1
    32    32    22    1
    33    33    21   ar
    34    34    32   ar
    35    35    34    1
    36    36    34   ar
    37    37    29   ar
    38    38    37    1
    39    39    33   ar
    40    40    18   ar
    41    41    40    1
    42    42    24   ar
    43    43    42    1
    44    44    21   ar
    45    45    44    1
    46    46    27   ar
    47    47    31   ar
    48    48    47    1
    49    49    47   ar
    50    50    30   ar
    51    51    50    1
    52    52    36   ar
    53    53    52    1
    54    54    55    1
    55    56    28   ar
    56    57    56    1
    57    58    46   ar
    58    59    58    1
    59    60    42   ar
    60    61    60    1
    61    62    40   ar
    62    63    62    1
    63    64    39   ar
    64    65    64    1
    65    66    49   ar
    66    67    66    1
    67    68    20    1
    68    69    68    1
    69    70    68    1
    70    71    68    1
    71    72    39   ar
    72    73    72    1
    73    74    44   ar
    74    75    74    1
    75    76    46   ar
    76    77    76    1
    77    78    19    1
    78    79    78    1
    79    80    78    1
    80    81    78    1
    81    24    27   ar
    82    28    33   ar
    83    29    32   ar
    84    37    52   ar
    85    50    66   ar
    86    54    56   ar
    87    54    72   ar
    88    58    60   ar
    89    62    76   ar
    90    64    74   ar
    91    82    83    1
    92    83    84    3
    93    85    86    1
    94    87    85    1
@<TRIPOS>SUBSTRUCTURE
     1 RES1        1 GROUP             0 ****  ****    0  
     2 RES2       13 GROUP             0 ****  ****    0  
     3 RES3       82 GROUP             0 ****  ****    0  
     4 RES4       85 GROUP             0 ****  ****    0  
@<TRIPOS>CRYSIN
   11.6428   12.5292   14.2611   83.9270   78.1770   89.3850     2     1
