@<TRIPOS>MOLECULE
OPEYAM29
    87    94     4     0     0
SMALL
USER_CHARGES
****
Generated from the CSD

@<TRIPOS>ATOM
     1 I1       0.2889   3.5619   5.2873   I         1 RES1   0.0000
     2 I2       5.2578   1.6816   8.2515   I         1 RES1   0.0000
     3 I3       2.0972   6.3352  10.3402   I         1 RES1   0.0000
     4 F1       2.8323   1.8241   6.1752   F         1 RES1   0.0000
     5 F2       0.4406   5.5439   7.7529   F         1 RES1   0.0000
     6 F3       4.3287   4.1519   9.9525   F         1 RES1   0.0000
     7 C1       3.6202   2.9569   8.0680   C.ar      1 RES1   0.0000
     8 C2       1.6137   3.6825   6.9210   C.ar      1 RES1   0.0000
     9 C3       2.3672   4.8598   8.9065   C.ar      1 RES1   0.0000
    10 C4       2.6843   2.8349   7.0676   C.ar      1 RES1   0.0000
    11 C5       1.4763   4.6844   7.8577   C.ar      1 RES1   0.0000
    12 C6       3.4403   3.9866   8.9632   C.ar      1 RES1   0.0000
    13 Fe1      8.4601   5.6945  10.9036   Fe        2 RES2   1.0000
    14 O1       9.6242   6.9683  10.1832   O.3       2 RES2   0.0000
    15 O2       9.6664   5.2043  12.2559   O.3       2 RES2   0.0000
    16 O3      13.9283   1.6979  12.1809   O.3       2 RES2   0.0000
    17 N1       9.1548   4.4167   9.6142   N.2       2 RES2   0.0000
    18 O4      10.7960  12.0913  11.8412   O.3       2 RES2   0.0000
    19 N2       7.6548   6.9274  12.1611   N.2       2 RES2   0.0000
    20 N3       7.1188   4.4468  11.6661   N.ar      2 RES2   0.0000
    21 N4       7.1565   6.0704   9.4435   N.ar      2 RES2   0.0000
    22 C7      10.2043   3.6771   9.7865   C.2       2 RES2   0.0000
    23 H1      10.4720   3.1356   9.0669   H         2 RES2   0.0000
    24 C8       6.5119   6.4139  12.8374   C.ar      2 RES2   0.0000
    25 C9       8.1287   8.1060  12.4694   C.2       2 RES2   0.0000
    26 H2       7.7281   8.5645  13.1853   H         2 RES2   0.0000
    27 C10      8.4290   4.3716   8.3945   C.ar      2 RES2   0.0000
    28 C11     10.9827   3.6155  10.9695   C.ar      2 RES2   0.0000
    29 C12      9.8917   8.1438  10.7052   C.ar      2 RES2   0.0000
    30 C13      6.2830   5.0521  12.5648   C.ar      2 RES2   0.0000
    31 C14     10.6794   4.3690  12.1304   C.ar      2 RES2   0.0000
    32 C15      9.2080   8.7422  11.7941   C.ar      2 RES2   0.0000
    33 C16      7.3571   5.2854   8.3350   C.ar      2 RES2   0.0000
    34 C17     12.0812   2.7136  10.9667   C.ar      2 RES2   0.0000
    35 H3      12.2703   2.2154  10.1919   H         2 RES2   0.0000
    36 C18     10.4716  10.7900  11.5562   C.ar      2 RES2   0.0000
    37 C19     12.8670   2.5599  12.0764   C.ar      2 RES2   0.0000
    38 C20     10.9136   8.9190  10.0909   C.ar      2 RES2   0.0000
    39 H4      11.4133   8.5486   9.3855   H         2 RES2   0.0000
    40 C21     11.5310   4.1852  13.2483   C.ar      2 RES2   0.0000
    41 H5      11.3673   4.6771  14.0325   H         2 RES2   0.0000
    42 C22      9.5138  10.0635  12.2092   C.ar      2 RES2   0.0000
    43 H6       9.0566  10.4419  12.9383   H         2 RES2   0.0000
    44 C23      6.1778   6.9537   9.4226   C.ar      2 RES2   0.0000
    45 H7       6.0337   7.4890  10.1810   H         2 RES2   0.0000
    46 C24      6.5560   5.3909   7.1797   C.ar      2 RES2   0.0000
    47 C25      6.9594   3.1588  11.4123   C.ar      2 RES2   0.0000
    48 H8       7.5353   2.7402  10.7978   H         2 RES2   0.0000
    49 C26      5.6619   7.0976  13.6814   C.ar      2 RES2   0.0000
    50 H9       5.7958   8.0116  13.8535   H         2 RES2   0.0000
    51 C27      5.2207   4.3546  13.1875   C.ar      2 RES2   0.0000
    52 C28      8.6640   3.5429   7.3291   C.ar      2 RES2   0.0000
    53 H10      9.3591   2.9116   7.3696   H         2 RES2   0.0000
    54 C29     11.1835  10.2012  10.5101   C.ar      2 RES2   0.0000
    55 H11     11.8613  10.6921  10.0824   H         2 RES2   0.0000
    56 C30      5.5238   6.3644   7.1922   C.ar      2 RES2   0.0000
    57 H12      4.9727   6.4822   6.4396   H         2 RES2   0.0000
    58 C31      7.8636   3.6370   6.1724   C.ar      2 RES2   0.0000
    59 H13      8.0335   3.0690   5.4437   H         2 RES2   0.0000
    60 C32     12.5778   3.3165  13.2207   C.ar      2 RES2   0.0000
    61 H14     13.1176   3.2223  13.9836   H         2 RES2   0.0000
    62 C33      4.3686   5.0817  14.0675   C.ar      2 RES2   0.0000
    63 H15      3.6555   4.6494  14.5007   H         2 RES2   0.0000
    64 C34      6.8491   4.5406   6.0977   C.ar      2 RES2   0.0000
    65 H16      6.3365   4.5976   5.3116   H         2 RES2   0.0000
    66 C35      5.0890   2.9799  12.8997   C.ar      2 RES2   0.0000
    67 H17      4.4083   2.4741  13.3051   H         2 RES2   0.0000
    68 C36      9.9057  12.8035  12.6977   C.3       2 RES2   0.0000
    69 H18      9.0149  12.7994  12.3130   H         2 RES2   0.0000
    70 H19     10.2119  13.7180  12.7951   H         2 RES2   0.0000
    71 H20      9.8829  12.3752  13.5683   H         2 RES2   0.0000
    72 C37      5.3415   7.1222   8.3004   C.ar      2 RES2   0.0000
    73 H21      4.6542   7.7629   8.3221   H         2 RES2   0.0000
    74 C38      5.9488   2.3932  12.0349   C.ar      2 RES2   0.0000
    75 H22      5.8736   1.4744  11.8484   H         2 RES2   0.0000
    76 C39      4.5956   6.4147  14.2792   C.ar      2 RES2   0.0000
    77 H23      4.0150   6.8884  14.8453   H         2 RES2   0.0000
    78 C40     14.1206   0.7926  11.1175   C.3       2 RES2   0.0000
    79 H24     14.2947   1.2851  10.3007   H         2 RES2   0.0000
    80 H25     13.3241   0.2511  11.0063   H         2 RES2   0.0000
    81 H26     14.8772   0.2178  11.3160   H         2 RES2   0.0000
    82 S1       4.5565  -2.5542  11.2188   S.2       3 RES3  -1.0000
    83 N5       6.6003  -0.6944  10.7744   N.1       3 RES3   0.0000
    84 C41      5.7503  -1.4599  10.9473   C.1       3 RES3   0.0000
    85 O5       8.5146   0.8486   9.3963   O.3       4 RES4   0.0000
    86 H27      9.2439   0.4138   9.3434   H         4 RES4   0.0000
    87 H28      8.1189   0.8300   8.6449   H         4 RES4   0.0000
@<TRIPOS>BOND
     1     1     8    1
     2     2     7    1
     3     3     9    1
     4     4    10    1
     5     5    11    1
     6     6    12    1
     7     7    10   ar
     8     8    10   ar
     9     9    11   ar
    10    11     8   ar
    11    12     7   ar
    12     9    12   ar
    13    13    14    1
    14    14    29    1
    15    15    13    1
    16    16    37    1
    17    17    13    1
    18    18    36    1
    19    19    13    1
    20    20    13    1
    21    21    13    1
    22    22    17    2
    23    23    22    1
    24    24    19    1
    25    25    19    2
    26    26    25    1
    27    27    17    1
    28    28    22    1
    29    29    32   ar
    30    30    20   ar
    31    31    15    1
    32    32    25    1
    33    33    21   ar
    34    34    28   ar
    35    35    34    1
    36    36    42   ar
    37    37    34   ar
    38    38    29   ar
    39    39    38    1
    40    40    31   ar
    41    41    40    1
    42    42    32   ar
    43    43    42    1
    44    44    21   ar
    45    45    44    1
    46    46    33   ar
    47    47    20   ar
    48    48    47    1
    49    49    24   ar
    50    50    49    1
    51    51    30   ar
    52    52    27   ar
    53    53    52    1
    54    54    36   ar
    55    55    54    1
    56    56    46   ar
    57    57    56    1
    58    58    52   ar
    59    59    58    1
    60    60    37   ar
    61    61    60    1
    62    62    51   ar
    63    63    62    1
    64    64    46   ar
    65    65    64    1
    66    66    51   ar
    67    67    66    1
    68    68    18    1
    69    69    68    1
    70    70    68    1
    71    71    68    1
    72    72    44   ar
    73    73    72    1
    74    74    47   ar
    75    75    74    1
    76    76    49   ar
    77    77    76    1
    78    78    16    1
    79    79    78    1
    80    80    78    1
    81    81    78    1
    82    24    30   ar
    83    27    33   ar
    84    28    31   ar
    85    38    54   ar
    86    40    60   ar
    87    56    72   ar
    88    58    64   ar
    89    62    76   ar
    90    66    74   ar
    91    82    84    1
    92    83    84    3
    93    85    86    1
    94    87    85    1
@<TRIPOS>SUBSTRUCTURE
     1 RES1        1 GROUP             0 ****  ****    0  
     2 RES2       13 GROUP             0 ****  ****    0  
     3 RES3       82 GROUP             0 ****  ****    0  
     4 RES4       85 GROUP             0 ****  ****    0  
@<TRIPOS>CRYSIN
   11.7027   12.3866   14.2358   83.8570   77.8220   89.1940     2     1
