@<TRIPOS>MOLECULE
OPEYAM12
    87    94     4     0     0
SMALL
USER_CHARGES
****
Generated from the CSD

@<TRIPOS>ATOM
     1 I1      14.6237  10.3291   8.5176   I         1 RES1   0.0000
     2 I2       9.6549  12.2156   5.5558   I         1 RES1   0.0000
     3 I3      12.7803   7.5277   3.4909   I         1 RES1   0.0000
     4 F1      12.0783  12.0626   7.6306   F         1 RES1   0.0000
     5 F2      14.4473   8.3290   6.0685   F         1 RES1   0.0000
     6 F3      10.5545   9.7182   3.8806   F         1 RES1   0.0000
     7 C1      12.5136   9.0081   4.9235   C.ar      1 RES1   0.0000
     8 C2      13.2844  10.1943   6.8976   C.ar      1 RES1   0.0000
     9 C3      12.2099  11.0586   6.7514   C.ar      1 RES1   0.0000
    10 C4      11.4482   9.8860   4.8559   C.ar      1 RES1   0.0000
    11 C5      13.4139   9.1876   5.9609   C.ar      1 RES1   0.0000
    12 C6      11.2743  10.9225   5.7485   C.ar      1 RES1   0.0000
    13 Fe1      6.4281   8.1774   2.9217   Fe        2 RES2   1.0000
    14 O1       5.2197   8.6673   1.5703   O.3       2 RES2   0.0000
    15 O2       5.2562   6.9104   3.6418   O.3       2 RES2   0.0000
    16 O3       0.9461  12.1601   1.6609   O.3       2 RES2   0.0000
    17 N1       5.7375   9.4600   4.2122   N.2       2 RES2   0.0000
    18 O4       4.0916   1.7741   2.0058   O.3       2 RES2   0.0000
    19 N2       7.7281   7.8009   4.3814   N.ar      2 RES2   0.0000
    20 N3       7.7725   9.4200   2.1562   N.ar      2 RES2   0.0000
    21 N4       7.2332   6.9393   1.6651   N.2       2 RES2   0.0000
    22 C7       4.2055   9.4960   1.6982   C.ar      2 RES2   0.0000
    23 C8       4.6818  10.1910   4.0475   C.2       2 RES2   0.0000
    24 H1       4.4125  10.7291   4.7693   H         2 RES2   0.0000
    25 C9       6.4759   9.5150   5.4243   C.ar      2 RES2   0.0000
    26 C10      5.6792   5.1312   2.0445   C.ar      2 RES2   0.0000
    27 C11      3.8944  10.2466   2.8625   C.ar      2 RES2   0.0000
    28 C12      3.3552   9.6806   0.5822   C.ar      2 RES2   0.0000
    29 H2       3.5242   9.1944  -0.2040   H         2 RES2   0.0000
    30 C13      8.3738   7.4492   0.9974   C.ar      2 RES2   0.0000
    31 C14      6.7590   5.7604   1.3699   C.2       2 RES2   0.0000
    32 H3       7.1614   5.2938   0.6602   H         2 RES2   0.0000
    33 C15      7.5386   8.5934   5.4767   C.ar      2 RES2   0.0000
    34 C16      8.6115   8.8091   1.2609   C.ar      2 RES2   0.0000
    35 C17      2.7972  11.1461   2.8680   C.ar      2 RES2   0.0000
    36 H4       2.6108  11.6459   3.6429   H         2 RES2   0.0000
    37 C18      4.9912   5.7269   3.1288   C.ar      2 RES2   0.0000
    38 C19      2.0068  11.2981   1.7603   C.ar      2 RES2   0.0000
    39 C20      8.6999   6.9067   4.4021   C.ar      2 RES2   0.0000
    40 H5       8.8322   6.3618   3.6487   H         2 RES2   0.0000
    41 C21      5.3728   3.8109   1.6347   C.ar      2 RES2   0.0000
    42 H6       5.8354   3.4287   0.9110   H         2 RES2   0.0000
    43 C22      8.3463   8.4927   6.6341   C.ar      2 RES2   0.0000
    44 C23      2.2969  10.5456   0.6125   C.ar      2 RES2   0.0000
    45 H7       1.7543  10.6369  -0.1488   H         2 RES2   0.0000
    46 C24      3.6944   3.6809   3.3260   C.ar      2 RES2   0.0000
    47 H8       3.0145   3.1928   3.7544   H         2 RES2   0.0000
    48 C25      4.4101   3.0860   2.2831   C.ar      2 RES2   0.0000
    49 C26      6.2467  10.3484   6.4851   C.ar      2 RES2   0.0000
    50 H9       5.5495  10.9783   6.4458   H         2 RES2   0.0000
    51 C27      9.6693   9.5009   0.6373   C.ar      2 RES2   0.0000
    52 C28     10.5243   8.7729  -0.2304   C.ar      2 RES2   0.0000
    53 H10     11.2428   9.2032  -0.6576   H         2 RES2   0.0000
    54 C29      7.9392  10.7114   2.4045   C.ar      2 RES2   0.0000
    55 H11      7.3648  11.1324   3.0184   H         2 RES2   0.0000
    56 C30      3.9646   4.9630   3.7385   C.ar      2 RES2   0.0000
    57 H12      3.4609   5.3405   4.4373   H         2 RES2   0.0000
    58 C31      7.0513  10.2639   7.6329   C.ar      2 RES2   0.0000
    59 H13      6.8870  10.8405   8.3568   H         2 RES2   0.0000
    60 C32      9.2266   6.7624   0.1545   C.ar      2 RES2   0.0000
    61 H14      9.0899   5.8484  -0.0159   H         2 RES2   0.0000
    62 C33      9.8077  10.8800   0.9174   C.ar      2 RES2   0.0000
    63 H15     10.4907  11.3806   0.5105   H         2 RES2   0.0000
    64 C34      9.3684   7.5162   6.6272   C.ar      2 RES2   0.0000
    65 H16      9.9203   7.4013   7.3802   H         2 RES2   0.0000
    66 C35      8.9412  11.4753   1.7837   C.ar      2 RES2   0.0000
    67 H17      9.0140  12.3950   1.9653   H         2 RES2   0.0000
    68 C36      8.0689   9.3554   7.7143   C.ar      2 RES2   0.0000
    69 H18      8.5891   9.3053   8.4960   H         2 RES2   0.0000
    70 C37     10.2980   7.4384  -0.4428   C.ar      2 RES2   0.0000
    71 H19     10.8796   6.9617  -1.0061   H         2 RES2   0.0000
    72 C38      9.5464   6.7435   5.5209   C.ar      2 RES2   0.0000
    73 H20     10.2328   6.1021   5.5010   H         2 RES2   0.0000
    74 C39      4.9809   1.0640   1.1547   C.3       2 RES2   0.0000
    75 H21      5.0032   1.4890   0.2826   H         2 RES2   0.0000
    76 H22      4.6741   0.1481   1.0590   H         2 RES2   0.0000
    77 H23      5.8705   1.0684   1.5395   H         2 RES2   0.0000
    78 C40      0.7584  13.0780   2.7135   C.3       2 RES2   0.0000
    79 H24     -0.0067  13.6414   2.5195   H         2 RES2   0.0000
    80 H25      1.5510  13.6290   2.8071   H         2 RES2   0.0000
    81 H26      0.6020  12.5941   3.5403   H         2 RES2   0.0000
    82 S1      10.3124  16.4038   2.6214   S.2       3 RES3  -1.0000
    83 N5       8.2873  14.5271   3.0791   N.1       3 RES3   0.0000
    84 C41      9.1317  15.2966   2.8929   C.1       3 RES3   0.0000
    85 O5       6.3494  13.0107   4.4352   O.3       4 RES4   0.0000
    86 H27      5.7653  13.5097   4.8011   H         4 RES4   0.0000
    87 H28      6.8812  13.4885   3.9757   H         4 RES4   0.0000
@<TRIPOS>BOND
     1     1     8    1
     2     2    12    1
     3     3     7    1
     4     4     9    1
     5     5    11    1
     6     6    10    1
     7     7    10   ar
     8     8     9   ar
     9     9    12   ar
    10    10    12   ar
    11    11     7   ar
    12     8    11   ar
    13    13    14    1
    14    14    22    1
    15    15    13    1
    16    16    38    1
    17    17    13    1
    18    18    48    1
    19    19    13    1
    20    20    13    1
    21    21    13    1
    22    22    27   ar
    23    23    17    2
    24    24    23    1
    25    25    17    1
    26    26    31    1
    27    27    23    1
    28    28    22   ar
    29    29    28    1
    30    30    21    1
    31    31    21    2
    32    32    31    1
    33    33    19   ar
    34    34    20   ar
    35    35    27   ar
    36    36    35    1
    37    37    15    1
    38    38    35   ar
    39    39    19   ar
    40    40    39    1
    41    41    26   ar
    42    42    41    1
    43    43    33   ar
    44    44    28   ar
    45    45    44    1
    46    46    47    1
    47    48    41   ar
    48    49    25   ar
    49    50    49    1
    50    51    34   ar
    51    52    51   ar
    52    53    52    1
    53    54    20   ar
    54    55    54    1
    55    56    37   ar
    56    57    56    1
    57    58    49   ar
    58    59    58    1
    59    60    30   ar
    60    61    60    1
    61    62    51   ar
    62    63    62    1
    63    64    43   ar
    64    65    64    1
    65    66    54   ar
    66    67    66    1
    67    68    43   ar
    68    69    68    1
    69    70    52   ar
    70    71    70    1
    71    72    39   ar
    72    73    72    1
    73    74    18    1
    74    75    74    1
    75    76    74    1
    76    77    74    1
    77    78    16    1
    78    79    78    1
    79    80    78    1
    80    81    78    1
    81    25    33   ar
    82    26    37   ar
    83    30    34   ar
    84    38    44   ar
    85    46    48   ar
    86    46    56   ar
    87    58    68   ar
    88    60    70   ar
    89    62    66   ar
    90    64    72   ar
    91    82    84    1
    92    83    84    3
    93    85    86    1
    94    87    85    1
@<TRIPOS>SUBSTRUCTURE
     1 RES1        1 GROUP             0 ****  ****    0  
     2 RES2       13 GROUP             0 ****  ****    0  
     3 RES3       82 GROUP             0 ****  ****    0  
     4 RES4       85 GROUP             0 ****  ****    0  
@<TRIPOS>CRYSIN
   11.7185   12.3826   14.2020   83.7100   77.7400   89.2070     2     1
