@<TRIPOS>MOLECULE
OPEYAM25
    87    94     4     0     0
SMALL
USER_CHARGES
****
Generated from the CSD

@<TRIPOS>ATOM
     1 I1       6.1486   3.5503   5.2831   I         1 RES1   0.0000
     2 I2      11.1374   1.6863   8.2345   I         1 RES1   0.0000
     3 I3       7.9704   6.3400  10.3244   I         1 RES1   0.0000
     4 F1       8.7009   1.8167   6.1661   F         1 RES1   0.0000
     5 F2       6.3001   5.5353   7.7472   F         1 RES1   0.0000
     6 F3      10.2115   4.1574   9.9325   F         1 RES1   0.0000
     7 C1       7.4762   3.6776   6.9145   C.ar      1 RES1   0.0000
     8 C2       9.4974   2.9627   8.0522   C.ar      1 RES1   0.0000
     9 C3       8.2395   4.8620   8.8930   C.ar      1 RES1   0.0000
    10 C4       8.5555   2.8233   7.0498   C.ar      1 RES1   0.0000
    11 C5       7.3422   4.6862   7.8506   C.ar      1 RES1   0.0000
    12 C6       9.3135   3.9888   8.9455   C.ar      1 RES1   0.0000
    13 Fe1     14.3272   5.6960  10.8777   Fe        2 RES2   1.0000
    14 O1      15.4963   6.9653  10.1526   O.3       2 RES2   0.0000
    15 O2      15.5364   5.2124  12.2320   O.3       2 RES2   0.0000
    16 O3      19.8044   1.7072  12.1568   O.3       2 RES2   0.0000
    17 O4      16.6754  12.0935  11.8104   O.3       2 RES2   0.0000
    18 N1      15.0222   4.4196   9.5904   N.2       2 RES2   0.0000
    19 N2      13.5251   6.9311  12.1365   N.2       2 RES2   0.0000
    20 N3      12.9915   4.4461  11.6404   N.ar      2 RES2   0.0000
    21 N4      13.0251   6.0724   9.4210   N.ar      2 RES2   0.0000
    22 C7      16.0737   3.6841   9.7614   C.2       2 RES2   0.0000
    23 H1      16.3443   3.1358   9.0338   H         2 RES2   0.0000
    24 C8      14.0051   8.1031  12.4469   C.2       2 RES2   0.0000
    25 H2      13.6079   8.5663  13.1757   H         2 RES2   0.0000
    26 C9      12.3832   6.4151  12.8059   C.ar      2 RES2   0.0000
    27 C10     14.2884   4.3735   8.3766   C.ar      2 RES2   0.0000
    28 C11     15.7636   8.1424  10.6741   C.ar      2 RES2   0.0000
    29 C12     15.0837   8.7355  11.7690   C.ar      2 RES2   0.0000
    30 C13     16.5508   4.3731  12.1086   C.ar      2 RES2   0.0000
    31 C14     12.1464   5.0563  12.5394   C.ar      2 RES2   0.0000
    32 C15     13.2232   5.2863   8.3131   C.ar      2 RES2   0.0000
    33 C16     17.9588   2.7239  10.9406   C.ar      2 RES2   0.0000
    34 H3      18.1516   2.2230  10.1572   H         2 RES2   0.0000
    35 C17     16.8584   3.6257  10.9475   C.ar      2 RES2   0.0000
    36 C18     18.7412   2.5722  12.0520   C.ar      2 RES2   0.0000
    37 C19     17.4022   4.2012  13.2270   C.ar      2 RES2   0.0000
    38 H4      17.2392   4.7045  14.0166   H         2 RES2   0.0000
    39 C20     16.7888   8.9145  10.0638   C.ar      2 RES2   0.0000
    40 H5      17.2942   8.5374   9.3529   H         2 RES2   0.0000
    41 C21     15.3958  10.0611  12.1846   C.ar      2 RES2   0.0000
    42 H6      14.9369  10.4450  12.9228   H         2 RES2   0.0000
    43 C22     16.3509  10.7851  11.5301   C.ar      2 RES2   0.0000
    44 C23     12.0443   6.9543   9.4039   C.ar      2 RES2   0.0000
    45 H7      11.9014   7.4957  10.1712   H         2 RES2   0.0000
    46 C24     12.4180   5.3944   7.1644   C.ar      2 RES2   0.0000
    47 C25     11.0920   4.3590  13.1662   C.ar      2 RES2   0.0000
    48 C26     11.5306   7.0997  13.6495   C.ar      2 RES2   0.0000
    49 H8      11.6682   8.0233  13.8240   H         2 RES2   0.0000
    50 C27     14.5254   3.5388   7.3107   C.ar      2 RES2   0.0000
    51 H9      15.2277   2.9009   7.3505   H         2 RES2   0.0000
    52 C28     17.0642  10.1932  10.4808   C.ar      2 RES2   0.0000
    53 H10     17.7527  10.6861  10.0494   H         2 RES2   0.0000
    54 C29     18.4549   3.3254  13.1980   C.ar      2 RES2   0.0000
    55 H11     19.0024   3.2279  13.9688   H         2 RES2   0.0000
    56 C30     12.8242   3.1574  11.3824   C.ar      2 RES2   0.0000
    57 H12     13.3995   2.7366  10.7550   H         2 RES2   0.0000
    58 C31     13.7229   3.6318   6.1592   C.ar      2 RES2   0.0000
    59 H13     13.8931   3.0542   5.4248   H         2 RES2   0.0000
    60 C32     10.2424   5.0800  14.0374   C.ar      2 RES2   0.0000
    61 H14      9.5238   4.6387  14.4761   H         2 RES2   0.0000
    62 C33     12.7011   4.5386   6.0750   C.ar      2 RES2   0.0000
    63 H15     12.1811   4.5934   5.2816   H         2 RES2   0.0000
    64 C34     11.8224   2.3907  12.0078   C.ar      2 RES2   0.0000
    65 H16     11.7487   1.4620  11.8222   H         2 RES2   0.0000
    66 C35     11.3823   6.3627   7.1685   C.ar      2 RES2   0.0000
    67 H17     10.8275   6.4814   6.4069   H         2 RES2   0.0000
    68 C36     10.9624   2.9805  12.8777   C.ar      2 RES2   0.0000
    69 H18     10.2770   2.4686  13.2908   H         2 RES2   0.0000
    70 C37     10.4587   6.4168  14.2487   C.ar      2 RES2   0.0000
    71 H19      9.8673   6.8953  14.8167   H         2 RES2   0.0000
    72 C38     11.2010   7.1201   8.2855   C.ar      2 RES2   0.0000
    73 H20     10.5020   7.7637   8.3112   H         2 RES2   0.0000
    74 C39     15.7829  12.8025  12.6623   C.3       2 RES2   0.0000
    75 H21     14.8855  12.8016  12.2682   H         2 RES2   0.0000
    76 H22     16.0937  13.7255  12.7660   H         2 RES2   0.0000
    77 H23     15.7545  12.3663  13.5397   H         2 RES2   0.0000
    78 C40     19.9973   0.8003  11.0869   C.3       2 RES2   0.0000
    79 H24     20.1327   1.3008  10.2548   H         2 RES2   0.0000
    80 H25     19.2066   0.2275  10.9974   H         2 RES2   0.0000
    81 H26     20.7842   0.2451  11.2658   H         2 RES2   0.0000
    82 S1       4.3100   4.0292   2.6156   S.2       3 RES3  -1.0000
    83 N5       2.2511   2.1822   3.0555   N.1       3 RES3   0.0000
    84 C41      3.1019   2.9471   2.8815   C.1       3 RES3   0.0000
    85 O5       0.3493   0.6303   4.4320   O.3       4 RES4   0.0000
    86 H27      0.6329   0.6574   5.2332   H         4 RES4   0.0000
    87 H28     -0.4038   1.0221   4.3856   H         4 RES4   0.0000
@<TRIPOS>BOND
     1     1     7    1
     2     2     8    1
     3     3     9    1
     4     4    10    1
     5     5    11    1
     6     6    12    1
     7     7    10   ar
     8     8    10   ar
     9     9    11   ar
    10    11     7   ar
    11    12     8   ar
    12     9    12   ar
    13    13    14    1
    14    14    28    1
    15    15    13    1
    16    16    36    1
    17    17    43    1
    18    18    13    1
    19    19    13    1
    20    20    13    1
    21    21    13    1
    22    22    18    2
    23    23    22    1
    24    24    19    2
    25    25    24    1
    26    26    19    1
    27    27    18    1
    28    28    29   ar
    29    29    24    1
    30    30    15    1
    31    31    20   ar
    32    32    21   ar
    33    33    34    1
    34    35    22    1
    35    36    33   ar
    36    37    30   ar
    37    38    37    1
    38    39    28   ar
    39    40    39    1
    40    41    29   ar
    41    42    41    1
    42    43    41   ar
    43    44    21   ar
    44    45    44    1
    45    46    32   ar
    46    47    31   ar
    47    48    26   ar
    48    49    48    1
    49    50    27   ar
    50    51    50    1
    51    52    39   ar
    52    53    52    1
    53    54    36   ar
    54    55    54    1
    55    56    20   ar
    56    57    56    1
    57    58    50   ar
    58    59    58    1
    59    60    47   ar
    60    61    60    1
    61    62    46   ar
    62    63    62    1
    63    64    56   ar
    64    65    64    1
    65    66    46   ar
    66    67    66    1
    67    68    47   ar
    68    69    68    1
    69    70    48   ar
    70    71    70    1
    71    72    44   ar
    72    73    72    1
    73    74    17    1
    74    75    74    1
    75    76    74    1
    76    77    74    1
    77    78    16    1
    78    79    78    1
    79    80    78    1
    80    81    78    1
    81    26    31   ar
    82    27    32   ar
    83    30    35   ar
    84    33    35   ar
    85    37    54   ar
    86    43    52   ar
    87    58    62   ar
    88    60    70   ar
    89    64    68   ar
    90    66    72   ar
    91    82    84    1
    92    83    84    3
    93    85    86    1
    94    87    85    1
@<TRIPOS>SUBSTRUCTURE
     1 RES1        1 GROUP             0 ****  ****    0  
     2 RES2       13 GROUP             0 ****  ****    0  
     3 RES3       82 GROUP             0 ****  ****    0  
     4 RES4       85 GROUP             0 ****  ****    0  
@<TRIPOS>CRYSIN
   11.7001   12.3620   14.2129   83.7890   77.7150   89.1670     2     1
