@<TRIPOS>MOLECULE
OPEYAM35
    87    94     4     0     0
SMALL
USER_CHARGES
****
Generated from the CSD

@<TRIPOS>ATOM
     1 I1       0.2742   3.5789   5.2774   I         1 RES1   0.0000
     2 I2       5.2321   1.6809   8.2476   I         1 RES1   0.0000
     3 I3       2.1095   6.3689  10.3121   I         1 RES1   0.0000
     4 F1       2.8126   1.8428   6.1648   F         1 RES1   0.0000
     5 F2       0.4455   5.5750   7.7336   F         1 RES1   0.0000
     6 F3       4.3344   4.1759   9.9253   F         1 RES1   0.0000
     7 C1       2.3750   4.8885   8.8868   C.ar      1 RES1   0.0000
     8 C2       1.6028   3.7077   6.8981   C.ar      1 RES1   0.0000
     9 C3       3.6180   2.9752   8.0499   C.ar      1 RES1   0.0000
    10 C4       2.6787   2.8511   7.0500   C.ar      1 RES1   0.0000
    11 C5       1.4801   4.7105   7.8358   C.ar      1 RES1   0.0000
    12 C6       3.4443   4.0062   8.9392   C.ar      1 RES1   0.0000
    13 Fe1      8.4674   5.7224  10.8867   Fe        2 RES2   1.0000
    14 O1       9.6344   6.9929  10.1671   O.3       2 RES2   0.0000
    15 O2       9.6748   5.2246  12.2364   O.3       2 RES2   0.0000
    16 N1       9.1581   4.4387   9.5949   N.2       2 RES2   0.0000
    17 O3      13.9423   1.7282  12.1446   O.3       2 RES2   0.0000
    18 N2       7.6585   6.9653  12.1404   N.2       2 RES2   0.0000
    19 O4      10.7948  12.1291  11.8048   O.3       2 RES2   0.0000
    20 N3       7.1664   6.0955   9.4226   N.ar      2 RES2   0.0000
    21 N4       7.1182   4.4775  11.6529   N.ar      2 RES2   0.0000
    22 C7      10.2091   3.7026   9.7596   C.2       2 RES2   0.0000
    23 H1      10.4756   3.1613   9.0383   H         2 RES2   0.0000
    24 C8       8.1258   8.1393  12.4415   C.2       2 RES2   0.0000
    25 H2       7.7234   8.5996  13.1553   H         2 RES2   0.0000
    26 C9       9.8947   8.1752  10.6807   C.ar      2 RES2   0.0000
    27 C10     10.6871   4.3945  12.1087   C.ar      2 RES2   0.0000
    28 C11      6.2787   5.0927  12.5506   C.ar      2 RES2   0.0000
    29 C12      6.5193   6.4537  12.8157   C.ar      2 RES2   0.0000
    30 C13      9.2040   8.7765  11.7689   C.ar      2 RES2   0.0000
    31 C14      7.3610   5.3031   8.3219   C.ar      2 RES2   0.0000
    32 C15      8.4172   4.3850   8.3758   C.ar      2 RES2   0.0000
    33 C16     12.8781   2.5931  12.0465   C.ar      2 RES2   0.0000
    34 C17     10.9956   3.6463  10.9472   C.ar      2 RES2   0.0000
    35 C18     12.0949   2.7425  10.9389   C.ar      2 RES2   0.0000
    36 H3      12.2833   2.2448  10.1644   H         2 RES2   0.0000
    37 C19     11.5369   4.2062  13.2231   C.ar      2 RES2   0.0000
    38 H4      11.3697   4.6941  14.0091   H         2 RES2   0.0000
    39 C20      6.1926   6.9872   9.3991   C.ar      2 RES2   0.0000
    40 H5       6.0570   7.5285  10.1546   H         2 RES2   0.0000
    41 C21     10.4690  10.8207  11.5217   C.ar      2 RES2   0.0000
    42 C22     10.9219   8.9435  10.0730   C.ar      2 RES2   0.0000
    43 H6      11.4284   8.5682   9.3749   H         2 RES2   0.0000
    44 C23      5.2177   4.3989  13.1706   C.ar      2 RES2   0.0000
    45 C24      9.5091  10.0973  12.1777   C.ar      2 RES2   0.0000
    46 H7       9.0495  10.4803  12.9030   H         2 RES2   0.0000
    47 C25      6.5520   5.4085   7.1633   C.ar      2 RES2   0.0000
    48 C26      5.6585   7.1362  13.6485   C.ar      2 RES2   0.0000
    49 H8       5.7875   8.0539  13.8091   H         2 RES2   0.0000
    50 C27      8.6474   3.5526   7.3179   C.ar      2 RES2   0.0000
    51 H9       9.3456   2.9238   7.3592   H         2 RES2   0.0000
    52 C28      6.9529   3.1837  11.4016   C.ar      2 RES2   0.0000
    53 H10      7.5251   2.7615  10.7876   H         2 RES2   0.0000
    54 C29      7.8435   3.6341   6.1676   C.ar      2 RES2   0.0000
    55 H11      8.0056   3.0554   5.4442   H         2 RES2   0.0000
    56 C30     11.1866  10.2240  10.4874   C.ar      2 RES2   0.0000
    57 H12     11.8696  10.7110  10.0634   H         2 RES2   0.0000
    58 C31     12.5953   3.3401  13.1969   C.ar      2 RES2   0.0000
    59 H13     13.1388   3.2457  13.9578   H         2 RES2   0.0000
    60 C32      4.3735   5.1306  14.0448   C.ar      2 RES2   0.0000
    61 H14      3.6610   4.6982  14.4791   H         2 RES2   0.0000
    62 C33      6.8290   4.5459   6.0902   C.ar      2 RES2   0.0000
    63 H15      6.3094   4.5964   5.3083   H         2 RES2   0.0000
    64 C34      5.5308   6.3859   7.1757   C.ar      2 RES2   0.0000
    65 H16      4.9802   6.5031   6.4227   H         2 RES2   0.0000
    66 C35      5.3504   7.1568   8.2833   C.ar      2 RES2   0.0000
    67 H17      4.6649   7.7999   8.3035   H         2 RES2   0.0000
    68 C36      5.0802   3.0238  12.8903   C.ar      2 RES2   0.0000
    69 H18      4.3954   2.5236  13.2960   H         2 RES2   0.0000
    70 C37      4.5918   6.4598  14.2575   C.ar      2 RES2   0.0000
    71 H19      4.0133   6.9341  14.8262   H         2 RES2   0.0000
    72 C38      5.9485   2.4273  12.0272   C.ar      2 RES2   0.0000
    73 H20      5.8759   1.5071  11.8489   H         2 RES2   0.0000
    74 C39     14.1268   0.8083  11.0922   C.3       2 RES2   0.0000
    75 H21     14.2813   1.2898  10.2649   H         2 RES2   0.0000
    76 H22     13.3343   0.2564  11.0026   H         2 RES2   0.0000
    77 H23     14.8925   0.2451  11.2867   H         2 RES2   0.0000
    78 C40      9.8995  12.8390  12.6500   C.3       2 RES2   0.0000
    79 H24      9.0136  12.8416  12.2546   H         2 RES2   0.0000
    80 H25     10.2087  13.7530  12.7546   H         2 RES2   0.0000
    81 H26      9.8640  12.4093  13.5191   H         2 RES2   0.0000
    82 S1       4.5928  -2.5223  11.1878   S.2       3 RES3  -1.0000
    83 N5       6.5954  -0.6314  10.7194   N.1       3 RES3   0.0000
    84 C41      5.7535  -1.4173  10.9168   C.1       3 RES3   0.0000
    85 O5       8.5442   0.8764   9.3646   O.3       4 RES4   0.0000
    86 H27      9.1555   0.4079   9.0051   H         4 RES4   0.0000
    87 H28      8.0334   0.3736   9.8216   H         4 RES4   0.0000
@<TRIPOS>BOND
     1     1     8    1
     2     2     9    1
     3     3     7    1
     4     4    10    1
     5     5    11    1
     6     6    12    1
     7     7    11   ar
     8     8    10   ar
     9     9    10   ar
    10    11     8   ar
    11    12     7   ar
    12     9    12   ar
    13    13    14    1
    14    14    26    1
    15    15    13    1
    16    16    13    1
    17    17    33    1
    18    18    13    1
    19    19    41    1
    20    20    13    1
    21    21    13    1
    22    22    16    2
    23    23    22    1
    24    24    18    2
    25    25    24    1
    26    26    30   ar
    27    27    15    1
    28    28    21   ar
    29    29    18    1
    30    30    24    1
    31    31    20   ar
    32    32    16    1
    33    33    35   ar
    34    34    22    1
    35    35    34   ar
    36    36    35    1
    37    37    27   ar
    38    38    37    1
    39    39    20   ar
    40    40    39    1
    41    41    45   ar
    42    42    26   ar
    43    43    42    1
    44    44    28   ar
    45    45    30   ar
    46    46    45    1
    47    47    31   ar
    48    48    29   ar
    49    49    48    1
    50    50    32   ar
    51    51    50    1
    52    52    21   ar
    53    53    52    1
    54    54    50   ar
    55    55    54    1
    56    56    41   ar
    57    57    56    1
    58    58    33   ar
    59    59    58    1
    60    60    44   ar
    61    61    60    1
    62    62    47   ar
    63    63    62    1
    64    64    47   ar
    65    65    64    1
    66    66    39   ar
    67    67    66    1
    68    68    44   ar
    69    69    68    1
    70    70    48   ar
    71    71    70    1
    72    72    52   ar
    73    73    72    1
    74    74    17    1
    75    75    74    1
    76    76    74    1
    77    77    74    1
    78    78    19    1
    79    79    78    1
    80    80    78    1
    81    81    78    1
    82    27    34   ar
    83    28    29   ar
    84    31    32   ar
    85    37    58   ar
    86    42    56   ar
    87    54    62   ar
    88    60    70   ar
    89    64    66   ar
    90    68    72   ar
    91    82    84    1
    92    83    84    3
    93    85    86    1
    94    87    85    1
@<TRIPOS>SUBSTRUCTURE
     1 RES1        1 GROUP             0 ****  ****    0  
     2 RES2       13 GROUP             0 ****  ****    0  
     3 RES3       82 GROUP             0 ****  ****    0  
     4 RES4       85 GROUP             0 ****  ****    0  
@<TRIPOS>CRYSIN
   11.7164   12.4037   14.2131   83.7470   77.8010   89.2370     2     1
