@<TRIPOS>MOLECULE
OPEYAM02
    87    94     4     0     0
SMALL
USER_CHARGES
****
Generated from the CSD

@<TRIPOS>ATOM
     1 I1      14.5272  10.3290   8.5915   I         1 RES1   0.0000
     2 I2       9.5945  12.2469   5.5998   I         1 RES1   0.0000
     3 I3      12.7406   7.5862   3.5164   I         1 RES1   0.0000
     4 F1      11.9987  12.0778   7.6988   F         1 RES1   0.0000
     5 F2      14.3819   8.3607   6.1178   F         1 RES1   0.0000
     6 F3      10.5183   9.7774   3.8973   F         1 RES1   0.0000
     7 C1      12.4719   9.0553   4.9597   C.ar      1 RES1   0.0000
     8 C2      11.2225  10.9575   5.7919   C.ar      1 RES1   0.0000
     9 C3      13.2140  10.2195   6.9513   C.ar      1 RES1   0.0000
    10 C4      12.1452  11.0760   6.8002   C.ar      1 RES1   0.0000
    11 C5      13.3510   9.2186   6.0027   C.ar      1 RES1   0.0000
    12 C6      11.4005   9.9353   4.8890   C.ar      1 RES1   0.0000
    13 Fe1      6.3676   8.2156   2.9338   Fe        2 RES2   1.0000
    14 O1       5.1581   8.7284   1.5941   O.3       2 RES2   0.0000
    15 O2       5.2181   6.9206   3.6417   O.3       2 RES2   0.0000
    16 N1       5.6765   9.5139   4.2327   N.2       2 RES2   0.0000
    17 N2       7.1959   6.9732   1.6754   N.2       2 RES2   0.0000
    18 O3       0.9341  12.2774   1.6657   O.3       2 RES2   0.0000
    19 N3       7.7332   9.4618   2.1604   N.ar      2 RES2   0.0000
    20 O4       4.0835   1.7896   1.9875   O.3       2 RES2   0.0000
    21 N4       7.6738   7.8523   4.4202   N.ar      2 RES2   0.0000
    22 C7       4.6390  10.2572   4.0596   C.2       2 RES2   0.0000
    23 H1       4.3803  10.7945   4.7742   H         2 RES2   0.0000
    24 C8       8.3365   7.4891   0.9944   C.ar      2 RES2   0.0000
    25 C9       6.7386   5.7964   1.3703   C.2       2 RES2   0.0000
    26 H2       7.1416   5.3450   0.6644   H         2 RES2   0.0000
    27 C10      8.5745   8.8470   1.2677   C.ar      2 RES2   0.0000
    28 C11      6.4051   9.5596   5.4590   C.ar      2 RES2   0.0000
    29 C12      4.1545   9.5762   1.7129   C.ar      2 RES2   0.0000
    30 C13      3.8528  10.3329   2.8737   C.ar      2 RES2   0.0000
    31 C14      7.4651   8.6409   5.5172   C.ar      2 RES2   0.0000
    32 C15      5.6630   5.1496   2.0402   C.ar      2 RES2   0.0000
    33 C16      4.9630   5.7390   3.1275   C.ar      2 RES2   0.0000
    34 C17      2.7694  11.2463   2.8821   C.ar      2 RES2   0.0000
    35 H3       2.5873  11.7401   3.6486   H         2 RES2   0.0000
    36 C18      1.9852  11.4056   1.7670   C.ar      2 RES2   0.0000
    37 C19      3.3054   9.7705   0.5978   C.ar      2 RES2   0.0000
    38 H4       3.4652   9.2862  -0.1798   H         2 RES2   0.0000
    39 C20      4.4052   3.0952   2.2732   C.ar      2 RES2   0.0000
    40 C21      9.1878   6.8087   0.1526   C.ar      2 RES2   0.0000
    41 H5       9.0570   5.9040  -0.0165   H         2 RES2   0.0000
    42 C22      7.8954  10.7567   2.4160   C.ar      2 RES2   0.0000
    43 H6       7.3292  11.1717   3.0252   H         2 RES2   0.0000
    44 C23      8.2704   8.5302   6.6795   C.ar      2 RES2   0.0000
    45 C24      5.3622   3.8299   1.6338   C.ar      2 RES2   0.0000
    46 H7       5.8242   3.4553   0.9192   H         2 RES2   0.0000
    47 C25      9.6321   9.5452   0.6477   C.ar      2 RES2   0.0000
    48 C26      8.6519   6.9659   4.4424   C.ar      2 RES2   0.0000
    49 H8       8.7959   6.4337   3.6931   H         2 RES2   0.0000
    50 C27      3.9397   4.9632   3.7323   C.ar      2 RES2   0.0000
    51 H9       3.4346   5.3289   4.4225   H         2 RES2   0.0000
    52 C28      6.1656  10.3822   6.5242   C.ar      2 RES2   0.0000
    53 H10      5.4773  11.0058   6.4813   H         2 RES2   0.0000
    54 C29      6.9548  10.2896   7.6809   C.ar      2 RES2   0.0000
    55 H11      6.7812  10.8492   8.4033   H         2 RES2   0.0000
    56 C30      2.2604  10.6452   0.6297   C.ar      2 RES2   0.0000
    57 H12      1.7197  10.7370  -0.1209   H         2 RES2   0.0000
    58 C31      3.6839   3.6884   3.3148   C.ar      2 RES2   0.0000
    59 H13      3.0133   3.2004   3.7358   H         2 RES2   0.0000
    60 C32      8.8992  11.5130   1.7919   C.ar      2 RES2   0.0000
    61 H14      8.9679  12.4239   1.9652   H         2 RES2   0.0000
    62 C33     10.4770   8.8220  -0.2330   C.ar      2 RES2   0.0000
    63 H15     11.1793   9.2525  -0.6644   H         2 RES2   0.0000
    64 C34      9.2951   7.5634   6.6726   C.ar      2 RES2   0.0000
    65 H16      9.8361   7.4470   7.4195   H         2 RES2   0.0000
    66 C35      7.9774   9.3850   7.7544   C.ar      2 RES2   0.0000
    67 H17      8.4875   9.3345   8.5305   H         2 RES2   0.0000
    68 C36      9.7624  10.9238   0.9403   C.ar      2 RES2   0.0000
    69 H18     10.4424  11.4220   0.5469   H         2 RES2   0.0000
    70 C37      4.9800   1.0855   1.1456   C.3       2 RES2   0.0000
    71 H19      5.0366   1.5292   0.2967   H         2 RES2   0.0000
    72 H20      4.6627   0.1888   1.0187   H         2 RES2   0.0000
    73 H21      5.8495   1.0625   1.5533   H         2 RES2   0.0000
    74 C38     10.2555   7.4966  -0.4466   C.ar      2 RES2   0.0000
    75 H22     10.8312   7.0300  -1.0089   H         2 RES2   0.0000
    76 C39      9.4845   6.8024   5.5658   C.ar      2 RES2   0.0000
    77 H23     10.1670   6.1701   5.5489   H         2 RES2   0.0000
    78 C40      0.7386  13.1796   2.7406   C.3       2 RES2   0.0000
    79 H24     -0.0137  13.7448   2.5496   H         2 RES2   0.0000
    80 H25      1.5243  13.7194   2.8519   H         2 RES2   0.0000
    81 H26      0.5718  12.6858   3.5462   H         2 RES2   0.0000
    82 S1      10.2248  16.5306   2.6188   S.2       3 RES3  -1.0000
    83 C41      9.0832  15.4016   2.8987   C.1       3 RES3   0.0000
    84 N5       8.2611  14.6032   3.0929   N.1       3 RES3   0.0000
    85 O5       6.2995  13.0901   4.4424   O.3       4 RES4   0.0000
    86 H27      6.8024  13.2365   5.1120   H         4 RES4   0.0000
    87 H28      5.5581  13.4918   4.5520   H         4 RES4   0.0000
@<TRIPOS>BOND
     1     1     9    1
     2     2     8    1
     3     3     7    1
     4     4    10    1
     5     5    11    1
     6     6    12    1
     7     7    11   ar
     8     8    10   ar
     9     9    10   ar
    10    11     9   ar
    11    12     7   ar
    12     8    12   ar
    13    13    14    1
    14    14    29    1
    15    15    13    1
    16    16    13    1
    17    17    13    1
    18    18    36    1
    19    19    13    1
    20    20    39    1
    21    21    13    1
    22    22    16    2
    23    23    22    1
    24    24    17    1
    25    25    17    2
    26    26    25    1
    27    27    19   ar
    28    28    16    1
    29    29    30   ar
    30    30    22    1
    31    31    21   ar
    32    32    25    1
    33    33    15    1
    34    34    30   ar
    35    35    34    1
    36    36    34   ar
    37    37    29   ar
    38    38    37    1
    39    39    45   ar
    40    40    24   ar
    41    41    40    1
    42    42    19   ar
    43    43    42    1
    44    44    31   ar
    45    45    32   ar
    46    46    45    1
    47    47    27   ar
    48    48    21   ar
    49    49    48    1
    50    50    33   ar
    51    51    50    1
    52    52    28   ar
    53    53    52    1
    54    54    52   ar
    55    55    54    1
    56    56    36   ar
    57    57    56    1
    58    58    39   ar
    59    59    58    1
    60    60    42   ar
    61    61    60    1
    62    62    47   ar
    63    63    62    1
    64    64    44   ar
    65    65    64    1
    66    66    44   ar
    67    67    66    1
    68    68    47   ar
    69    69    68    1
    70    70    20    1
    71    71    70    1
    72    72    70    1
    73    73    70    1
    74    74    40   ar
    75    75    74    1
    76    76    48   ar
    77    77    76    1
    78    78    18    1
    79    79    78    1
    80    80    78    1
    81    81    78    1
    82    24    27   ar
    83    28    31   ar
    84    32    33   ar
    85    37    56   ar
    86    50    58   ar
    87    54    66   ar
    88    60    68   ar
    89    62    74   ar
    90    64    76   ar
    91    82    83    1
    92    83    84    3
    93    85    86    1
    94    87    85    1
@<TRIPOS>SUBSTRUCTURE
     1 RES1        1 GROUP             0 ****  ****    0  
     2 RES2       13 GROUP             0 ****  ****    0  
     3 RES3       82 GROUP             0 ****  ****    0  
     4 RES4       85 GROUP             0 ****  ****    0  
@<TRIPOS>CRYSIN
   11.6757   12.4664   14.2575   83.9140   78.0330   89.2980     2     1
