@<TRIPOS>MOLECULE
OPEYAM21
    87    94     4     0     0
SMALL
USER_CHARGES
****
Generated from the CSD

@<TRIPOS>ATOM
     1 I1       6.1478   3.5419   5.2829   I         1 RES1   0.0000
     2 I2      11.1538   1.6873   8.2278   I         1 RES1   0.0000
     3 I3       7.9784   6.3404  10.3213   I         1 RES1   0.0000
     4 F1       8.7058   1.8104   6.1640   F         1 RES1   0.0000
     5 F2      10.2239   4.1596   9.9278   F         1 RES1   0.0000
     6 F3       6.3025   5.5299   7.7482   F         1 RES1   0.0000
     7 C1       8.2404   4.8557   8.8880   C.ar      1 RES1   0.0000
     8 C2       7.4807   3.6722   6.9126   C.ar      1 RES1   0.0000
     9 C3       8.5587   2.8191   7.0506   C.ar      1 RES1   0.0000
    10 C4       9.5082   2.9562   8.0535   C.ar      1 RES1   0.0000
    11 C5       7.3506   4.6698   7.8562   C.ar      1 RES1   0.0000
    12 C6       9.3248   3.9880   8.9487   C.ar      1 RES1   0.0000
    13 Fe1     14.3304   5.6945  10.8665   Fe        2 RES2   1.0000
    14 O1      15.4977   6.9629  10.1450   O.3       2 RES2   0.0000
    15 O2      15.5393   5.2137  12.2248   O.3       2 RES2   0.0000
    16 O3      19.8133   1.7057  12.1468   O.3       2 RES2   0.0000
    17 O4      16.6810  12.0956  11.7932   O.3       2 RES2   0.0000
    18 N1      13.0250   6.0660   9.4136   N.ar      2 RES2   0.0000
    19 N2      12.9936   4.4444  11.6318   N.ar      2 RES2   0.0000
    20 N3      15.0244   4.4131   9.5782   N.2       2 RES2   0.0000
    21 N4      13.5324   6.9302  12.1229   N.2       2 RES2   0.0000
    22 C7      14.0119   8.1033  12.4306   C.2       2 RES2   0.0000
    23 H1      13.6154   8.5629  13.1485   H         2 RES2   0.0000
    24 C8      16.0836   3.6822   9.7502   C.2       2 RES2   0.0000
    25 H2      16.3589   3.1458   9.0280   H         2 RES2   0.0000
    26 C9      14.2919   4.3642   8.3638   C.ar      2 RES2   0.0000
    27 C10     12.1519   5.0516  12.5285   C.ar      2 RES2   0.0000
    28 C11     15.7717   8.1450  10.6621   C.ar      2 RES2   0.0000
    29 C12     16.5595   4.3750  12.0967   C.ar      2 RES2   0.0000
    30 C13     17.4040   4.2002  13.2183   C.ar      2 RES2   0.0000
    31 H3      17.2360   4.6936  14.0006   H         2 RES2   0.0000
    32 C14     17.9649   2.7214  10.9338   C.ar      2 RES2   0.0000
    33 H4      18.1566   2.2238  10.1594   H         2 RES2   0.0000
    34 C15     12.3864   6.4182  12.7989   C.ar      2 RES2   0.0000
    35 C16     15.0918   8.7339  11.7546   C.ar      2 RES2   0.0000
    36 C17     18.7519   2.5692  12.0471   C.ar      2 RES2   0.0000
    37 C18     16.8578   3.6239  10.9324   C.ar      2 RES2   0.0000
    38 C19     12.0467   6.9516   9.3929   C.ar      2 RES2   0.0000
    39 H5      11.9103   7.4923  10.1497   H         2 RES2   0.0000
    40 C20     13.2226   5.2815   8.3045   C.ar      2 RES2   0.0000
    41 C21     16.3611  10.7903  11.5187   C.ar      2 RES2   0.0000
    42 C22     12.4117   5.3889   7.1540   C.ar      2 RES2   0.0000
    43 C23     16.8014   8.9174  10.0523   C.ar      2 RES2   0.0000
    44 H6      17.3069   8.5428   9.3532   H         2 RES2   0.0000
    45 C24     17.0657  10.1920  10.4648   C.ar      2 RES2   0.0000
    46 H7      17.7402  10.6821  10.0298   H         2 RES2   0.0000
    47 C25     18.4667   3.3279  13.1907   C.ar      2 RES2   0.0000
    48 H8      19.0104   3.2389  13.9517   H         2 RES2   0.0000
    49 C26     15.3983  10.0588  12.1754   C.ar      2 RES2   0.0000
    50 H9      14.9420  10.4353  12.9058   H         2 RES2   0.0000
    51 C27     11.1003   4.3577  13.1562   C.ar      2 RES2   0.0000
    52 C28     12.8327   3.1499  11.3780   C.ar      2 RES2   0.0000
    53 H10     13.4087   2.7315  10.7638   H         2 RES2   0.0000
    54 C29     13.7222   3.6294   6.1415   C.ar      2 RES2   0.0000
    55 H11     13.8956   3.0614   5.4128   H         2 RES2   0.0000
    56 C30     10.2469   5.0747  14.0294   C.ar      2 RES2   0.0000
    57 H12      9.5364   4.6369  14.4619   H         2 RES2   0.0000
    58 C31     11.5320   7.0969  13.6376   C.ar      2 RES2   0.0000
    59 H13     11.6632   8.0121  13.8064   H         2 RES2   0.0000
    60 C32     11.3822   6.3602   7.1609   C.ar      2 RES2   0.0000
    61 H14     10.8342   6.4794   6.4062   H         2 RES2   0.0000
    62 C33     14.5248   3.5335   7.2961   C.ar      2 RES2   0.0000
    63 H15     15.2181   2.8999   7.3353   H         2 RES2   0.0000
    64 C34     11.8280   2.3875  12.0002   C.ar      2 RES2   0.0000
    65 H16     11.7519   1.4697  11.8133   H         2 RES2   0.0000
    66 C35     10.9666   2.9772  12.8720   C.ar      2 RES2   0.0000
    67 H17     10.2881   2.4728  13.2814   H         2 RES2   0.0000
    68 C36     12.6955   4.5342   6.0587   C.ar      2 RES2   0.0000
    69 H18     12.1787   4.5873   5.2752   H         2 RES2   0.0000
    70 C37     11.1954   7.1192   8.2728   C.ar      2 RES2   0.0000
    71 H19     10.5020   7.7531   8.2990   H         2 RES2   0.0000
    72 C38     10.4643   6.4175  14.2391   C.ar      2 RES2   0.0000
    73 H20      9.8800   6.8916  14.8014   H         2 RES2   0.0000
    74 C39     15.7922  12.7979  12.6554   C.3       2 RES2   0.0000
    75 H21     14.9055  12.8134  12.2631   H         2 RES2   0.0000
    76 H22     16.1089  13.7075  12.7743   H         2 RES2   0.0000
    77 H23     15.7578  12.3529  13.5164   H         2 RES2   0.0000
    78 C40     20.0063   0.7960  11.0787   C.3       2 RES2   0.0000
    79 H24     20.1611   1.2883  10.2579   H         2 RES2   0.0000
    80 H25     19.2172   0.2409  10.9798   H         2 RES2   0.0000
    81 H26     20.7747   0.2338  11.2682   H         2 RES2   0.0000
    82 S1       4.3145   4.0284   2.6173   S.2       3 RES3  -1.0000
    83 N5       2.2390   2.1836   3.0335   N.1       3 RES3   0.0000
    84 C41      3.1005   2.9468   2.8749   C.1       3 RES3   0.0000
    85 O5       0.3729   0.6298   4.4544   O.3       4 RES4   0.0000
    86 H27      0.0746   1.1113   5.0880   H         4 RES4   0.0000
    87 H28     -0.2767   0.3368   3.9907   H         4 RES4   0.0000
@<TRIPOS>BOND
     1     1     8    1
     2     2    10    1
     3     3     7    1
     4     4     9    1
     5     5    12    1
     6     6    11    1
     7     7    11   ar
     8     8     9   ar
     9     9    10   ar
    10    10    12   ar
    11    11     8   ar
    12    12     7   ar
    13    13    14    1
    14    14    28    1
    15    15    13    1
    16    16    36    1
    17    17    41    1
    18    18    13    1
    19    19    13    1
    20    20    13    1
    21    21    13    1
    22    22    21    2
    23    23    22    1
    24    24    20    2
    25    25    24    1
    26    26    20    1
    27    27    19   ar
    28    28    35   ar
    29    29    15    1
    30    30    29   ar
    31    31    30    1
    32    32    33    1
    33    34    21    1
    34    35    22    1
    35    36    32   ar
    36    37    24    1
    37    38    18   ar
    38    39    38    1
    39    40    18   ar
    40    41    45   ar
    41    42    40   ar
    42    43    28   ar
    43    44    43    1
    44    45    43   ar
    45    46    45    1
    46    47    30   ar
    47    48    47    1
    48    49    35   ar
    49    50    49    1
    50    51    27   ar
    51    52    19   ar
    52    53    52    1
    53    54    55    1
    54    56    51   ar
    55    57    56    1
    56    58    34   ar
    57    59    58    1
    58    60    42   ar
    59    61    60    1
    60    62    26   ar
    61    63    62    1
    62    64    52   ar
    63    65    64    1
    64    66    51   ar
    65    67    66    1
    66    68    42   ar
    67    69    68    1
    68    70    38   ar
    69    71    70    1
    70    72    56   ar
    71    73    72    1
    72    74    17    1
    73    75    74    1
    74    76    74    1
    75    77    74    1
    76    78    16    1
    77    79    78    1
    78    80    78    1
    79    81    78    1
    80    26    40   ar
    81    27    34   ar
    82    29    37   ar
    83    32    37   ar
    84    36    47   ar
    85    41    49   ar
    86    54    62   ar
    87    54    68   ar
    88    58    72   ar
    89    60    70   ar
    90    64    66   ar
    91    82    84    1
    92    83    84    3
    93    85    86    1
    94    87    85    1
@<TRIPOS>SUBSTRUCTURE
     1 RES1        1 GROUP             0 ****  ****    0  
     2 RES2       13 GROUP             0 ****  ****    0  
     3 RES3       82 GROUP             0 ****  ****    0  
     4 RES4       85 GROUP             0 ****  ****    0  
@<TRIPOS>CRYSIN
   11.6917   12.3497   14.2037   83.7770   77.6630   89.1620     2     1
