@<TRIPOS>MOLECULE
OPEYAM32
    87    94     4     0     0
SMALL
USER_CHARGES
****
Generated from the CSD

@<TRIPOS>ATOM
     1 I1      14.5291  10.3581   8.5738   I         1 RES1   0.0000
     2 I2       9.6077  12.2969   5.5742   I         1 RES1   0.0000
     3 I3      12.7157   7.6030   3.5142   I         1 RES1   0.0000
     4 F1      12.0064  12.1136   7.6748   F         1 RES1   0.0000
     5 F2      14.3649   8.3760   6.1100   F         1 RES1   0.0000
     6 F3      10.5039   9.8027   3.8921   F         1 RES1   0.0000
     7 C1      12.4519   9.0747   4.9519   C.ar      1 RES1   0.0000
     8 C2      13.2080  10.2416   6.9429   C.ar      1 RES1   0.0000
     9 C3      11.3847   9.9628   4.8827   C.ar      1 RES1   0.0000
    10 C4      13.3395   9.2450   6.0021   C.ar      1 RES1   0.0000
    11 C5      12.1397  11.1090   6.7866   C.ar      1 RES1   0.0000
    12 C6      11.2115  10.9901   5.7848   C.ar      1 RES1   0.0000
    13 Fe1      6.3493   8.2364   2.9219   Fe        2 RES2   1.0000
    14 O1       5.1364   8.7630   1.5893   O.3       2 RES2   0.0000
    15 O2       5.2010   6.9403   3.6218   O.3       2 RES2   0.0000
    16 N1       5.6660   9.5482   4.2283   N.2       2 RES2   0.0000
    17 O3       0.9115  12.3067   1.6797   O.3       2 RES2   0.0000
    18 N2       7.1888   6.9851   1.6659   N.2       2 RES2   0.0000
    19 N3       7.7244   9.4802   2.1432   N.ar      2 RES2   0.0000
    20 N4       7.6524   7.8762   4.4178   N.ar      2 RES2   0.0000
    21 O4       4.0866   1.7985   1.9979   O.3       2 RES2   0.0000
    22 C7       4.6277  10.2944   4.0609   C.2       2 RES2   0.0000
    23 H1       4.3732  10.8345   4.7748   H         2 RES2   0.0000
    24 C8       4.1314   9.6032   1.7115   C.ar      2 RES2   0.0000
    25 C9       6.7405   5.8001   1.3711   C.2       2 RES2   0.0000
    26 H2       7.1507   5.3437   0.6724   H         2 RES2   0.0000
    27 C10      8.3271   7.4973   0.9879   C.ar      2 RES2   0.0000
    28 C11      6.3968   9.5964   5.4542   C.ar      2 RES2   0.0000
    29 C12      3.8323  10.3650   2.8710   C.ar      2 RES2   0.0000
    30 C13      4.9499   5.7525   3.1173   C.ar      2 RES2   0.0000
    31 C14      8.5657   8.8589   1.2535   C.ar      2 RES2   0.0000
    32 C15      5.6643   5.1539   2.0463   C.ar      2 RES2   0.0000
    33 C16      7.4627   8.6704   5.5081   C.ar      2 RES2   0.0000
    34 C17      3.2844   9.7999   0.6019   C.ar      2 RES2   0.0000
    35 H3       3.4407   9.3130  -0.1748   H         2 RES2   0.0000
    36 C18      2.7564  11.2735   2.8862   C.ar      2 RES2   0.0000
    37 H4       2.5795  11.7689   3.6529   H         2 RES2   0.0000
    38 C19      7.8948  10.7741   2.3936   C.ar      2 RES2   0.0000
    39 H5       7.3288  11.1929   3.0000   H         2 RES2   0.0000
    40 C20      9.6323   9.5513   0.6240   C.ar      2 RES2   0.0000
    41 C21      5.3688   3.8328   1.6368   C.ar      2 RES2   0.0000
    42 H6       5.8347   3.4562   0.9255   H         2 RES2   0.0000
    43 C22      1.9649  11.4334   1.7710   C.ar      2 RES2   0.0000
    44 C23      4.4028   3.1020   2.2802   C.ar      2 RES2   0.0000
    45 C24     10.4703   8.8195  -0.2477   C.ar      2 RES2   0.0000
    46 H7      11.1703   9.2483  -0.6856   H         2 RES2   0.0000
    47 C25      6.1678  10.4314   6.5057   C.ar      2 RES2   0.0000
    48 H8       5.4818  11.0579   6.4626   H         2 RES2   0.0000
    49 C26      8.2593   8.5726   6.6773   C.ar      2 RES2   0.0000
    50 C27      3.9197   4.9753   3.7136   C.ar      2 RES2   0.0000
    51 H9       3.3998   5.3471   4.3895   H         2 RES2   0.0000
    52 C28      8.6278   6.9848   4.4455   C.ar      2 RES2   0.0000
    53 H10      8.7686   6.4467   3.7005   H         2 RES2   0.0000
    54 C29      2.2420  10.6815   0.6337   C.ar      2 RES2   0.0000
    55 H11      1.7075  10.7816  -0.1210   H         2 RES2   0.0000
    56 C30      9.1812   6.8180   0.1508   C.ar      2 RES2   0.0000
    57 H12      9.0457   5.9132  -0.0184   H         2 RES2   0.0000
    58 C31     10.2575   7.4899  -0.4483   C.ar      2 RES2   0.0000
    59 H13     10.8393   7.0158  -0.9965   H         2 RES2   0.0000
    60 C32      3.6824   3.6901   3.3123   C.ar      2 RES2   0.0000
    61 H14      3.0215   3.1967   3.7414   H         2 RES2   0.0000
    62 C33      9.7680  10.9283   0.9159   C.ar      2 RES2   0.0000
    63 H15     10.4509  11.4215   0.5223   H         2 RES2   0.0000
    64 C34      8.9049  11.5320   1.7696   C.ar      2 RES2   0.0000
    65 H16      8.9795  12.4420   1.9428   H         2 RES2   0.0000
    66 C35      6.9651  10.3446   7.6499   C.ar      2 RES2   0.0000
    67 H17      6.7950  10.9128   8.3668   H         2 RES2   0.0000
    68 C36      9.2819   7.5997   6.6676   C.ar      2 RES2   0.0000
    69 H18      9.8305   7.4904   7.4096   H         2 RES2   0.0000
    70 C37      9.4576   6.8284   5.5704   C.ar      2 RES2   0.0000
    71 H19     10.1336   6.1892   5.5598   H         2 RES2   0.0000
    72 C38      7.9910   9.4413   7.7399   C.ar      2 RES2   0.0000
    73 H20      8.5117   9.4057   8.5100   H         2 RES2   0.0000
    74 C39      0.7331  13.2207   2.7340   C.3       2 RES2   0.0000
    75 H21     -0.0196  13.7863   2.5427   H         2 RES2   0.0000
    76 H22      1.5216  13.7595   2.8279   H         2 RES2   0.0000
    77 H23      0.5732  12.7410   3.5495   H         2 RES2   0.0000
    78 C40      4.9900   1.0846   1.1525   C.3       2 RES2   0.0000
    79 H24      5.0180   1.5018   0.2891   H         2 RES2   0.0000
    80 H25      4.6915   0.1764   1.0601   H         2 RES2   0.0000
    81 H26      5.8678   1.0940   1.5417   H         2 RES2   0.0000
    82 S1      10.1741  16.5608   2.6218   S.2       3 RES3  -1.0000
    83 C41      9.0694  15.4198   2.9014   C.1       3 RES3   0.0000
    84 N5       8.2596  14.5928   3.1076   N.1       3 RES3   0.0000
    85 O5       6.2837  13.1095   4.4469   O.3       4 RES4   0.0000
    86 H27      5.6189  13.5349   4.7632   H         4 RES4   0.0000
    87 H28      6.7721  13.6397   3.9973   H         4 RES4   0.0000
@<TRIPOS>BOND
     1     1     8    1
     2     2    12    1
     3     3     7    1
     4     4    11    1
     5     5    10    1
     6     6     9    1
     7     7     9   ar
     8     8    10   ar
     9     9    12   ar
    10    10     7   ar
    11    11     8   ar
    12    12    11   ar
    13    13    14    1
    14    14    24    1
    15    15    13    1
    16    16    13    1
    17    17    43    1
    18    18    13    1
    19    19    13    1
    20    20    13    1
    21    21    44    1
    22    22    16    2
    23    23    22    1
    24    24    29   ar
    25    25    18    2
    26    26    25    1
    27    27    18    1
    28    28    16    1
    29    29    22    1
    30    30    15    1
    31    31    19   ar
    32    32    25    1
    33    33    20   ar
    34    34    24   ar
    35    35    34    1
    36    36    29   ar
    37    37    36    1
    38    38    19   ar
    39    39    38    1
    40    40    31   ar
    41    41    32   ar
    42    42    41    1
    43    43    36   ar
    44    44    41   ar
    45    45    40   ar
    46    46    45    1
    47    47    28   ar
    48    48    47    1
    49    49    33   ar
    50    50    30   ar
    51    51    50    1
    52    52    20   ar
    53    53    52    1
    54    54    34   ar
    55    55    54    1
    56    56    27   ar
    57    57    56    1
    58    58    45   ar
    59    59    58    1
    60    60    44   ar
    61    61    60    1
    62    62    40   ar
    63    63    62    1
    64    64    38   ar
    65    65    64    1
    66    66    47   ar
    67    67    66    1
    68    68    49   ar
    69    69    68    1
    70    70    52   ar
    71    71    70    1
    72    72    49   ar
    73    73    72    1
    74    74    17    1
    75    75    74    1
    76    76    74    1
    77    77    74    1
    78    78    21    1
    79    79    78    1
    80    80    78    1
    81    81    78    1
    82    27    31   ar
    83    28    33   ar
    84    30    32   ar
    85    43    54   ar
    86    50    60   ar
    87    56    58   ar
    88    62    64   ar
    89    66    72   ar
    90    68    70   ar
    91    82    83    1
    92    83    84    3
    93    85    86    1
    94    87    85    1
@<TRIPOS>SUBSTRUCTURE
     1 RES1        1 GROUP             0 ****  ****    0  
     2 RES2       13 GROUP             0 ****  ****    0  
     3 RES3       82 GROUP             0 ****  ****    0  
     4 RES4       85 GROUP             0 ****  ****    0  
@<TRIPOS>CRYSIN
   11.6762   12.4922   14.2264   83.8000   78.0370   89.3540     2     1
