@<TRIPOS>MOLECULE
OPEYAM27
    87    94     4     0     0
SMALL
USER_CHARGES
****
Generated from the CSD

@<TRIPOS>ATOM
     1 I1      14.5981  10.3048   8.5358   I         1 RES1   0.0000
     2 I2       9.6197  12.1759   5.5790   I         1 RES1   0.0000
     3 I3      12.7833   7.5221   3.4892   I         1 RES1   0.0000
     4 F1      12.0498  12.0389   7.6530   F         1 RES1   0.0000
     5 F2      14.4428   8.3244   6.0729   F         1 RES1   0.0000
     6 F3      10.5448   9.7072   3.8765   F         1 RES1   0.0000
     7 C1      13.2739  10.1783   6.9069   C.ar      1 RES1   0.0000
     8 C2      12.5185   9.0033   4.9220   C.ar      1 RES1   0.0000
     9 C3      12.1979  11.0366   6.7659   C.ar      1 RES1   0.0000
    10 C4      11.2554  10.9024   5.7610   C.ar      1 RES1   0.0000
    11 C5      13.4066   9.1786   5.9642   C.ar      1 RES1   0.0000
    12 C6      11.4437   9.8732   4.8668   C.ar      1 RES1   0.0000
    13 Fe1      6.4248   8.1647   2.9308   Fe        2 RES2   1.0000
    14 O1       5.2573   6.8941   3.6517   O.3       2 RES2   0.0000
    15 O2       5.2169   8.6490   1.5770   O.3       2 RES2   0.0000
    16 O3       0.9508  12.1573   1.6542   O.3       2 RES2   0.0000
    17 O4       4.0816   1.7640   1.9973   O.3       2 RES2   0.0000
    18 N1       5.7292   9.4425   4.2221   N.2       2 RES2   0.0000
    19 N2       7.2307   6.9291   1.6759   N.2       2 RES2   0.0000
    20 N3       7.7251   7.7893   4.3900   N.ar      2 RES2   0.0000
    21 N4       7.7631   9.4121   2.1703   N.ar      2 RES2   0.0000
    22 C7       4.6783  10.1797   4.0485   C.2       2 RES2   0.0000
    23 H1       4.4101  10.7224   4.7677   H         2 RES2   0.0000
    24 C8       5.6707   5.1236   2.0388   C.ar      2 RES2   0.0000
    25 C9       6.7488   5.7563   1.3656   C.2       2 RES2   0.0000
    26 H2       7.1420   5.2989   0.6443   H         2 RES2   0.0000
    27 C10      4.9914   5.7127   3.1321   C.ar      2 RES2   0.0000
    28 C11      8.3713   7.4466   1.0021   C.ar      2 RES2   0.0000
    29 C12      6.4630   9.4904   5.4362   C.ar      2 RES2   0.0000
    30 C13      8.6030   8.8003   1.2689   C.ar      2 RES2   0.0000
    31 C14      3.8966  10.2403   2.8653   C.ar      2 RES2   0.0000
    32 C15      4.2061   9.4915   1.7015   C.ar      2 RES2   0.0000
    33 C16      7.5255   8.5728   5.4970   C.ar      2 RES2   0.0000
    34 C17      2.0108  11.2947   1.7540   C.ar      2 RES2   0.0000
    35 C18      2.7985  11.1419   2.8626   C.ar      2 RES2   0.0000
    36 H3       2.6089  11.6418   3.6359   H         2 RES2   0.0000
    37 C19      4.4017   3.0737   2.2806   C.ar      2 RES2   0.0000
    38 C20      3.3564   9.6645   0.5861   C.ar      2 RES2   0.0000
    39 H4       3.5202   9.1676  -0.1952   H         2 RES2   0.0000
    40 C21      8.7059   6.9015   4.4065   C.ar      2 RES2   0.0000
    41 H5       8.8493   6.3655   3.6487   H         2 RES2   0.0000
    42 C22      5.3610   3.7999   1.6255   C.ar      2 RES2   0.0000
    43 H6       5.8176   3.4197   0.8969   H         2 RES2   0.0000
    44 C23      3.9655   4.9427   3.7472   C.ar      2 RES2   0.0000
    45 H7       3.4638   5.3138   4.4501   H         2 RES2   0.0000
    46 C24      8.3289   8.4668   6.6484   C.ar      2 RES2   0.0000
    47 C25      9.6582   9.5090   0.6469   C.ar      2 RES2   0.0000
    48 C26      7.9300  10.7024   2.4230   C.ar      2 RES2   0.0000
    49 H8       7.3581  11.1212   3.0418   H         2 RES2   0.0000
    50 C27      6.2225  10.3180   6.5033   C.ar      2 RES2   0.0000
    51 H9       5.5268  10.9478   6.4635   H         2 RES2   0.0000
    52 C28      9.2252   6.7626   0.1645   C.ar      2 RES2   0.0000
    53 H10      9.0975   5.8450   0.0036   H         2 RES2   0.0000
    54 C29      2.3016  10.5333   0.6123   C.ar      2 RES2   0.0000
    55 H11      1.7602  10.6234  -0.1511   H         2 RES2   0.0000
    56 C30      9.3631   7.4998   6.6415   C.ar      2 RES2   0.0000
    57 H12      9.9158   7.3867   7.3931   H         2 RES2   0.0000
    58 C31      3.6985   3.6678   3.3284   C.ar      2 RES2   0.0000
    59 H13      3.0205   3.1781   3.7581   H         2 RES2   0.0000
    60 C32      7.0235  10.2197   7.6588   C.ar      2 RES2   0.0000
    61 H14      6.8514  10.7859   8.3900   H         2 RES2   0.0000
    62 C33      9.7916  10.8785   0.9344   C.ar      2 RES2   0.0000
    63 H15     10.4734  11.3830   0.5305   H         2 RES2   0.0000
    64 C34      8.0439   9.3199   7.7348   C.ar      2 RES2   0.0000
    65 H16      8.5622   9.2681   8.5181   H         2 RES2   0.0000
    66 C35     10.5121   8.7804  -0.2253   C.ar      2 RES2   0.0000
    67 H17     11.2291   9.2131  -0.6506   H         2 RES2   0.0000
    68 C36      8.9298  11.4667   1.8010   C.ar      2 RES2   0.0000
    69 H18      9.0019  12.3856   1.9837   H         2 RES2   0.0000
    70 C37      9.5432   6.7379   5.5288   C.ar      2 RES2   0.0000
    71 H19     10.2307   6.0976   5.5092   H         2 RES2   0.0000
    72 C38     10.2897   7.4478  -0.4451   C.ar      2 RES2   0.0000
    73 H20     10.8661   6.9785  -1.0205   H         2 RES2   0.0000
    74 C39      4.9734   1.0582   1.1417   C.3       2 RES2   0.0000
    75 H21      5.0069   1.4972   0.2770   H         2 RES2   0.0000
    76 H22      4.6611   0.1471   1.0298   H         2 RES2   0.0000
    77 H23      5.8601   1.0508   1.5346   H         2 RES2   0.0000
    78 C40      0.7563  13.0636   2.7174   C.3       2 RES2   0.0000
    79 H24     -0.0203  13.6149   2.5343   H         2 RES2   0.0000
    80 H25      1.5397  13.6281   2.8088   H         2 RES2   0.0000
    81 H26      0.6156  12.5703   3.5410   H         2 RES2   0.0000
    82 S1      10.3344  16.4032   2.6172   S.2       3 RES3  -1.0000
    83 N5       8.2787  14.5528   3.0588   N.1       3 RES3   0.0000
    84 C41      9.1361  15.3187   2.8874   C.1       3 RES3   0.0000
    85 O5       6.3710  12.9970   4.4535   O.3       4 RES4   0.0000
    86 H27      6.8360  13.5530   4.0090   H         4 RES4   0.0000
    87 H28      5.6870  13.3891   4.7703   H         4 RES4   0.0000
@<TRIPOS>BOND
     1     1     7    1
     2     2    10    1
     3     3     8    1
     4     4     9    1
     5     5    11    1
     6     6    12    1
     7     7     9   ar
     8     8    11   ar
     9     9    10   ar
    10    10    12   ar
    11    11     7   ar
    12    12     8   ar
    13    13    14    1
    14    14    27    1
    15    15    13    1
    16    16    34    1
    17    17    37    1
    18    18    13    1
    19    19    13    1
    20    20    13    1
    21    21    13    1
    22    22    18    2
    23    23    22    1
    24    24    25    1
    25    25    19    2
    26    26    25    1
    27    27    24   ar
    28    28    19    1
    29    29    18    1
    30    30    21   ar
    31    31    22    1
    32    32    15    1
    33    33    20   ar
    34    34    35   ar
    35    35    31   ar
    36    36    35    1
    37    37    42   ar
    38    38    32   ar
    39    39    38    1
    40    40    20   ar
    41    41    40    1
    42    42    24   ar
    43    43    42    1
    44    44    27   ar
    45    45    44    1
    46    46    33   ar
    47    47    30   ar
    48    48    21   ar
    49    49    48    1
    50    50    29   ar
    51    51    50    1
    52    52    28   ar
    53    53    52    1
    54    54    34   ar
    55    55    54    1
    56    56    46   ar
    57    57    56    1
    58    58    37   ar
    59    59    58    1
    60    60    50   ar
    61    61    60    1
    62    62    47   ar
    63    63    62    1
    64    64    46   ar
    65    65    64    1
    66    66    47   ar
    67    67    66    1
    68    68    48   ar
    69    69    68    1
    70    70    40   ar
    71    71    70    1
    72    72    52   ar
    73    73    72    1
    74    74    17    1
    75    75    74    1
    76    76    74    1
    77    77    74    1
    78    78    16    1
    79    79    78    1
    80    80    78    1
    81    81    78    1
    82    28    30   ar
    83    29    33   ar
    84    31    32   ar
    85    38    54   ar
    86    44    58   ar
    87    56    70   ar
    88    60    64   ar
    89    62    68   ar
    90    66    72   ar
    91    82    84    1
    92    83    84    3
    93    85    86    1
    94    87    85    1
@<TRIPOS>SUBSTRUCTURE
     1 RES1        1 GROUP             0 ****  ****    0  
     2 RES2       13 GROUP             0 ****  ****    0  
     3 RES3       82 GROUP             0 ****  ****    0  
     4 RES4       85 GROUP             0 ****  ****    0  
@<TRIPOS>CRYSIN
   11.7017   12.3726   14.2247   83.8170   77.7730   89.1750     2     1
