@<TRIPOS>MOLECULE
OPEYAM16
    87    94     4     0     0
SMALL
USER_CHARGES
****
Generated from the CSD

@<TRIPOS>ATOM
     1 I1       6.1466   3.5541   5.2732   I         1 RES1   0.0000
     2 I2      11.1369   1.6864   8.2230   I         1 RES1   0.0000
     3 I3       8.0041   6.3777  10.2852   I         1 RES1   0.0000
     4 F1       8.6979   1.8240   6.1556   F         1 RES1   0.0000
     5 F2       6.3257   5.5598   7.7170   F         1 RES1   0.0000
     6 F3      10.2405   4.1896   9.8944   F         1 RES1   0.0000
     7 C1       8.2678   4.8879   8.8525   C.ar      1 RES1   0.0000
     8 C2       7.4878   3.6897   6.8885   C.ar      1 RES1   0.0000
     9 C3       7.3641   4.7000   7.8299   C.ar      1 RES1   0.0000
    10 C4       9.3368   4.0156   8.9186   C.ar      1 RES1   0.0000
    11 C5       9.5075   2.9750   8.0281   C.ar      1 RES1   0.0000
    12 C6       8.5646   2.8364   7.0371   C.ar      1 RES1   0.0000
    13 Fe1     14.3488   5.7237  10.8453   Fe        2 RES2   1.0000
    14 O1      15.5584   5.2403  12.1979   O.3       2 RES2   0.0000
    15 O2      15.5216   6.9862  10.1208   O.3       2 RES2   0.0000
    16 O3      19.8438   1.7494  12.1047   O.3       2 RES2   0.0000
    17 O4      16.7018  12.1241  11.7579   O.3       2 RES2   0.0000
    18 N1      15.0369   4.4403   9.5599   N.2       2 RES2   0.0000
    19 N2      13.0448   6.0997   9.3934   N.ar      2 RES2   0.0000
    20 N3      13.0068   4.4779  11.6079   N.ar      2 RES2   0.0000
    21 N4      13.5489   6.9596  12.1034   N.2       2 RES2   0.0000
    22 C7      16.0983   3.7144   9.7210   C.2       2 RES2   0.0000
    23 H1      16.3749   3.1743   8.9900   H         2 RES2   0.0000
    24 C8      16.5788   4.4084  12.0717   C.ar      2 RES2   0.0000
    25 C9      14.2967   4.3866   8.3446   C.ar      2 RES2   0.0000
    26 C10     15.1065   8.7707  11.7235   C.ar      2 RES2   0.0000
    27 C11     14.0214   8.1383  12.4034   C.2       2 RES2   0.0000
    28 H2      13.6159   8.6076  13.1232   H         2 RES2   0.0000
    29 C12     12.4044   6.4556  12.7709   C.ar      2 RES2   0.0000
    30 C13     13.2308   5.3053   8.2841   C.ar      2 RES2   0.0000
    31 C14     16.8831   3.6621  10.9060   C.ar      2 RES2   0.0000
    32 C15     17.9919   2.7662  10.8936   C.ar      2 RES2   0.0000
    33 H3      18.1879   2.2705  10.1072   H         2 RES2   0.0000
    34 C16     12.1696   5.0952  12.5039   C.ar      2 RES2   0.0000
    35 C17     17.4286   4.2298  13.1879   C.ar      2 RES2   0.0000
    36 H4      17.2576   4.7251  13.9800   H         2 RES2   0.0000
    37 C18     15.7937   8.1706  10.6390   C.ar      2 RES2   0.0000
    38 C19     18.7810   2.6135  12.0084   C.ar      2 RES2   0.0000
    39 C20     15.4157  10.0965  12.1350   C.ar      2 RES2   0.0000
    40 H5      14.9530  10.4846  12.8682   H         2 RES2   0.0000
    41 C21     16.3757  10.8165  11.4771   C.ar      2 RES2   0.0000
    42 C22     12.0707   6.9939   9.3686   C.ar      2 RES2   0.0000
    43 H6      11.9350   7.5447  10.1308   H         2 RES2   0.0000
    44 C23     18.4889   3.3656  13.1604   C.ar      2 RES2   0.0000
    45 H7      19.0375   3.2737  13.9315   H         2 RES2   0.0000
    46 C24     12.4236   5.4101   7.1376   C.ar      2 RES2   0.0000
    47 C25     17.0908  10.2180  10.4394   C.ar      2 RES2   0.0000
    48 H8      17.7801  10.7081  10.0083   H         2 RES2   0.0000
    49 C26     11.1050   4.4002  13.1315   C.ar      2 RES2   0.0000
    50 C27     14.5208   3.5452   7.2890   C.ar      2 RES2   0.0000
    51 H9      15.2236   2.9068   7.3300   H         2 RES2   0.0000
    52 C28     10.2567   5.1346  14.0013   C.ar      2 RES2   0.0000
    53 H10      9.5334   4.6994  14.4369   H         2 RES2   0.0000
    54 C29     16.8216   8.9353  10.0265   C.ar      2 RES2   0.0000
    55 H11     17.3303   8.5545   9.3198   H         2 RES2   0.0000
    56 C30     12.8446   3.1872  11.3574   C.ar      2 RES2   0.0000
    57 H12     13.4245   2.7629  10.7357   H         2 RES2   0.0000
    58 C31     13.7127   3.6255   6.1453   C.ar      2 RES2   0.0000
    59 H13     13.8737   3.0361   5.4185   H         2 RES2   0.0000
    60 C32     11.2303   7.1596   8.2593   C.ar      2 RES2   0.0000
    61 H14     10.5385   7.8109   8.2813   H         2 RES2   0.0000
    62 C33     11.4019   6.3854   7.1417   C.ar      2 RES2   0.0000
    63 H15     10.8442   6.5023   6.3819   H         2 RES2   0.0000
    64 C34     12.6942   4.5385   6.0558   C.ar      2 RES2   0.0000
    65 H16     12.1687   4.5871   5.2664   H         2 RES2   0.0000
    66 C35     11.8396   2.4242  11.9836   C.ar      2 RES2   0.0000
    67 H17     11.7648   1.4948  11.8012   H         2 RES2   0.0000
    68 C36     10.9712   3.0216  12.8562   C.ar      2 RES2   0.0000
    69 H18     10.2845   2.5144  13.2713   H         2 RES2   0.0000
    70 C37     11.5482   7.1455  13.6077   C.ar      2 RES2   0.0000
    71 H19     11.6813   8.0713  13.7723   H         2 RES2   0.0000
    72 C38     10.4799   6.4652  14.2119   C.ar      2 RES2   0.0000
    73 H20      9.8932   6.9449  14.7846   H         2 RES2   0.0000
    74 C39     20.0228   0.8279  11.0519   C.3       2 RES2   0.0000
    75 H21     20.1555   1.3132  10.2114   H         2 RES2   0.0000
    76 H22     19.2289   0.2577  10.9785   H         2 RES2   0.0000
    77 H23     20.8083   0.2715  11.2359   H         2 RES2   0.0000
    78 C40     15.8078  12.8291  12.6085   C.3       2 RES2   0.0000
    79 H24     14.9064  12.8085  12.2252   H         2 RES2   0.0000
    80 H25     16.1046  13.7592  12.6959   H         2 RES2   0.0000
    81 H26     15.7965  12.4061  13.4928   H         2 RES2   0.0000
    82 S1       4.2920   4.0139   2.6215   S.2       3 RES3  -1.0000
    83 N5       2.2465   2.1454   3.0582   N.1       3 RES3   0.0000
    84 C41      3.0905   2.9154   2.8834   C.1       3 RES3   0.0000
    85 O5       0.3200   0.6286   4.4290   O.3       4 RES4   0.0000
    86 H27      0.8680   1.1183   4.0012   H         4 RES4   0.0000
    87 H28     -0.2670   1.1180   4.8005   H         4 RES4   0.0000
@<TRIPOS>BOND
     1     1     8    1
     2     2    11    1
     3     3     7    1
     4     4    12    1
     5     5     9    1
     6     6    10    1
     7     7     9   ar
     8     8     9   ar
     9    10     7   ar
    10    11    10   ar
    11    12     8   ar
    12    11    12   ar
    13    13    14    1
    14    14    24    1
    15    15    13    1
    16    16    38    1
    17    17    41    1
    18    18    13    1
    19    19    13    1
    20    20    13    1
    21    21    13    1
    22    22    18    2
    23    23    22    1
    24    24    31   ar
    25    25    18    1
    26    26    27    1
    27    27    21    2
    28    28    27    1
    29    29    21    1
    30    30    19   ar
    31    31    22    1
    32    32    31   ar
    33    33    32    1
    34    34    20   ar
    35    35    24   ar
    36    36    35    1
    37    37    15    1
    38    38    32   ar
    39    39    26   ar
    40    40    39    1
    41    41    39   ar
    42    42    19   ar
    43    43    42    1
    44    44    35   ar
    45    45    44    1
    46    46    30   ar
    47    47    41   ar
    48    48    47    1
    49    49    34   ar
    50    50    25   ar
    51    51    50    1
    52    52    49   ar
    53    53    52    1
    54    54    37   ar
    55    55    54    1
    56    56    20   ar
    57    57    56    1
    58    58    50   ar
    59    59    58    1
    60    60    42   ar
    61    61    60    1
    62    62    46   ar
    63    63    62    1
    64    64    46   ar
    65    65    64    1
    66    66    56   ar
    67    67    66    1
    68    68    49   ar
    69    69    68    1
    70    70    29   ar
    71    71    70    1
    72    72    52   ar
    73    73    72    1
    74    74    16    1
    75    75    74    1
    76    76    74    1
    77    77    74    1
    78    78    17    1
    79    79    78    1
    80    80    78    1
    81    81    78    1
    82    25    30   ar
    83    26    37   ar
    84    29    34   ar
    85    38    44   ar
    86    47    54   ar
    87    58    64   ar
    88    60    62   ar
    89    66    68   ar
    90    70    72   ar
    91    82    84    1
    92    83    84    3
    93    85    86    1
    94    87    85    1
@<TRIPOS>SUBSTRUCTURE
     1 RES1        1 GROUP             0 ****  ****    0  
     2 RES2       13 GROUP             0 ****  ****    0  
     3 RES3       82 GROUP             0 ****  ****    0  
     4 RES4       85 GROUP             0 ****  ****    0  
@<TRIPOS>CRYSIN
   11.7115   12.3568   14.1773   83.6250   77.6290   89.1850     2     1
