@<TRIPOS>MOLECULE
OPEYAM01
    87    94     4     0     0
SMALL
USER_CHARGES
****
Generated from the CSD

@<TRIPOS>ATOM
     1 I1      14.5598  10.3156   8.5762   I         1 RES1   0.0000
     2 I2       9.6123  12.2178   5.5957   I         1 RES1   0.0000
     3 I3      12.7653   7.5614   3.5098   I         1 RES1   0.0000
     4 F1      12.0220  12.0602   7.6837   F         1 RES1   0.0000
     5 F2      14.4088   8.3411   6.1053   F         1 RES1   0.0000
     6 F3      10.5387   9.7489   3.8933   F         1 RES1   0.0000
     7 C1      12.4928   9.0344   4.9466   C.ar      1 RES1   0.0000
     8 C2      13.2406  10.2022   6.9383   C.ar      1 RES1   0.0000
     9 C3      11.4260   9.9116   4.8857   C.ar      1 RES1   0.0000
    10 C4      12.1689  11.0552   6.7900   C.ar      1 RES1   0.0000
    11 C5      13.3777   9.2036   5.9875   C.ar      1 RES1   0.0000
    12 C6      11.2405  10.9314   5.7782   C.ar      1 RES1   0.0000
    13 Fe1      6.3945   8.1964   2.9342   Fe        2 RES2   1.0000
    14 O1       5.1880   8.6982   1.5893   O.3       2 RES2   0.0000
    15 O2       5.2391   6.9141   3.6470   O.3       2 RES2   0.0000
    16 N1       5.7001   9.4815   4.2309   N.2       2 RES2   0.0000
    17 O3       0.9440  12.2275   1.6646   O.3       2 RES2   0.0000
    18 N2       7.7469   9.4407   2.1660   N.ar      2 RES2   0.0000
    19 O4       4.0834   1.7855   1.9917   O.3       2 RES2   0.0000
    20 N3       7.2151   6.9576   1.6776   N.2       2 RES2   0.0000
    21 N4       7.6962   7.8245   4.4047   N.ar      2 RES2   0.0000
    22 C7       4.6598  10.2272   4.0554   C.2       2 RES2   0.0000
    23 H1       4.4010  10.7693   4.7654   H         2 RES2   0.0000
    24 C8       4.1789   9.5349   1.7076   C.ar      2 RES2   0.0000
    25 C9       8.3499   7.4669   0.9979   C.ar      2 RES2   0.0000
    26 C10      8.5894   8.8308   1.2696   C.ar      2 RES2   0.0000
    27 C11      6.4296   9.5261   5.4553   C.ar      2 RES2   0.0000
    28 C12      3.8763  10.2885   2.8676   C.ar      2 RES2   0.0000
    29 C13      6.7470   5.7843   1.3749   C.2       2 RES2   0.0000
    30 H2       7.1462   5.3306   0.6676   H         2 RES2   0.0000
    31 C14      5.6704   5.1398   2.0457   C.ar      2 RES2   0.0000
    32 C15      7.4929   8.6094   5.5080   C.ar      2 RES2   0.0000
    33 C16      4.9761   5.7279   3.1337   C.ar      2 RES2   0.0000
    34 C17      3.3304   9.7261   0.5960   C.ar      2 RES2   0.0000
    35 H3       3.4897   9.2414  -0.1807   H         2 RES2   0.0000
    36 C18      2.7868  11.1983   2.8787   C.ar      2 RES2   0.0000
    37 H4       2.6048  11.6923   3.6463   H         2 RES2   0.0000
    38 C19      2.0024  11.3548   1.7685   C.ar      2 RES2   0.0000
    39 C20      4.4073   3.0926   2.2786   C.ar      2 RES2   0.0000
    40 C21      8.2953   8.5046   6.6722   C.ar      2 RES2   0.0000
    41 C22      5.3648   3.8204   1.6313   C.ar      2 RES2   0.0000
    42 H5       5.8197   3.4456   0.9117   H         2 RES2   0.0000
    43 C23      7.9130  10.7320   2.4213   C.ar      2 RES2   0.0000
    44 H6       7.3467  11.1455   3.0325   H         2 RES2   0.0000
    45 C24      2.2796  10.6019   0.6265   C.ar      2 RES2   0.0000
    46 H7       1.7425  10.6972  -0.1265   H         2 RES2   0.0000
    47 C25      8.6776   6.9421   4.4283   C.ar      2 RES2   0.0000
    48 H8       8.8258   6.4145   3.6777   H         2 RES2   0.0000
    49 C26      3.9530   4.9583   3.7394   C.ar      2 RES2   0.0000
    50 H9       3.4521   5.3246   4.4321   H         2 RES2   0.0000
    51 C27      9.6460   9.5292   0.6500   C.ar      2 RES2   0.0000
    52 C28      3.6920   3.6730   3.3181   C.ar      2 RES2   0.0000
    53 H10      3.0217   3.1843   3.7384   H         2 RES2   0.0000
    54 C29      6.1923  10.3500   6.5170   C.ar      2 RES2   0.0000
    55 H11      5.5040  10.9738   6.4770   H         2 RES2   0.0000
    56 C30      9.2025   6.7958   0.1580   C.ar      2 RES2   0.0000
    57 H12      9.0733   5.8910  -0.0147   H         2 RES2   0.0000
    58 C31      8.9143  11.4938   1.8018   C.ar      2 RES2   0.0000
    59 H13      8.9843  12.4034   1.9816   H         2 RES2   0.0000
    60 C32      6.9875  10.2563   7.6687   C.ar      2 RES2   0.0000
    61 H14      6.8185  10.8201   8.3880   H         2 RES2   0.0000
    62 C33     10.4929   8.8066  -0.2301   C.ar      2 RES2   0.0000
    63 H15     11.1972   9.2362  -0.6594   H         2 RES2   0.0000
    64 C34      9.3227   7.5379   6.6639   C.ar      2 RES2   0.0000
    65 H16      9.8672   7.4232   7.4097   H         2 RES2   0.0000
    66 C35      9.7796  10.9037   0.9397   C.ar      2 RES2   0.0000
    67 H17     10.4567  11.4018   0.5429   H         2 RES2   0.0000
    68 C36     10.2708   7.4867  -0.4394   C.ar      2 RES2   0.0000
    69 H18     10.8482   7.0194  -0.9996   H         2 RES2   0.0000
    70 C37      8.0060   9.3504   7.7519   C.ar      2 RES2   0.0000
    71 H19      8.5111   9.2939   8.5300   H         2 RES2   0.0000
    72 C38      9.5073   6.7747   5.5537   C.ar      2 RES2   0.0000
    73 H20     10.1860   6.1386   5.5374   H         2 RES2   0.0000
    74 C39      4.9814   1.0749   1.1421   C.3       2 RES2   0.0000
    75 H21      5.0095   1.4975   0.2812   H         2 RES2   0.0000
    76 H22      4.6790   0.1687   1.0445   H         2 RES2   0.0000
    77 H23      5.8596   1.0787   1.5300   H         2 RES2   0.0000
    78 C40      0.7503  13.1295   2.7235   C.3       2 RES2   0.0000
    79 H24     -0.0078  13.6871   2.5342   H         2 RES2   0.0000
    80 H25      1.5327  13.6763   2.8249   H         2 RES2   0.0000
    81 H26      0.5938  12.6411   3.5351   H         2 RES2   0.0000
    82 S1      10.2729  16.4777   2.6183   S.2       3 RES3  -1.0000
    83 N5       8.2696  14.5878   3.0894   N.1       3 RES3   0.0000
    84 C41      9.1027  15.3653   2.8967   C.1       3 RES3   0.0000
    85 O5       6.3241  13.0533   4.4602   O.3       4 RES4   0.0000
    86 H27      6.8706  13.5976   4.1014   H         4 RES4   0.0000
    87 H28      5.6339  13.4751   4.7203   H         4 RES4   0.0000
@<TRIPOS>BOND
     1     1     8    1
     2     2    12    1
     3     3     7    1
     4     4    10    1
     5     5    11    1
     6     6     9    1
     7     7     9   ar
     8     8    10   ar
     9     9    12   ar
    10    10    12   ar
    11    11     7   ar
    12     8    11   ar
    13    13    14    1
    14    14    24    1
    15    15    13    1
    16    16    13    1
    17    17    38    1
    18    18    13    1
    19    19    39    1
    20    20    13    1
    21    21    13    1
    22    22    16    2
    23    23    22    1
    24    24    28   ar
    25    25    20    1
    26    26    18   ar
    27    27    16    1
    28    28    22    1
    29    29    20    2
    30    30    29    1
    31    31    29    1
    32    32    21   ar
    33    33    15    1
    34    34    24   ar
    35    35    34    1
    36    36    28   ar
    37    37    36    1
    38    38    36   ar
    39    39    41   ar
    40    40    32   ar
    41    41    31   ar
    42    42    41    1
    43    43    18   ar
    44    44    43    1
    45    45    34   ar
    46    46    45    1
    47    47    21   ar
    48    48    47    1
    49    49    33   ar
    50    50    49    1
    51    51    26   ar
    52    52    39   ar
    53    53    52    1
    54    54    27   ar
    55    55    54    1
    56    56    25   ar
    57    57    56    1
    58    58    43   ar
    59    59    58    1
    60    60    54   ar
    61    61    60    1
    62    62    51   ar
    63    63    62    1
    64    64    40   ar
    65    65    64    1
    66    66    51   ar
    67    67    66    1
    68    68    56   ar
    69    69    68    1
    70    70    40   ar
    71    71    70    1
    72    72    47   ar
    73    73    72    1
    74    74    19    1
    75    75    74    1
    76    76    74    1
    77    77    74    1
    78    78    17    1
    79    79    78    1
    80    80    78    1
    81    81    78    1
    82    25    26   ar
    83    27    32   ar
    84    31    33   ar
    85    38    45   ar
    86    49    52   ar
    87    58    66   ar
    88    60    70   ar
    89    62    68   ar
    90    64    72   ar
    91    82    84    1
    92    83    84    3
    93    85    86    1
    94    87    85    1
@<TRIPOS>SUBSTRUCTURE
     1 RES1        1 GROUP             0 ****  ****    0  
     2 RES2       13 GROUP             0 ****  ****    0  
     3 RES3       82 GROUP             0 ****  ****    0  
     4 RES4       85 GROUP             0 ****  ****    0  
@<TRIPOS>CRYSIN
   11.6921   12.4305   14.2527   83.9030   77.9430   89.2520     2     1
