@<TRIPOS>MOLECULE
OPEYAM34
    87    94     4     0     0
SMALL
USER_CHARGES
****
Generated from the CSD

@<TRIPOS>ATOM
     1 I1       0.2673   3.5894   5.2751   I         1 RES1   0.0000
     2 I2       5.2166   1.6825   8.2506   I         1 RES1   0.0000
     3 I3       2.0977   6.3711  10.3143   I         1 RES1   0.0000
     4 F1       2.8032   1.8477   6.1635   F         1 RES1   0.0000
     5 F2       0.4352   5.5819   7.7330   F         1 RES1   0.0000
     6 F3       4.3209   4.1845   9.9312   F         1 RES1   0.0000
     7 C1       2.3595   4.8941   8.8867   C.ar      1 RES1   0.0000
     8 C2       1.5991   3.7187   6.8985   C.ar      1 RES1   0.0000
     9 C3       2.6663   2.8578   7.0449   C.ar      1 RES1   0.0000
    10 C4       3.4299   4.0089   8.9461   C.ar      1 RES1   0.0000
    11 C5       1.4709   4.7207   7.8421   C.ar      1 RES1   0.0000
    12 C6       3.6039   2.9808   8.0480   C.ar      1 RES1   0.0000
    13 Fe1      8.4565   5.7267  10.8933   Fe        2 RES2   1.0000
    14 O1       9.6628   5.2236  12.2413   O.3       2 RES2   0.0000
    15 O2       9.6196   7.0005  10.1748   O.3       2 RES2   0.0000
    16 O3      13.9230   1.7200  12.1487   O.3       2 RES2   0.0000
    17 N1       9.1462   4.4402   9.5987   N.2       2 RES2   0.0000
    18 N2       7.1036   4.4825  11.6624   N.ar      2 RES2   0.0000
    19 N3       7.1559   6.1002   9.4241   N.ar      2 RES2   0.0000
    20 N4       7.6424   6.9648  12.1501   N.2       2 RES2   0.0000
    21 O4      10.7738  12.1416  11.8116   O.3       2 RES2   0.0000
    22 C7      10.6765   4.3934  12.1100   C.ar      2 RES2   0.0000
    23 C8       8.4095   4.3784   8.3824   C.ar      2 RES2   0.0000
    24 C9      10.1951   3.7046   9.7668   C.2       2 RES2   0.0000
    25 H1      10.4604   3.1657   9.0428   H         2 RES2   0.0000
    26 C10      9.1830   8.7865  11.7715   C.ar      2 RES2   0.0000
    27 C11      7.3517   5.3097   8.3243   C.ar      2 RES2   0.0000
    28 C12     10.9838   3.6360  10.9494   C.ar      2 RES2   0.0000
    29 C13      6.5018   6.4582  12.8229   C.ar      2 RES2   0.0000
    30 C14      8.1063   8.1451  12.4388   C.2       2 RES2   0.0000
    31 H2       7.6966   8.6105  13.1461   H         2 RES2   0.0000
    32 C15     11.5220   4.2083  13.2264   C.ar      2 RES2   0.0000
    33 H3      11.3574   4.6989  14.0117   H         2 RES2   0.0000
    34 C16      6.2614   5.0951  12.5549   C.ar      2 RES2   0.0000
    35 C17      9.8796   8.1881  10.6911   C.ar      2 RES2   0.0000
    36 C18     12.0789   2.7370  10.9398   C.ar      2 RES2   0.0000
    37 H4      12.2708   2.2440  10.1627   H         2 RES2   0.0000
    38 C19     12.8598   2.5827  12.0534   C.ar      2 RES2   0.0000
    39 C20      6.5437   5.4155   7.1638   C.ar      2 RES2   0.0000
    40 C21     12.5768   3.3344  13.1960   C.ar      2 RES2   0.0000
    41 H5      13.1184   3.2378  13.9581   H         2 RES2   0.0000
    42 C22      6.1803   6.9933   9.4020   C.ar      2 RES2   0.0000
    43 H6       6.0423   7.5375  10.1550   H         2 RES2   0.0000
    44 C23     10.4532  10.8320  11.5325   C.ar      2 RES2   0.0000
    45 C24      9.4889  10.1062  12.1777   C.ar      2 RES2   0.0000
    46 H7       9.0244  10.4888  12.9002   H         2 RES2   0.0000
    47 C25      6.9340   3.1900  11.4150   C.ar      2 RES2   0.0000
    48 H8       7.5082   2.7669  10.8024   H         2 RES2   0.0000
    49 C26      5.2002   4.4005  13.1780   C.ar      2 RES2   0.0000
    50 C27     10.9080   8.9562  10.0804   C.ar      2 RES2   0.0000
    51 H9      11.4148   8.5818   9.3827   H         2 RES2   0.0000
    52 C28      8.6448   3.5542   7.3268   C.ar      2 RES2   0.0000
    53 H10      9.3432   2.9264   7.3661   H         2 RES2   0.0000
    54 C29      4.3548   5.1337  14.0484   C.ar      2 RES2   0.0000
    55 H11      3.6397   4.7030  14.4807   H         2 RES2   0.0000
    56 C30     11.1711  10.2384  10.4963   C.ar      2 RES2   0.0000
    57 H12     11.8520  10.7272  10.0719   H         2 RES2   0.0000
    58 C31      5.6487   7.1455  13.6602   C.ar      2 RES2   0.0000
    59 H13      5.7828   8.0611  13.8261   H         2 RES2   0.0000
    60 C32      7.8397   3.6400   6.1759   C.ar      2 RES2   0.0000
    61 H14      8.0085   3.0680   5.4492   H         2 RES2   0.0000
    62 C33      5.9312   2.4354  12.0354   C.ar      2 RES2   0.0000
    63 H15      5.8572   1.5153  11.8557   H         2 RES2   0.0000
    64 C34      5.0659   3.0311  12.8975   C.ar      2 RES2   0.0000
    65 H16      4.3812   2.5304  13.3031   H         2 RES2   0.0000
    66 C35      4.5760   6.4659  14.2612   C.ar      2 RES2   0.0000
    67 H17      3.9944   6.9413  14.8262   H         2 RES2   0.0000
    68 C36      5.5220   6.3828   7.1734   C.ar      2 RES2   0.0000
    69 H18      4.9681   6.4967   6.4217   H         2 RES2   0.0000
    70 C37      6.8143   4.5440   6.0958   C.ar      2 RES2   0.0000
    71 H19      6.2864   4.5814   5.3196   H         2 RES2   0.0000
    72 C38      5.3426   7.1504   8.2801   C.ar      2 RES2   0.0000
    73 H20      4.6553   7.7916   8.2968   H         2 RES2   0.0000
    74 C39      9.8742  12.8544  12.6544   C.3       2 RES2   0.0000
    75 H21      8.9946  12.8731  12.2473   H         2 RES2   0.0000
    76 H22     10.1948  13.7620  12.7749   H         2 RES2   0.0000
    77 H23      9.8219  12.4134  13.5174   H         2 RES2   0.0000
    78 C40     14.1073   0.8017  11.0959   C.3       2 RES2   0.0000
    79 H24     14.2727   1.2853  10.2708   H         2 RES2   0.0000
    80 H25     13.3098   0.2583  10.9968   H         2 RES2   0.0000
    81 H26     14.8656   0.2306  11.2932   H         2 RES2   0.0000
    82 S1       4.5904  -2.5335  11.1937   S.2       3 RES3  -1.0000
    83 N5       6.5801  -0.6248  10.7242   N.1       3 RES3   0.0000
    84 C41      5.7446  -1.4191  10.9107   C.1       3 RES3   0.0000
    85 O5       8.5332   0.8745   9.3702   O.3       4 RES4   0.0000
    86 H27      9.1302   0.3848   9.0138   H         4 RES4   0.0000
    87 H28      7.9902   0.3876   9.8060   H         4 RES4   0.0000
@<TRIPOS>BOND
     1     1     8    1
     2     2    12    1
     3     3     7    1
     4     4     9    1
     5     5    11    1
     6     6    10    1
     7     7    10   ar
     8     8     9   ar
     9     9    12   ar
    10    10    12   ar
    11    11     7   ar
    12     8    11   ar
    13    13    14    1
    14    14    22    1
    15    15    13    1
    16    16    38    1
    17    17    13    1
    18    18    13    1
    19    19    13    1
    20    20    13    1
    21    21    44    1
    22    22    28   ar
    23    23    17    1
    24    24    17    2
    25    25    24    1
    26    26    30    1
    27    27    19   ar
    28    28    24    1
    29    29    20    1
    30    30    20    2
    31    31    30    1
    32    32    22   ar
    33    33    32    1
    34    34    18   ar
    35    35    15    1
    36    36    28   ar
    37    37    36    1
    38    38    36   ar
    39    39    27   ar
    40    40    32   ar
    41    41    40    1
    42    42    19   ar
    43    43    42    1
    44    44    45   ar
    45    45    26   ar
    46    46    45    1
    47    47    18   ar
    48    48    47    1
    49    49    34   ar
    50    50    35   ar
    51    51    50    1
    52    52    23   ar
    53    53    52    1
    54    54    49   ar
    55    55    54    1
    56    56    44   ar
    57    57    56    1
    58    58    29   ar
    59    59    58    1
    60    60    52   ar
    61    61    60    1
    62    62    47   ar
    63    63    62    1
    64    64    49   ar
    65    65    64    1
    66    66    54   ar
    67    67    66    1
    68    68    39   ar
    69    69    68    1
    70    70    39   ar
    71    71    70    1
    72    72    42   ar
    73    73    72    1
    74    74    21    1
    75    75    74    1
    76    76    74    1
    77    77    74    1
    78    78    16    1
    79    79    78    1
    80    80    78    1
    81    81    78    1
    82    23    27   ar
    83    26    35   ar
    84    29    34   ar
    85    38    40   ar
    86    50    56   ar
    87    58    66   ar
    88    60    70   ar
    89    62    64   ar
    90    68    72   ar
    91    82    84    1
    92    83    84    3
    93    85    86    1
    94    87    85    1
@<TRIPOS>SUBSTRUCTURE
     1 RES1        1 GROUP             0 ****  ****    0  
     2 RES2       13 GROUP             0 ****  ****    0  
     3 RES3       82 GROUP             0 ****  ****    0  
     4 RES4       85 GROUP             0 ****  ****    0  
@<TRIPOS>CRYSIN
   11.7098   12.4204   14.2165   83.7640   77.8510   89.2560     2     1
