@<TRIPOS>MOLECULE
OPEYAM05
    87    94     4     0     0
SMALL
USER_CHARGES
****
Generated from the CSD

@<TRIPOS>ATOM
     1 I1      14.3109  10.4014   8.6714   I         1 RES1   0.0000
     2 I2       9.4578  12.4213   5.6157   I         1 RES1   0.0000
     3 I3      12.5674   7.7377   3.5410   I         1 RES1   0.0000
     4 F1      11.8156  12.1923   7.7571   F         1 RES1   0.0000
     5 F2      14.1687   8.4618   6.1687   F         1 RES1   0.0000
     6 F3      10.3734   9.9541   3.9029   F         1 RES1   0.0000
     7 C1      12.2910   9.2043   4.9892   C.ar      1 RES1   0.0000
     8 C2      13.0210  10.3192   7.0144   C.ar      1 RES1   0.0000
     9 C3      11.0547  11.1074   5.8238   C.ar      1 RES1   0.0000
    10 C4      11.9707  11.2014   6.8502   C.ar      1 RES1   0.0000
    11 C5      11.2361  10.0973   4.9155   C.ar      1 RES1   0.0000
    12 C6      13.1560   9.3421   6.0588   C.ar      1 RES1   0.0000
    13 Fe1      6.1737   8.3362   2.9240   Fe        2 RES2   1.0000
    14 O1       5.0814   6.9556   3.5788   O.3       2 RES2   0.0000
    15 O2       4.9330   8.9363   1.6340   O.3       2 RES2   0.0000
    16 N1       7.0931   7.0538   1.6496   N.2       2 RES2   0.0000
    17 N2       5.5099   9.7088   4.2687   N.2       2 RES2   0.0000
    18 N3       7.6217   9.5809   2.1114   N.ar      2 RES2   0.0000
    19 O3       0.8268  12.6081   1.7150   O.3       2 RES2   0.0000
    20 N4       7.4993   8.0214   4.4968   N.ar      2 RES2   0.0000
    21 O4       4.0891   1.7853   1.9695   O.3       2 RES2   0.0000
    22 C7       4.4940  10.4878   4.0893   C.2       2 RES2   0.0000
    23 H1       4.2524  11.0332   4.8026   H         2 RES2   0.0000
    24 C8       8.2327   7.5788   0.9667   C.ar      2 RES2   0.0000
    25 C9       6.2308   9.7583   5.4983   C.ar      2 RES2   0.0000
    26 C10      8.4629   8.9509   1.2337   C.ar      2 RES2   0.0000
    27 C11      3.7042  10.5907   2.8973   C.ar      2 RES2   0.0000
    28 C12      6.6765   5.8478   1.3700   C.2       2 RES2   0.0000
    29 H2       7.1124   5.3929   0.6860   H         2 RES2   0.0000
    30 C13      3.9574   9.8239   1.7359   C.ar      2 RES2   0.0000
    31 C14      5.6073   5.1731   2.0293   C.ar      2 RES2   0.0000
    32 C15      7.2861   8.8262   5.5748   C.ar      2 RES2   0.0000
    33 C16      2.6506  11.5309   2.9084   C.ar      2 RES2   0.0000
    34 H3       2.4897  12.0308   3.6758   H         2 RES2   0.0000
    35 C17      4.8606   5.7553   3.0892   C.ar      2 RES2   0.0000
    36 C18      1.8615  11.7165   1.8026   C.ar      2 RES2   0.0000
    37 C19      3.1146  10.0440   0.6315   C.ar      2 RES2   0.0000
    38 H4       3.2488   9.5519  -0.1459   H         2 RES2   0.0000
    39 C20      8.4773   7.1375   4.5497   C.ar      2 RES2   0.0000
    40 H5       8.6319   6.5934   3.8124   H         2 RES2   0.0000
    41 C21      8.0786   8.7369   6.7515   C.ar      2 RES2   0.0000
    42 C22      7.7989  10.8679   2.3534   C.ar      2 RES2   0.0000
    43 H6       7.2255  11.2907   2.9510   H         2 RES2   0.0000
    44 C23      9.0788   6.9064   0.1321   C.ar      2 RES2   0.0000
    45 H7       8.9470   6.0011  -0.0342   H         2 RES2   0.0000
    46 C24      9.5267   9.6326   0.6050   C.ar      2 RES2   0.0000
    47 C25      5.3510   3.8487   1.6260   C.ar      2 RES2   0.0000
    48 H8       5.8368   3.4770   0.9254   H         2 RES2   0.0000
    49 C26      2.1068  10.9566   0.6704   C.ar      2 RES2   0.0000
    50 H9       1.5714  11.0739  -0.0804   H         2 RES2   0.0000
    51 C27      6.7718  10.5068   7.7168   C.ar      2 RES2   0.0000
    52 H10      6.5991  11.0773   8.4302   H         2 RES2   0.0000
    53 C28      5.9836  10.5946   6.5498   C.ar      2 RES2   0.0000
    54 H11      5.2982  11.2202   6.4970   H         2 RES2   0.0000
    55 C29      3.8416   4.9649   3.6748   C.ar      2 RES2   0.0000
    56 H12      3.3096   5.3230   4.3485   H         2 RES2   0.0000
    57 C30      8.8134  11.6218   1.7470   C.ar      2 RES2   0.0000
    58 H13      8.8994  12.5296   1.9322   H         2 RES2   0.0000
    59 C31     10.3755   8.9119  -0.2545   C.ar      2 RES2   0.0000
    60 H14     11.0866   9.3400  -0.6737   H         2 RES2   0.0000
    61 C32      4.3867   3.1031   2.2630   C.ar      2 RES2   0.0000
    62 C33     10.1520   7.5856  -0.4729   C.ar      2 RES2   0.0000
    63 H15     10.7249   7.1162  -1.0357   H         2 RES2   0.0000
    64 C34      9.2941   6.9909   5.6888   C.ar      2 RES2   0.0000
    65 H16      9.9687   6.3503   5.6929   H         2 RES2   0.0000
    66 C35      7.7806   9.5985   7.8141   C.ar      2 RES2   0.0000
    67 H17      8.2788   9.5486   8.5972   H         2 RES2   0.0000
    68 C36      9.6670  11.0143   0.8902   C.ar      2 RES2   0.0000
    69 H18     10.3465  11.5036   0.4868   H         2 RES2   0.0000
    70 C37      9.1056   7.7663   6.7640   C.ar      2 RES2   0.0000
    71 H19      9.6476   7.6667   7.5137   H         2 RES2   0.0000
    72 C38      3.6330   3.6799   3.2603   C.ar      2 RES2   0.0000
    73 H20      2.9619   3.1798   3.6647   H         2 RES2   0.0000
    74 C39      4.9967   1.0960   1.1308   C.3       2 RES2   0.0000
    75 H21      5.0336   1.5293   0.2752   H         2 RES2   0.0000
    76 H22      4.7029   0.1893   1.0185   H         2 RES2   0.0000
    77 H23      5.8693   1.1026   1.5310   H         2 RES2   0.0000
    78 C40      0.6421  13.5006   2.7818   C.3       2 RES2   0.0000
    79 H24     -0.1065  14.0719   2.5952   H         2 RES2   0.0000
    80 H25      1.4323  14.0349   2.8924   H         2 RES2   0.0000
    81 H26      0.4748  13.0066   3.5876   H         2 RES2   0.0000
    82 S1       9.9181  16.8584   2.6180   S.2       3 RES3  -1.0000
    83 C41      8.8965  15.6179   2.9098   C.1       3 RES3   0.0000
    84 N5       8.1647  14.7418   3.0948   N.1       3 RES3   0.0000
    85 O5       6.1584  13.2805   4.4467   O.3       4 RES4   0.0000
    86 H27      6.4746  13.4648   5.2144   H         4 RES4   0.0000
    87 H28      5.4031  13.6589   4.3532   H         4 RES4   0.0000
@<TRIPOS>BOND
     1     1     8    1
     2     2     9    1
     3     3     7    1
     4     4    10    1
     5     5    12    1
     6     6    11    1
     7     7    11   ar
     8     8    10   ar
     9     9    10   ar
    10    11     9   ar
    11    12     7   ar
    12     8    12   ar
    13    13    14    1
    14    14    35    1
    15    15    13    1
    16    16    13    1
    17    17    13    1
    18    18    13    1
    19    19    36    1
    20    20    13    1
    21    21    61    1
    22    22    17    2
    23    23    22    1
    24    24    16    1
    25    25    17    1
    26    26    18   ar
    27    27    22    1
    28    28    16    2
    29    29    28    1
    30    30    15    1
    31    31    28    1
    32    32    20   ar
    33    33    27   ar
    34    34    33    1
    35    35    31   ar
    36    36    33   ar
    37    37    30   ar
    38    38    37    1
    39    39    20   ar
    40    40    39    1
    41    41    32   ar
    42    42    18   ar
    43    43    42    1
    44    44    24   ar
    45    45    44    1
    46    46    26   ar
    47    47    31   ar
    48    48    47    1
    49    49    36   ar
    50    50    49    1
    51    51    52    1
    52    53    25   ar
    53    54    53    1
    54    55    35   ar
    55    56    55    1
    56    57    42   ar
    57    58    57    1
    58    59    46   ar
    59    60    59    1
    60    61    47   ar
    61    62    44   ar
    62    63    62    1
    63    64    39   ar
    64    65    64    1
    65    66    41   ar
    66    67    66    1
    67    68    46   ar
    68    69    68    1
    69    70    41   ar
    70    71    70    1
    71    72    55   ar
    72    73    72    1
    73    74    21    1
    74    75    74    1
    75    76    74    1
    76    77    74    1
    77    78    19    1
    78    79    78    1
    79    80    78    1
    80    81    78    1
    81    24    26   ar
    82    25    32   ar
    83    27    30   ar
    84    37    49   ar
    85    51    53   ar
    86    51    66   ar
    87    57    68   ar
    88    59    62   ar
    89    61    72   ar
    90    64    70   ar
    91    82    83    1
    92    83    84    3
    93    85    86    1
    94    87    85    1
@<TRIPOS>SUBSTRUCTURE
     1 RES1        1 GROUP             0 ****  ****    0  
     2 RES2       13 GROUP             0 ****  ****    0  
     3 RES3       82 GROUP             0 ****  ****    0  
     4 RES4       85 GROUP             0 ****  ****    0  
@<TRIPOS>CRYSIN
   11.5620   12.6887   14.2701   83.9710   78.5790   89.5960     2     1
