@<TRIPOS>MOLECULE
OPEYAM14
    87    94     4     0     0
SMALL
USER_CHARGES
****
Generated from the CSD

@<TRIPOS>ATOM
     1 I1       6.1459   3.5569   5.2749   I         1 RES1   0.0000
     2 I2      11.1273   1.6830   8.2282   I         1 RES1   0.0000
     3 I3       7.9976   6.3720  10.2911   I         1 RES1   0.0000
     4 F1       8.6924   1.8223   6.1584   F         1 RES1   0.0000
     5 F2       6.3240   5.5626   7.7192   F         1 RES1   0.0000
     6 F3      10.2302   4.1860   9.9030   F         1 RES1   0.0000
     7 C1       7.4841   3.6960   6.8925   C.ar      1 RES1   0.0000
     8 C2       8.2623   4.8823   8.8663   C.ar      1 RES1   0.0000
     9 C3       9.5065   2.9707   8.0358   C.ar      1 RES1   0.0000
    10 C4       8.5561   2.8383   7.0399   C.ar      1 RES1   0.0000
    11 C5       7.3567   4.6998   7.8319   C.ar      1 RES1   0.0000
    12 C6       9.3295   4.0090   8.9283   C.ar      1 RES1   0.0000
    13 Fe1     14.3450   5.7194  10.8545   Fe        2 RES2   1.0000
    14 O1      15.5174   6.9804  10.1304   O.3       2 RES2   0.0000
    15 O2      15.5538   5.2330  12.2072   O.3       2 RES2   0.0000
    16 O3      19.8366   1.7472  12.1170   O.3       2 RES2   0.0000
    17 O4      16.6913  12.1181  11.7658   O.3       2 RES2   0.0000
    18 N1      15.0331   4.4384   9.5694   N.2       2 RES2   0.0000
    19 N2      13.5455   6.9594  12.1101   N.2       2 RES2   0.0000
    20 N3      13.0450   6.0973   9.4021   N.ar      2 RES2   0.0000
    21 N4      13.0043   4.4727  11.6225   N.ar      2 RES2   0.0000
    22 C7      16.0937   3.7072   9.7313   C.2       2 RES2   0.0000
    23 H1      16.3674   3.1631   9.0021   H         2 RES2   0.0000
    24 C8      15.7865   8.1685  10.6473   C.ar      2 RES2   0.0000
    25 C9      14.0211   8.1347  12.4090   C.2       2 RES2   0.0000
    26 H2      13.6169   8.6039  13.1294   H         2 RES2   0.0000
    27 C10     14.2987   4.3832   8.3553   C.ar      2 RES2   0.0000
    28 C11     15.0995   8.7645  11.7327   C.ar      2 RES2   0.0000
    29 C12     13.2304   5.3075   8.2961   C.ar      2 RES2   0.0000
    30 C13     12.3999   6.4491  12.7823   C.ar      2 RES2   0.0000
    31 C14     12.1648   5.0922  12.5178   C.ar      2 RES2   0.0000
    32 C15     17.9853   2.7551  10.9021   C.ar      2 RES2   0.0000
    33 H3      18.1807   2.2570  10.1178   H         2 RES2   0.0000
    34 C16     16.5710   4.4010  12.0812   C.ar      2 RES2   0.0000
    35 C17     16.8783   3.6605  10.9187   C.ar      2 RES2   0.0000
    36 C18     18.7678   2.6070  12.0220   C.ar      2 RES2   0.0000
    37 C19     17.4249   4.2266  13.1969   C.ar      2 RES2   0.0000
    38 H4      17.2605   4.7285  13.9864   H         2 RES2   0.0000
    39 C20     16.3707  10.8116  11.4875   C.ar      2 RES2   0.0000
    40 C21     12.0698   6.9916   9.3842   C.ar      2 RES2   0.0000
    41 H5      11.9327   7.5380  10.1486   H         2 RES2   0.0000
    42 C22     15.4100  10.0878  12.1404   C.ar      2 RES2   0.0000
    43 H6      14.9480  10.4759  12.8745   H         2 RES2   0.0000
    44 C23     11.1079   4.3923  13.1418   C.ar      2 RES2   0.0000
    45 C24     16.8139   8.9289  10.0344   C.ar      2 RES2   0.0000
    46 H7      17.3211   8.5487   9.3264   H         2 RES2   0.0000
    47 C25     11.5464   7.1338  13.6197   C.ar      2 RES2   0.0000
    48 H8      11.6817   8.0589  13.7899   H         2 RES2   0.0000
    49 C26     13.7133   3.6277   6.1528   C.ar      2 RES2   0.0000
    50 H9      13.8767   3.0427   5.4233   H         2 RES2   0.0000
    51 C27     12.4239   5.4075   7.1446   C.ar      2 RES2   0.0000
    52 C28     12.8404   3.1788  11.3691   C.ar      2 RES2   0.0000
    53 H10     13.4189   2.7512  10.7491   H         2 RES2   0.0000
    54 C29     14.5197   3.5455   7.2975   C.ar      2 RES2   0.0000
    55 H11     15.2198   2.9048   7.3377   H         2 RES2   0.0000
    56 C30     18.4807   3.3545  13.1693   C.ar      2 RES2   0.0000
    57 H12     19.0268   3.2565  13.9410   H         2 RES2   0.0000
    58 C31     17.0825  10.2112  10.4517   C.ar      2 RES2   0.0000
    59 H13     17.7733  10.7009  10.0224   H         2 RES2   0.0000
    60 C32     10.2505   5.1271  14.0068   C.ar      2 RES2   0.0000
    61 H14      9.5228   4.6925  14.4357   H         2 RES2   0.0000
    62 C33     11.4043   6.3814   7.1542   C.ar      2 RES2   0.0000
    63 H15     10.8468   6.4965   6.3941   H         2 RES2   0.0000
    64 C34     11.2243   7.1582   8.2644   C.ar      2 RES2   0.0000
    65 H16     10.5322   7.8084   8.2837   H         2 RES2   0.0000
    66 C35     12.6975   4.5384   6.0716   C.ar      2 RES2   0.0000
    67 H17     12.1696   4.5840   5.2820   H         2 RES2   0.0000
    68 C36     10.9681   3.0161  12.8594   C.ar      2 RES2   0.0000
    69 H18     10.2785   2.5087  13.2702   H         2 RES2   0.0000
    70 C37     20.0168   0.8232  11.0605   C.3       2 RES2   0.0000
    71 H19     20.1757   1.3098  10.2248   H         2 RES2   0.0000
    72 H20     19.2127   0.2706  10.9689   H         2 RES2   0.0000
    73 H21     20.7868   0.2498  11.2564   H         2 RES2   0.0000
    74 C38     11.8325   2.4273  11.9958   C.ar      2 RES2   0.0000
    75 H22     11.7549   1.4981  11.8121   H         2 RES2   0.0000
    76 C39     15.7987  12.8271  12.6211   C.3       2 RES2   0.0000
    77 H23     14.8982  12.8166  12.2348   H         2 RES2   0.0000
    78 H24     16.1030  13.7546  12.7139   H         2 RES2   0.0000
    79 H25     15.7818  12.3995  13.5023   H         2 RES2   0.0000
    80 C40     10.4735   6.4546  14.2175   C.ar      2 RES2   0.0000
    81 H26      9.8852   6.9350  14.7881   H         2 RES2   0.0000
    82 S1       4.2902   4.0158   2.6213   S.2       3 RES3  -1.0000
    83 N5       2.2546   2.1465   3.0661   N.1       3 RES3   0.0000
    84 C41      3.0956   2.9166   2.8870   C.1       3 RES3   0.0000
    85 O5       0.3178   0.6273   4.4297   O.3       4 RES4   0.0000
    86 H27     -0.2599   1.1049   4.8303   H         4 RES4   0.0000
    87 H28      0.8413   1.1297   3.9855   H         4 RES4   0.0000
@<TRIPOS>BOND
     1     1     7    1
     2     2     9    1
     3     3     8    1
     4     4    10    1
     5     5    11    1
     6     6    12    1
     7     7    10   ar
     8     8    11   ar
     9     9    10   ar
    10    11     7   ar
    11    12     8   ar
    12     9    12   ar
    13    13    14    1
    14    14    24    1
    15    15    13    1
    16    16    36    1
    17    17    39    1
    18    18    13    1
    19    19    13    1
    20    20    13    1
    21    21    13    1
    22    22    18    2
    23    23    22    1
    24    24    28   ar
    25    25    19    2
    26    26    25    1
    27    27    18    1
    28    28    25    1
    29    29    20   ar
    30    30    19    1
    31    31    21   ar
    32    32    33    1
    33    34    15    1
    34    35    22    1
    35    36    32   ar
    36    37    34   ar
    37    38    37    1
    38    39    42   ar
    39    40    20   ar
    40    41    40    1
    41    42    28   ar
    42    43    42    1
    43    44    31   ar
    44    45    24   ar
    45    46    45    1
    46    47    30   ar
    47    48    47    1
    48    49    50    1
    49    51    29   ar
    50    52    21   ar
    51    53    52    1
    52    54    27   ar
    53    55    54    1
    54    56    36   ar
    55    57    56    1
    56    58    39   ar
    57    59    58    1
    58    60    44   ar
    59    61    60    1
    60    62    51   ar
    61    63    62    1
    62    64    40   ar
    63    65    64    1
    64    66    49   ar
    65    67    66    1
    66    68    44   ar
    67    69    68    1
    68    70    16    1
    69    71    70    1
    70    72    70    1
    71    73    70    1
    72    74    52   ar
    73    75    74    1
    74    76    17    1
    75    77    76    1
    76    78    76    1
    77    79    76    1
    78    80    47   ar
    79    81    80    1
    80    27    29   ar
    81    30    31   ar
    82    32    35   ar
    83    34    35   ar
    84    37    56   ar
    85    45    58   ar
    86    49    54   ar
    87    51    66   ar
    88    60    80   ar
    89    62    64   ar
    90    68    74   ar
    91    82    84    1
    92    83    84    3
    93    85    86    1
    94    87    85    1
@<TRIPOS>SUBSTRUCTURE
     1 RES1        1 GROUP             0 ****  ****    0  
     2 RES2       13 GROUP             0 ****  ****    0  
     3 RES3       82 GROUP             0 ****  ****    0  
     4 RES4       85 GROUP             0 ****  ****    0  
@<TRIPOS>CRYSIN
   11.7149   12.3629   14.1853   83.6590   77.6690   89.1870     2     1
