@<TRIPOS>MOLECULE
OPEYAM08
    87    94     4     0     0
SMALL
USER_CHARGES
****
Generated from the CSD

@<TRIPOS>ATOM
     1 I1      14.2636  10.4235   8.6748   I         1 RES1   0.0000
     2 I2       9.4368  12.4850   5.6041   I         1 RES1   0.0000
     3 I3      12.5121   7.7776   3.5381   I         1 RES1   0.0000
     4 F1      14.1119   8.4899   6.1753   F         1 RES1   0.0000
     5 F2      11.7789  12.2317   7.7583   F         1 RES1   0.0000
     6 F3      10.3327  10.0083   3.8958   F         1 RES1   0.0000
     7 C1      12.2435   9.2444   4.9800   C.ar      1 RES1   0.0000
     8 C2      11.0134  11.1481   5.8278   C.ar      1 RES1   0.0000
     9 C3      12.9722  10.3461   7.0203   C.ar      1 RES1   0.0000
    10 C4      13.1044   9.3683   6.0557   C.ar      1 RES1   0.0000
    11 C5      11.9265  11.2355   6.8480   C.ar      1 RES1   0.0000
    12 C6      11.1902  10.1432   4.9077   C.ar      1 RES1   0.0000
    13 Fe1      6.1188   8.3740   2.9124   Fe        2 RES2   1.0000
    14 O1       5.0364   6.9621   3.5484   O.3       2 RES2   0.0000
    15 O2       4.8646   9.0106   1.6359   O.3       2 RES2   0.0000
    16 N1       5.4570   9.7753   4.2683   N.2       2 RES2   0.0000
    17 N2       7.0703   7.0723   1.6331   N.2       2 RES2   0.0000
    18 O3       0.7827  12.7068   1.7304   O.3       2 RES2   0.0000
    19 N3       7.5923   9.6148   2.0876   N.ar      2 RES2   0.0000
    20 N4       7.4482   8.0714   4.5143   N.ar      2 RES2   0.0000
    21 O4       4.1031   1.7860   1.9653   O.3       2 RES2   0.0000
    22 C7       4.4487  10.5613   4.0835   C.2       2 RES2   0.0000
    23 H1       4.2141  11.1144   4.7939   H         2 RES2   0.0000
    24 C8       8.2062   7.6010   0.9604   C.ar      2 RES2   0.0000
    25 C9       6.6652   5.8667   1.3760   C.2       2 RES2   0.0000
    26 H2       7.1131   5.4062   0.7039   H         2 RES2   0.0000
    27 C10      5.5980   5.1802   2.0264   C.ar      2 RES2   0.0000
    28 C11      3.6588  10.6682   2.9007   C.ar      2 RES2   0.0000
    29 C12      6.1836   9.8202   5.4998   C.ar      2 RES2   0.0000
    30 C13      4.8287   5.7599   3.0716   C.ar      2 RES2   0.0000
    31 C14      3.9068   9.8966   1.7415   C.ar      2 RES2   0.0000
    32 C15      8.4402   8.9787   1.2175   C.ar      2 RES2   0.0000
    33 C16      7.2382   8.8959   5.5846   C.ar      2 RES2   0.0000
    34 C17      2.6079  11.6112   2.9201   C.ar      2 RES2   0.0000
    35 H3       2.4487  12.1067   3.6899   H         2 RES2   0.0000
    36 C18      1.8181  11.8025   1.8110   C.ar      2 RES2   0.0000
    37 C19      9.5054   9.6539   0.5921   C.ar      2 RES2   0.0000
    38 C20      3.0510  10.1253   0.6366   C.ar      2 RES2   0.0000
    39 H4       3.1761   9.6315  -0.1417   H         2 RES2   0.0000
    40 C21      9.0634   6.9266   0.1265   C.ar      2 RES2   0.0000
    41 H5       8.9300   6.0217  -0.0430   H         2 RES2   0.0000
    42 C22      7.7761  10.8988   2.3267   C.ar      2 RES2   0.0000
    43 H6       7.2093  11.3259   2.9278   H         2 RES2   0.0000
    44 C23      8.4212   7.1881   4.5769   C.ar      2 RES2   0.0000
    45 H7       8.5728   6.6361   3.8446   H         2 RES2   0.0000
    46 C24      8.0285   8.8134   6.7687   C.ar      2 RES2   0.0000
    47 C25      5.3511   3.8518   1.6345   C.ar      2 RES2   0.0000
    48 H8       5.8487   3.4791   0.9428   H         2 RES2   0.0000
    49 C26      2.0558  11.0416   0.6810   C.ar      2 RES2   0.0000
    50 H9       1.5185  11.1627  -0.0678   H         2 RES2   0.0000
    51 C27      5.9475  10.6578   6.5491   C.ar      2 RES2   0.0000
    52 H10      5.2629  11.2846   6.4915   H         2 RES2   0.0000
    53 C28      3.8197   4.9626   3.6526   C.ar      2 RES2   0.0000
    54 H11      3.2823   5.3201   4.3215   H         2 RES2   0.0000
    55 C29     10.3583   8.9327  -0.2738   C.ar      2 RES2   0.0000
    56 H12     11.0608   9.3629  -0.7042   H         2 RES2   0.0000
    57 C30      6.7254  10.5857   7.7111   C.ar      2 RES2   0.0000
    58 H13      6.5466  11.1622   8.4181   H         2 RES2   0.0000
    59 C31      4.3905   3.1021   2.2544   C.ar      2 RES2   0.0000
    60 C32      8.7920  11.6504   1.7123   C.ar      2 RES2   0.0000
    61 H14      8.8726  12.5605   1.8849   H         2 RES2   0.0000
    62 C33      9.6481  11.0391   0.8715   C.ar      2 RES2   0.0000
    63 H15     10.3343  11.5246   0.4732   H         2 RES2   0.0000
    64 C34     10.1408   7.5982  -0.4726   C.ar      2 RES2   0.0000
    65 H16     10.7233   7.1228  -1.0204   H         2 RES2   0.0000
    66 C35      9.0521   7.8228   6.7812   C.ar      2 RES2   0.0000
    67 H17      9.5867   7.7191   7.5355   H         2 RES2   0.0000
    68 C36      9.2456   7.0476   5.7194   C.ar      2 RES2   0.0000
    69 H18      9.9240   6.4121   5.7272   H         2 RES2   0.0000
    70 C37      7.7398   9.6818   7.8195   C.ar      2 RES2   0.0000
    71 H19      8.2423   9.6448   8.6012   H         2 RES2   0.0000
    72 C38      3.6225   3.6852   3.2482   C.ar      2 RES2   0.0000
    73 H20      2.9493   3.1836   3.6495   H         2 RES2   0.0000
    74 C39      5.0104   1.0953   1.1341   C.3       2 RES2   0.0000
    75 H21      5.0792   1.5478   0.2899   H         2 RES2   0.0000
    76 H22      4.6947   0.1996   0.9914   H         2 RES2   0.0000
    77 H23      5.8724   1.0679   1.5541   H         2 RES2   0.0000
    78 C40      0.6071  13.6063   2.7978   C.3       2 RES2   0.0000
    79 H24     -0.1242  14.1967   2.6012   H         2 RES2   0.0000
    80 H25      1.4093  14.1205   2.9179   H         2 RES2   0.0000
    81 H26      0.4171  13.1170   3.6007   H         2 RES2   0.0000
    82 S1       9.8317  16.9487   2.6251   S.2       3 RES3  -1.0000
    83 N5       8.1496  14.7721   3.1008   N.1       3 RES3   0.0000
    84 C41      8.8591  15.6771   2.9076   C.1       3 RES3   0.0000
    85 O5       6.1152  13.3389   4.4476   O.3       4 RES4   0.0000
    86 H27      5.4926  13.8514   4.7166   H         4 RES4   0.0000
    87 H28      6.6769  13.7877   3.9952   H         4 RES4   0.0000
@<TRIPOS>BOND
     1     1     9    1
     2     2     8    1
     3     3     7    1
     4     4    10    1
     5     5    11    1
     6     6    12    1
     7     7    10   ar
     8     8    11   ar
     9     9    10   ar
    10    11     9   ar
    11    12     7   ar
    12     8    12   ar
    13    13    14    1
    14    14    30    1
    15    15    13    1
    16    16    13    1
    17    17    13    1
    18    18    36    1
    19    19    13    1
    20    20    13    1
    21    21    59    1
    22    22    16    2
    23    23    22    1
    24    24    17    1
    25    25    17    2
    26    26    25    1
    27    27    25    1
    28    28    22    1
    29    29    16    1
    30    30    27   ar
    31    31    15    1
    32    32    19   ar
    33    33    20   ar
    34    34    28   ar
    35    35    34    1
    36    36    34   ar
    37    37    32   ar
    38    38    31   ar
    39    39    38    1
    40    40    24   ar
    41    41    40    1
    42    42    19   ar
    43    43    42    1
    44    44    20   ar
    45    45    44    1
    46    46    33   ar
    47    47    27   ar
    48    48    47    1
    49    49    36   ar
    50    50    49    1
    51    51    29   ar
    52    52    51    1
    53    53    30   ar
    54    54    53    1
    55    55    37   ar
    56    56    55    1
    57    57    51   ar
    58    58    57    1
    59    59    47   ar
    60    60    42   ar
    61    61    60    1
    62    62    37   ar
    63    63    62    1
    64    64    40   ar
    65    65    64    1
    66    66    46   ar
    67    67    66    1
    68    68    44   ar
    69    69    68    1
    70    70    46   ar
    71    71    70    1
    72    72    53   ar
    73    73    72    1
    74    74    21    1
    75    75    74    1
    76    76    74    1
    77    77    74    1
    78    78    18    1
    79    79    78    1
    80    80    78    1
    81    81    78    1
    82    24    32   ar
    83    28    31   ar
    84    29    33   ar
    85    38    49   ar
    86    55    64   ar
    87    57    70   ar
    88    59    72   ar
    89    60    62   ar
    90    66    68   ar
    91    82    84    1
    92    83    84    3
    93    85    86    1
    94    87    85    1
@<TRIPOS>SUBSTRUCTURE
     1 RES1        1 GROUP             0 ****  ****    0  
     2 RES2       13 GROUP             0 ****  ****    0  
     3 RES3       82 GROUP             0 ****  ****    0  
     4 RES4       85 GROUP             0 ****  ****    0  
@<TRIPOS>CRYSIN
   11.5439   12.7502   14.2529   83.9580   78.7290   89.7010     2     1
