@<TRIPOS>MOLECULE
OPEYAM24
    87    94     4     0     0
SMALL
USER_CHARGES
****
Generated from the CSD

@<TRIPOS>ATOM
     1 I1       8.7441  10.3014   8.5274   I         1 RES1   0.0000
     2 I2       3.7549  12.1642   5.5754   I         1 RES1   0.0000
     3 I3       6.9254   7.5113   3.4829   I         1 RES1   0.0000
     4 F1       6.1929  12.0333   7.6438   F         1 RES1   0.0000
     5 F2       8.5897   8.3149   6.0633   F         1 RES1   0.0000
     6 F3       4.6826   9.6911   3.8726   F         1 RES1   0.0000
     7 C1       6.6614   8.9926   4.9233   C.ar      1 RES1   0.0000
     8 C2       7.4186  10.1759   6.8986   C.ar      1 RES1   0.0000
     9 C3       7.5529   9.1714   5.9496   C.ar      1 RES1   0.0000
    10 C4       5.3948  10.8937   5.7521   C.ar      1 RES1   0.0000
    11 C5       5.5807   9.8619   4.8597   C.ar      1 RES1   0.0000
    12 C6       6.3370  11.0268   6.7564   C.ar      1 RES1   0.0000
    13 Fe1      0.5727   8.1556   2.9310   Fe        2 RES2   1.0000
    14 O1      -0.6350   8.6388   1.5741   O.3       2 RES2   0.0000
    15 O2      -0.5941   6.8854   3.6545   O.3       2 RES2   0.0000
    16 O3      -4.9040  12.1431   1.6543   O.3       2 RES2   0.0000
    17 O4      -1.7714   1.7581   2.0002   O.3       2 RES2   0.0000
    18 N1      -0.1202   9.4330   4.2179   N.2       2 RES2   0.0000
    19 N2       1.8748   7.7812   4.3815   N.ar      2 RES2   0.0000
    20 N3       1.9081   9.4056   2.1666   N.ar      2 RES2   0.0000
    21 N4       1.3735   6.9202   1.6715   N.2       2 RES2   0.0000
    22 C7      -1.1754  10.1710   4.0488   C.2       2 RES2   0.0000
    23 H1      -1.4460  10.7194   4.7751   H         2 RES2   0.0000
    24 C8       0.6112   9.4793   5.4371   C.ar      2 RES2   0.0000
    25 C9      -0.1859   5.1139   2.0417   C.ar      2 RES2   0.0000
    26 C10      0.8950   5.7465   1.3648   C.2       2 RES2   0.0000
    27 H2       1.2961   5.2826   0.6392   H         2 RES2   0.0000
    28 C11     -1.6501   9.4737   1.6991   C.ar      2 RES2   0.0000
    29 C12      2.5156   7.4370   0.9987   C.ar      2 RES2   0.0000
    30 C13      2.7511   8.7974   1.2723   C.ar      2 RES2   0.0000
    31 C14     -1.9588  10.2235   2.8636   C.ar      2 RES2   0.0000
    32 C15     -0.4926   3.7944   1.6204   C.ar      2 RES2   0.0000
    33 H3      -0.0322   3.4146   0.8808   H         2 RES2   0.0000
    34 C16      1.6739   8.5651   5.4965   C.ar      2 RES2   0.0000
    35 C17     -2.4981   9.6495   0.5802   C.ar      2 RES2   0.0000
    36 H4      -2.3298   9.1508  -0.2102   H         2 RES2   0.0000
    37 C18     -0.8645   5.7064   3.1344   C.ar      2 RES2   0.0000
    38 C19     -3.0582  11.1285   2.8678   C.ar      2 RES2   0.0000
    39 H5      -3.2529  11.6310   3.6502   H         2 RES2   0.0000
    40 C20      2.0678  10.6963   2.4243   C.ar      2 RES2   0.0000
    41 H6       1.4880  11.1177   3.0481   H         2 RES2   0.0000
    42 C21      3.8050   9.4953   0.6396   C.ar      2 RES2   0.0000
    43 C22     -1.4519   3.0645   2.2765   C.ar      2 RES2   0.0000
    44 C23     -1.8886   4.9397   3.7477   C.ar      2 RES2   0.0000
    45 H7      -2.3932   5.3166   4.4591   H         2 RES2   0.0000
    46 C24     -3.5575  10.5226   0.6092   C.ar      2 RES2   0.0000
    47 H8      -4.1078  10.6127  -0.1591   H         2 RES2   0.0000
    48 C25     -3.8408  11.2822   1.7502   C.ar      2 RES2   0.0000
    49 C26      2.4810   8.4596   6.6486   C.ar      2 RES2   0.0000
    50 C27      4.6579   8.7708  -0.2335   C.ar      2 RES2   0.0000
    51 H9       5.3760   9.2138  -0.6714   H         2 RES2   0.0000
    52 C28     -2.1620   3.6573   3.3264   C.ar      2 RES2   0.0000
    53 H10     -2.8486   3.1637   3.7594   H         2 RES2   0.0000
    54 C29      0.3709  10.3117   6.4967   C.ar      2 RES2   0.0000
    55 H11     -0.3311  10.9503   6.4513   H         2 RES2   0.0000
    56 C30      3.0696  11.4593   1.7999   C.ar      2 RES2   0.0000
    57 H12      3.1458  12.3880   1.9884   H         2 RES2   0.0000
    58 C31      2.8547   6.8900   4.4025   C.ar      2 RES2   0.0000
    59 H13      2.9940   6.3417   3.6402   H         2 RES2   0.0000
    60 C32      1.1675  10.2208   7.6584   C.ar      2 RES2   0.0000
    61 H14      0.9914  10.7940   8.3943   H         2 RES2   0.0000
    62 C33      3.5157   7.4882   6.6362   C.ar      2 RES2   0.0000
    63 H15      4.0732   7.3683   7.3956   H         2 RES2   0.0000
    64 C34      3.9326  10.8708   0.9269   C.ar      2 RES2   0.0000
    65 H16      4.6171  11.3831   0.5124   H         2 RES2   0.0000
    66 C35      4.4471   7.4346  -0.4434   C.ar      2 RES2   0.0000
    67 H17      5.0423   6.9558  -1.0095   H         2 RES2   0.0000
    68 C36      3.3698   6.7492   0.1561   C.ar      2 RES2   0.0000
    69 H18      3.2330   5.8253  -0.0159   H         2 RES2   0.0000
    70 C37      2.1994   9.3087   7.7371   C.ar      2 RES2   0.0000
    71 H19      2.7220   9.2530   8.5291   H         2 RES2   0.0000
    72 C38      3.6977   6.7300   5.5186   C.ar      2 RES2   0.0000
    73 H20      4.3984   6.0894   5.4920   H         2 RES2   0.0000
    74 C39     -5.0974  13.0514   2.7199   C.3       2 RES2   0.0000
    75 H21     -5.8672  13.6259   2.5252   H         2 RES2   0.0000
    76 H22     -4.2957  13.6051   2.8272   H         2 RES2   0.0000
    77 H23     -5.2631  12.5537   3.5482   H         2 RES2   0.0000
    78 C40     -0.8808   1.0466   1.1438   C.3       2 RES2   0.0000
    79 H24     -0.8614   1.4762   0.2634   H         2 RES2   0.0000
    80 H25     -1.1885   0.1211   1.0493   H         2 RES2   0.0000
    81 H26      0.0195   1.0537   1.5309   H         2 RES2   0.0000
    82 S1      10.5793   9.8206  11.1957   S.2       3 RES3  -1.0000
    83 N5      12.6461  11.6668  10.7624   N.1       3 RES3   0.0000
    84 C41     11.7853  10.9053  10.9309   C.1       3 RES3   0.0000
    85 O5      14.5193  13.2127   9.3534   O.3       4 RES4   0.0000
    86 H27     14.9221  13.5814  10.0057   H         4 RES4   0.0000
    87 H28     15.0537  12.6860   8.9525   H         4 RES4   0.0000
@<TRIPOS>BOND
     1     1     8    1
     2     2    10    1
     3     3     7    1
     4     4    12    1
     5     5     9    1
     6     6    11    1
     7     7     9   ar
     8     8     9   ar
     9    10    11   ar
    10    11     7   ar
    11    12     8   ar
    12    10    12   ar
    13    13    14    1
    14    14    28    1
    15    15    13    1
    16    16    48    1
    17    17    43    1
    18    18    13    1
    19    19    13    1
    20    20    13    1
    21    21    13    1
    22    22    18    2
    23    23    22    1
    24    24    18    1
    25    25    26    1
    26    26    21    2
    27    27    26    1
    28    28    31   ar
    29    29    21    1
    30    30    20   ar
    31    31    22    1
    32    32    25   ar
    33    33    32    1
    34    34    19   ar
    35    35    28   ar
    36    36    35    1
    37    37    15    1
    38    38    31   ar
    39    39    38    1
    40    40    20   ar
    41    41    40    1
    42    42    30   ar
    43    43    32   ar
    44    44    37   ar
    45    45    44    1
    46    46    35   ar
    47    47    46    1
    48    48    38   ar
    49    49    34   ar
    50    50    42   ar
    51    51    50    1
    52    52    43   ar
    53    53    52    1
    54    54    24   ar
    55    55    54    1
    56    56    40   ar
    57    57    56    1
    58    58    19   ar
    59    59    58    1
    60    60    54   ar
    61    61    60    1
    62    62    49   ar
    63    63    62    1
    64    64    42   ar
    65    65    64    1
    66    66    50   ar
    67    67    66    1
    68    68    29   ar
    69    69    68    1
    70    70    49   ar
    71    71    70    1
    72    72    58   ar
    73    73    72    1
    74    74    16    1
    75    75    74    1
    76    76    74    1
    77    77    74    1
    78    78    17    1
    79    79    78    1
    80    80    78    1
    81    81    78    1
    82    24    34   ar
    83    25    37   ar
    84    29    30   ar
    85    44    52   ar
    86    46    48   ar
    87    56    64   ar
    88    60    70   ar
    89    62    72   ar
    90    66    68   ar
    91    82    84    1
    92    83    84    3
    93    85    86    1
    94    87    85    1
@<TRIPOS>SUBSTRUCTURE
     1 RES1        1 GROUP             0 ****  ****    0  
     2 RES2       13 GROUP             0 ****  ****    0  
     3 RES3       82 GROUP             0 ****  ****    0  
     4 RES4       85 GROUP             0 ****  ****    0  
@<TRIPOS>CRYSIN
   11.6939   12.3587   14.2174   83.8050   77.7580   89.1790     2     1
