@<TRIPOS>MOLECULE
OPEYAM20
    87    94     4     0     0
SMALL
USER_CHARGES
****
Generated from the CSD

@<TRIPOS>ATOM
     1 I1       6.1377   3.5344   5.2821   I         1 RES1   0.0000
     2 I2      11.1567   1.6949   8.2228   I         1 RES1   0.0000
     3 I3       7.9658   6.3408  10.3223   I         1 RES1   0.0000
     4 F1       8.7031   1.8067   6.1620   F         1 RES1   0.0000
     5 F2       6.2887   5.5254   7.7473   F         1 RES1   0.0000
     6 F3      10.2211   4.1650   9.9281   F         1 RES1   0.0000
     7 C1       7.4699   3.6671   6.9077   C.ar      1 RES1   0.0000
     8 C2       8.2296   4.8493   8.8873   C.ar      1 RES1   0.0000
     9 C3       9.5010   2.9552   8.0464   C.ar      1 RES1   0.0000
    10 C4       7.3326   4.6744   7.8589   C.ar      1 RES1   0.0000
    11 C5       9.3283   3.9919   8.9507   C.ar      1 RES1   0.0000
    12 C6       8.5521   2.8085   7.0511   C.ar      1 RES1   0.0000
    13 Fe1     14.3113   5.6930  10.8564   Fe        2 RES2   1.0000
    14 O1      15.4775   6.9612  10.1307   O.3       2 RES2   0.0000
    15 O2      15.5249   5.2190  12.2136   O.3       2 RES2   0.0000
    16 O3      19.7937   1.7018  12.1378   O.3       2 RES2   0.0000
    17 O4      16.6640  12.0966  11.7849   O.3       2 RES2   0.0000
    18 N1      15.0013   4.4168   9.5683   N.2       2 RES2   0.0000
    19 N2      12.9815   4.4429  11.6195   N.ar      2 RES2   0.0000
    20 N3      13.0097   6.0646   9.4042   N.ar      2 RES2   0.0000
    21 N4      13.5153   6.9249  12.1185   N.2       2 RES2   0.0000
    22 C7      16.0621   3.6777   9.7337   C.2       2 RES2   0.0000
    23 H1      16.3376   3.1343   9.0046   H         2 RES2   0.0000
    24 C8      13.9939   8.1068  12.4190   C.2       2 RES2   0.0000
    25 H2      13.5920   8.5756  13.1409   H         2 RES2   0.0000
    26 C9      17.3808   4.1989  13.2172   C.ar      2 RES2   0.0000
    27 H3      17.2091   4.6917  14.0115   H         2 RES2   0.0000
    28 C10     14.2676   4.3561   8.3552   C.ar      2 RES2   0.0000
    29 C11     16.5418   4.3811  12.0937   C.ar      2 RES2   0.0000
    30 C12     16.8371   3.6231  10.9192   C.ar      2 RES2   0.0000
    31 C13     15.0627   8.7304  11.7491   C.ar      2 RES2   0.0000
    32 C14     17.9478   2.7205  10.9178   C.ar      2 RES2   0.0000
    33 H4      18.1470   2.2231  10.1336   H         2 RES2   0.0000
    34 C15     13.1997   5.2780   8.2835   C.ar      2 RES2   0.0000
    35 C16     10.2349   5.0691  14.0291   C.ar      2 RES2   0.0000
    36 H5       9.5242   4.6247  14.4774   H         2 RES2   0.0000
    37 C17     18.7294   2.5645  12.0331   C.ar      2 RES2   0.0000
    38 C18     12.3708   6.4139  12.7926   C.ar      2 RES2   0.0000
    39 C19     15.7518   8.1447  10.6504   C.ar      2 RES2   0.0000
    40 C20     12.3953   5.3818   7.1421   C.ar      2 RES2   0.0000
    41 C21     12.1306   5.0509  12.5266   C.ar      2 RES2   0.0000
    42 C22     17.0522  10.1911  10.4547   C.ar      2 RES2   0.0000
    43 H6      17.7368  10.6846  10.0183   H         2 RES2   0.0000
    44 C23     15.3854  10.0593  12.1654   C.ar      2 RES2   0.0000
    45 H7      14.9313  10.4420  12.9072   H         2 RES2   0.0000
    46 C24     16.3413  10.7853  11.5065   C.ar      2 RES2   0.0000
    47 C25     11.8180   2.3852  11.9945   C.ar      2 RES2   0.0000
    48 H8      11.7484   1.4556  11.8137   H         2 RES2   0.0000
    49 C26     18.4429   3.3236  13.1841   C.ar      2 RES2   0.0000
    50 H9      18.9924   3.2294  13.9524   H         2 RES2   0.0000
    51 C27     14.5098   3.5262   7.2896   C.ar      2 RES2   0.0000
    52 H10     15.2150   2.8906   7.3313   H         2 RES2   0.0000
    53 C28     11.0834   4.3471  13.1510   C.ar      2 RES2   0.0000
    54 C29     12.8200   3.1504  11.3672   C.ar      2 RES2   0.0000
    55 H11     13.3982   2.7280  10.7438   H         2 RES2   0.0000
    56 C30     13.7110   3.6183   6.1316   C.ar      2 RES2   0.0000
    57 H12     13.8894   3.0421   5.3973   H         2 RES2   0.0000
    58 C31     12.0176   6.9439   9.3835   C.ar      2 RES2   0.0000
    59 H13     11.8697   7.4789  10.1553   H         2 RES2   0.0000
    60 C32     11.3548   6.3493   7.1504   C.ar      2 RES2   0.0000
    61 H14     10.7949   6.4600   6.3914   H         2 RES2   0.0000
    62 C33     16.7786   8.9044  10.0411   C.ar      2 RES2   0.0000
    63 H15     17.2879   8.5217   9.3366   H         2 RES2   0.0000
    64 C34     12.6742   4.5279   6.0379   C.ar      2 RES2   0.0000
    65 H16     12.1534   4.5832   5.2456   H         2 RES2   0.0000
    66 C35     10.4435   6.4141  14.2318   C.ar      2 RES2   0.0000
    67 H17      9.8477   6.8956  14.7942   H         2 RES2   0.0000
    68 C36     11.1699   7.1208   8.2683   C.ar      2 RES2   0.0000
    69 H18     10.4770   7.7708   8.2912   H         2 RES2   0.0000
    70 C37     10.9464   2.9807  12.8657   C.ar      2 RES2   0.0000
    71 H19     10.2551   2.4723  13.2734   H         2 RES2   0.0000
    72 C38     11.5174   7.0975  13.6239   C.ar      2 RES2   0.0000
    73 H20     11.6501   8.0239  13.7897   H         2 RES2   0.0000
    74 C39     19.9913   0.7946  11.0653   C.3       2 RES2   0.0000
    75 H21     20.1785   1.2949  10.2443   H         2 RES2   0.0000
    76 H22     19.1837   0.2537  10.9424   H         2 RES2   0.0000
    77 H23     20.7495   0.2074  11.2700   H         2 RES2   0.0000
    78 C40     15.7644  12.8017  12.6437   C.3       2 RES2   0.0000
    79 H24     14.8581  12.7570  12.2740   H         2 RES2   0.0000
    80 H25     16.0443  13.7383  12.7111   H         2 RES2   0.0000
    81 H26     15.7751  12.3923  13.5338   H         2 RES2   0.0000
    82 S1       4.3121   4.0317   2.6172   S.2       3 RES3  -1.0000
    83 N5       2.2261   2.1889   3.0258   N.1       3 RES3   0.0000
    84 C41      3.0948   2.9553   2.8632   C.1       3 RES3   0.0000
    85 O5       0.3716   0.6257   4.4540   O.3       4 RES4   0.0000
    86 H27      0.5314   0.6334   5.2886   H         4 RES4   0.0000
    87 H28     -0.3496   1.0485   4.2994   H         4 RES4   0.0000
@<TRIPOS>BOND
     1     1     7    1
     2     2     9    1
     3     3     8    1
     4     4    12    1
     5     5    10    1
     6     6    11    1
     7     7    10   ar
     8     8    10   ar
     9     9    11   ar
    10    11     8   ar
    11    12     7   ar
    12     9    12   ar
    13    13    14    1
    14    14    39    1
    15    15    13    1
    16    16    37    1
    17    17    46    1
    18    18    13    1
    19    19    13    1
    20    20    13    1
    21    21    13    1
    22    22    18    2
    23    23    22    1
    24    24    21    2
    25    25    24    1
    26    26    27    1
    27    28    18    1
    28    29    15    1
    29    30    22    1
    30    31    24    1
    31    32    30   ar
    32    33    32    1
    33    34    20   ar
    34    35    36    1
    35    37    32   ar
    36    38    21    1
    37    39    31   ar
    38    40    34   ar
    39    41    19   ar
    40    42    43    1
    41    44    31   ar
    42    45    44    1
    43    46    42   ar
    44    47    48    1
    45    49    26   ar
    46    50    49    1
    47    51    28   ar
    48    52    51    1
    49    53    35   ar
    50    54    19   ar
    51    55    54    1
    52    56    51   ar
    53    57    56    1
    54    58    20   ar
    55    59    58    1
    56    60    40   ar
    57    61    60    1
    58    62    39   ar
    59    63    62    1
    60    64    40   ar
    61    65    64    1
    62    66    35   ar
    63    67    66    1
    64    68    58   ar
    65    69    68    1
    66    70    47   ar
    67    71    70    1
    68    72    38   ar
    69    73    72    1
    70    74    16    1
    71    75    74    1
    72    76    74    1
    73    77    74    1
    74    78    17    1
    75    79    78    1
    76    80    78    1
    77    81    78    1
    78    26    29   ar
    79    28    34   ar
    80    29    30   ar
    81    37    49   ar
    82    38    41   ar
    83    41    53   ar
    84    42    62   ar
    85    44    46   ar
    86    47    54   ar
    87    53    70   ar
    88    56    64   ar
    89    60    68   ar
    90    66    72   ar
    91    82    84    1
    92    83    84    3
    93    85    86    1
    94    87    85    1
@<TRIPOS>SUBSTRUCTURE
     1 RES1        1 GROUP             0 ****  ****    0  
     2 RES2       13 GROUP             0 ****  ****    0  
     3 RES3       82 GROUP             0 ****  ****    0  
     4 RES4       85 GROUP             0 ****  ****    0  
@<TRIPOS>CRYSIN
   11.6736   12.3309   14.1938   83.7490   77.6750   89.1640     2     1
