@<TRIPOS>MOLECULE
OPEYAM13
    87    94     4     0     0
SMALL
USER_CHARGES
****
Generated from the CSD

@<TRIPOS>ATOM
     1 I1      14.6273  10.3282   8.5109   I         1 RES1   0.0000
     2 I2       9.6537  12.2104   5.5523   I         1 RES1   0.0000
     3 I3      12.7810   7.5220   3.4879   I         1 RES1   0.0000
     4 F1      12.0812  12.0611   7.6266   F         1 RES1   0.0000
     5 F2      14.4548   8.3240   6.0611   F         1 RES1   0.0000
     6 F3      10.5517   9.7106   3.8767   F         1 RES1   0.0000
     7 C1      12.5222   9.0085   4.9167   C.ar      1 RES1   0.0000
     8 C2      13.2947  10.1925   6.8939   C.ar      1 RES1   0.0000
     9 C3      11.2744  10.9146   5.7426   C.ar      1 RES1   0.0000
    10 C4      12.2175  11.0583   6.7450   C.ar      1 RES1   0.0000
    11 C5      13.4167   9.1856   5.9522   C.ar      1 RES1   0.0000
    12 C6      11.4488   9.8838   4.8547   C.ar      1 RES1   0.0000
    13 Fe1      6.4304   8.1733   2.9211   Fe        2 RES2   1.0000
    14 O1       5.2595   6.9080   3.6430   O.3       2 RES2   0.0000
    15 O2       5.2259   8.6609   1.5686   O.3       2 RES2   0.0000
    16 O3       0.9418  12.1505   1.6614   O.3       2 RES2   0.0000
    17 O4       4.0853   1.7748   2.0047   O.3       2 RES2   0.0000
    18 N1       5.7407   9.4537   4.2071   N.2       2 RES2   0.0000
    19 N2       7.2318   6.9352   1.6628   N.2       2 RES2   0.0000
    20 N3       7.7322   7.7957   4.3762   N.ar      2 RES2   0.0000
    21 N4       7.7736   9.4185   2.1564   N.ar      2 RES2   0.0000
    22 C7       4.6834  10.1845   4.0453   C.2       2 RES2   0.0000
    23 H1       4.4140  10.7219   4.7678   H         2 RES2   0.0000
    24 C8       6.7583   5.7568   1.3664   C.2       2 RES2   0.0000
    25 H2       7.1585   5.2906   0.6544   H         2 RES2   0.0000
    26 C9       5.6801   5.1284   2.0420   C.ar      2 RES2   0.0000
    27 C10      4.9866   5.7283   3.1298   C.ar      2 RES2   0.0000
    28 C11      4.2077   9.4900   1.6931   C.ar      2 RES2   0.0000
    29 C12      6.4793   9.5084   5.4227   C.ar      2 RES2   0.0000
    30 C13      8.6147   8.8041   1.2630   C.ar      2 RES2   0.0000
    31 C14      8.3780   7.4427   0.9900   C.ar      2 RES2   0.0000
    32 C15      7.5423   8.5864   5.4779   C.ar      2 RES2   0.0000
    33 C16      3.8966  10.2395   2.8596   C.ar      2 RES2   0.0000
    34 C17      2.7966  11.1412   2.8679   C.ar      2 RES2   0.0000
    35 H3       2.6088  11.6400   3.6426   H         2 RES2   0.0000
    36 C18      2.0127  11.2889   1.7593   C.ar      2 RES2   0.0000
    37 C19      3.3519   9.6756   0.5805   C.ar      2 RES2   0.0000
    38 H4       3.5192   9.1904  -0.2072   H         2 RES2   0.0000
    39 C20      4.4082   3.0782   2.2902   C.ar      2 RES2   0.0000
    40 C21      8.7032   6.9037   4.3997   C.ar      2 RES2   0.0000
    41 H5       8.8388   6.3609   3.6449   H         2 RES2   0.0000
    42 C22      9.6734   9.4959   0.6342   C.ar      2 RES2   0.0000
    43 C23      5.3724   3.8053   1.6339   C.ar      2 RES2   0.0000
    44 H6       5.8330   3.4231   0.9093   H         2 RES2   0.0000
    45 C24      3.9621   4.9588   3.7379   C.ar      2 RES2   0.0000
    46 H7       3.4582   5.3310   4.4380   H         2 RES2   0.0000
    47 C25      8.3495   8.4863   6.6361   C.ar      2 RES2   0.0000
    48 C26      9.2292   6.7566   0.1530   C.ar      2 RES2   0.0000
    49 H8       9.0941   5.8423  -0.0165   H         2 RES2   0.0000
    50 C27      7.9379  10.7053   2.4032   C.ar      2 RES2   0.0000
    51 H9       7.3637  11.1275   3.0162   H         2 RES2   0.0000
    52 C28      6.2523  10.3437   6.4803   C.ar      2 RES2   0.0000
    53 H10      5.5576  10.9761   6.4400   H         2 RES2   0.0000
    54 C29      7.0593  10.2589   7.6315   C.ar      2 RES2   0.0000
    55 H11      6.8931  10.8349   8.3555   H         2 RES2   0.0000
    56 C30     10.5215   8.7647  -0.2303   C.ar      2 RES2   0.0000
    57 H12     11.2385   9.1955  -0.6597   H         2 RES2   0.0000
    58 C31      3.6953   3.6781   3.3215   C.ar      2 RES2   0.0000
    59 H13      3.0108   3.1928   3.7456   H         2 RES2   0.0000
    60 C32      2.2951  10.5365   0.6122   C.ar      2 RES2   0.0000
    61 H14      1.7475  10.6259  -0.1469   H         2 RES2   0.0000
    62 C33      9.3780   7.5085   6.6223   C.ar      2 RES2   0.0000
    63 H15      9.9369   7.3970   7.3696   H         2 RES2   0.0000
    64 C34      8.0768   9.3534   7.7129   C.ar      2 RES2   0.0000
    65 H16      8.5996   9.3084   8.4934   H         2 RES2   0.0000
    66 C35      9.5461   6.7347   5.5165   C.ar      2 RES2   0.0000
    67 H17     10.2265   6.0858   5.4975   H         2 RES2   0.0000
    68 C36      9.8099  10.8748   0.9196   C.ar      2 RES2   0.0000
    69 H18     10.4949  11.3757   0.5147   H         2 RES2   0.0000
    70 C37      8.9472  11.4669   1.7800   C.ar      2 RES2   0.0000
    71 H19      9.0212  12.3861   1.9610   H         2 RES2   0.0000
    72 C38      0.7617  13.0706   2.7134   C.3       2 RES2   0.0000
    73 H20      0.0054  13.6440   2.5158   H         2 RES2   0.0000
    74 H21      1.5615  13.6119   2.8099   H         2 RES2   0.0000
    75 H22      0.5964  12.5893   3.5393   H         2 RES2   0.0000
    76 C39     10.3009   7.4359  -0.4426   C.ar      2 RES2   0.0000
    77 H23     10.8849   6.9615  -1.0066   H         2 RES2   0.0000
    78 C40      4.9800   1.0600   1.1540   C.3       2 RES2   0.0000
    79 H24      5.0069   1.4857   0.2825   H         2 RES2   0.0000
    80 H25      4.6738   0.1452   1.0579   H         2 RES2   0.0000
    81 H26      5.8686   1.0650   1.5433   H         2 RES2   0.0000
    82 S1      10.3179  16.3930   2.6218   S.2       3 RES3  -1.0000
    83 N5       8.2909  14.5209   3.0747   N.1       3 RES3   0.0000
    84 C41      9.1346  15.2962   2.8899   C.1       3 RES3   0.0000
    85 O5       6.3531  13.0039   4.4342   O.3       4 RES4   0.0000
    86 H27      5.7070  13.4416   4.7724   H         4 RES4   0.0000
    87 H28      6.8662  13.5367   4.0145   H         4 RES4   0.0000
@<TRIPOS>BOND
     1     1     8    1
     2     2     9    1
     3     3     7    1
     4     4    10    1
     5     5    11    1
     6     6    12    1
     7     7    11   ar
     8     8    10   ar
     9     9    10   ar
    10    11     8   ar
    11    12     7   ar
    12     9    12   ar
    13    13    14    1
    14    14    27    1
    15    15    13    1
    16    16    36    1
    17    17    39    1
    18    18    13    1
    19    19    13    1
    20    20    13    1
    21    21    13    1
    22    22    18    2
    23    23    22    1
    24    24    19    2
    25    25    24    1
    26    26    24    1
    27    27    26   ar
    28    28    15    1
    29    29    18    1
    30    30    21   ar
    31    31    19    1
    32    32    20   ar
    33    33    22    1
    34    34    33   ar
    35    35    34    1
    36    36    34   ar
    37    37    28   ar
    38    38    37    1
    39    39    43   ar
    40    40    20   ar
    41    41    40    1
    42    42    30   ar
    43    43    26   ar
    44    44    43    1
    45    45    27   ar
    46    46    45    1
    47    47    32   ar
    48    48    31   ar
    49    49    48    1
    50    50    21   ar
    51    51    50    1
    52    52    29   ar
    53    53    52    1
    54    54    52   ar
    55    55    54    1
    56    56    42   ar
    57    57    56    1
    58    58    39   ar
    59    59    58    1
    60    60    36   ar
    61    61    60    1
    62    62    47   ar
    63    63    62    1
    64    64    47   ar
    65    65    64    1
    66    66    40   ar
    67    67    66    1
    68    68    42   ar
    69    69    68    1
    70    70    50   ar
    71    71    70    1
    72    72    16    1
    73    73    72    1
    74    74    72    1
    75    75    72    1
    76    76    48   ar
    77    77    76    1
    78    78    17    1
    79    79    78    1
    80    80    78    1
    81    81    78    1
    82    28    33   ar
    83    29    32   ar
    84    30    31   ar
    85    37    60   ar
    86    45    58   ar
    87    54    64   ar
    88    56    76   ar
    89    62    66   ar
    90    68    70   ar
    91    82    84    1
    92    83    84    3
    93    85    86    1
    94    87    85    1
@<TRIPOS>SUBSTRUCTURE
     1 RES1        1 GROUP             0 ****  ****    0  
     2 RES2       13 GROUP             0 ****  ****    0  
     3 RES3       82 GROUP             0 ****  ****    0  
     4 RES4       85 GROUP             0 ****  ****    0  
@<TRIPOS>CRYSIN
   11.7178   12.3746   14.1962   83.6900   77.7150   89.1970     2     1
