@<TRIPOS>MOLECULE
OPEYAM31
    87    94     4     0     0
SMALL
USER_CHARGES
****
Generated from the CSD

@<TRIPOS>ATOM
     1 I1       0.2072   3.6859   5.2499   I         1 RES1   0.0000
     2 I2       5.1028   1.7153   8.2700   I         1 RES1   0.0000
     3 I3       2.0052   6.4151  10.3284   I         1 RES1   0.0000
     4 F1       2.7215   1.9137   6.1510   F         1 RES1   0.0000
     5 F2       0.3750   5.6586   7.7230   F         1 RES1   0.0000
     6 F3       4.2090   4.2063   9.9585   F         1 RES1   0.0000
     7 C1       2.2691   4.9472   8.8892   C.ar      1 RES1   0.0000
     8 C2       3.5099   3.0315   8.0582   C.ar      1 RES1   0.0000
     9 C3       1.5254   3.7844   6.8920   C.ar      1 RES1   0.0000
    10 C4       2.5822   2.9157   7.0485   C.ar      1 RES1   0.0000
    11 C5       1.3924   4.7789   7.8366   C.ar      1 RES1   0.0000
    12 C6       3.3297   4.0522   8.9543   C.ar      1 RES1   0.0000
    13 Fe1      8.3794   5.7922  10.9315   Fe        2 RES2   1.0000
    14 O1       9.5994   5.2350  12.2488   O.3       2 RES2   0.0000
    15 O2       9.5111   7.1145  10.2452   O.3       2 RES2   0.0000
    16 N1       9.0563   4.4538   9.6108   N.2       2 RES2   0.0000
    17 N2       7.5096   7.0598  12.1953   N.2       2 RES2   0.0000
    18 N3       6.9795   4.5523  11.7230   N.ar      2 RES2   0.0000
    19 O3      13.7920   1.6496  12.1579   O.3       2 RES2   0.0000
    20 N4       7.0667   6.1393   9.4086   N.ar      2 RES2   0.0000
    21 O4      10.5807  12.2699  11.8588   O.3       2 RES2   0.0000
    22 C7      10.0876   3.7013   9.7854   C.2       2 RES2   0.0000
    23 H1      10.3405   3.1584   9.0729   H         2 RES2   0.0000
    24 C8       7.9455   8.2488  12.4779   C.2       2 RES2   0.0000
    25 H2       7.5230   8.7091  13.1668   H         2 RES2   0.0000
    26 C9       8.3230   4.4077   8.3865   C.ar      2 RES2   0.0000
    27 C10      6.3695   6.5379  12.8740   C.ar      2 RES2   0.0000
    28 C11     10.5968   4.3818  12.1316   C.ar      2 RES2   0.0000
    29 C12      6.1338   5.1694  12.6053   C.ar      2 RES2   0.0000
    30 C13     10.8751   3.6236  10.9682   C.ar      2 RES2   0.0000
    31 C14      9.7509   8.3111  10.7480   C.ar      2 RES2   0.0000
    32 C15      7.2641   5.3355   8.3227   C.ar      2 RES2   0.0000
    33 C16      9.0258   8.9073  11.8075   C.ar      2 RES2   0.0000
    34 C17     11.9524   2.6985  10.9530   C.ar      2 RES2   0.0000
    35 H3      12.1254   2.2027  10.1857   H         2 RES2   0.0000
    36 C18     11.4490   4.1804  13.2397   C.ar      2 RES2   0.0000
    37 H4      11.3027   4.6689  14.0167   H         2 RES2   0.0000
    38 C19      6.4666   5.4296   7.1524   C.ar      2 RES2   0.0000
    39 C20     12.7420   2.5317  12.0665   C.ar      2 RES2   0.0000
    40 C21      6.8027   3.2560  11.4820   C.ar      2 RES2   0.0000
    41 H5       7.3736   2.8300  10.8842   H         2 RES2   0.0000
    42 C22      4.2235   5.2187  14.1012   C.ar      2 RES2   0.0000
    43 H6       3.5171   4.7937  14.5318   H         2 RES2   0.0000
    44 C23      5.0693   4.4847  13.2300   C.ar      2 RES2   0.0000
    45 C24      9.3059  10.2228  12.2133   C.ar      2 RES2   0.0000
    46 H7       8.8346  10.5962  12.9218   H         2 RES2   0.0000
    47 C25      5.5192   7.2184  13.7037   C.ar      2 RES2   0.0000
    48 H8       5.6503   8.1247  13.8652   H         2 RES2   0.0000
    49 C26      6.0950   7.0282   9.3685   C.ar      2 RES2   0.0000
    50 H9       5.9527   7.5748  10.1078   H         2 RES2   0.0000
    51 C27     10.2705  10.9621  11.5707   C.ar      2 RES2   0.0000
    52 C28     12.4787   3.2879  13.2009   C.ar      2 RES2   0.0000
    53 H10     13.0167   3.1841  13.9520   H         2 RES2   0.0000
    54 C29      8.5488   3.5702   7.3380   C.ar      2 RES2   0.0000
    55 H11      9.2300   2.9390   7.3894   H         2 RES2   0.0000
    56 C30      7.7654   3.6512   6.1856   C.ar      2 RES2   0.0000
    57 H12      7.9396   3.0810   5.4710   H         2 RES2   0.0000
    58 C31      4.4470   6.5439  14.3075   C.ar      2 RES2   0.0000
    59 H13      3.8726   7.0169  14.8659   H         2 RES2   0.0000
    60 C32     10.7722   9.0789  10.1469   C.ar      2 RES2   0.0000
    61 H14     11.2906   8.7102   9.4681   H         2 RES2   0.0000
    62 C33      4.9297   3.1178  12.9530   C.ar      2 RES2   0.0000
    63 H15      4.2471   2.6298  13.3540   H         2 RES2   0.0000
    64 C34      5.7891   2.5061  12.0970   C.ar      2 RES2   0.0000
    65 H16      5.7064   1.5967  11.9201   H         2 RES2   0.0000
    66 C35      5.2660   7.1771   8.2396   C.ar      2 RES2   0.0000
    67 H17      4.5933   7.8193   8.2439   H         2 RES2   0.0000
    68 C36      5.4371   6.4011   7.1552   C.ar      2 RES2   0.0000
    69 H18      4.8836   6.5016   6.4145   H         2 RES2   0.0000
    70 C37     11.0073  10.3739  10.5610   C.ar      2 RES2   0.0000
    71 H19     11.6803  10.8656  10.1477   H         2 RES2   0.0000
    72 C38      6.7430   4.5594   6.0914   C.ar      2 RES2   0.0000
    73 H20      6.2291   4.5979   5.3178   H         2 RES2   0.0000
    74 C39      9.6687  12.9803  12.6981   C.3       2 RES2   0.0000
    75 H21      8.7989  12.9863  12.2931   H         2 RES2   0.0000
    76 H22      9.9754  13.8831  12.8121   H         2 RES2   0.0000
    77 H23      9.6198  12.5493  13.5551   H         2 RES2   0.0000
    78 C40     13.9661   0.7332  11.0998   C.3       2 RES2   0.0000
    79 H24     14.1473   1.2130  10.2885   H         2 RES2   0.0000
    80 H25     13.1665   0.2130  10.9924   H         2 RES2   0.0000
    81 H26     14.7026   0.1511  11.2992   H         2 RES2   0.0000
    82 S1       4.5936  -2.6010  11.2277   S.2       3 RES3  -1.0000
    83 C41      5.6551  -1.4251  10.9391   C.1       3 RES3   0.0000
    84 N5       6.4337  -0.5713  10.7494   N.1       3 RES3   0.0000
    85 O5       8.4399   0.8990   9.4086   O.3       4 RES4   0.0000
    86 H27      7.9161   0.3504   9.7932   H         4 RES4   0.0000
    87 H28      9.0813   0.4727   9.0490   H         4 RES4   0.0000
@<TRIPOS>BOND
     1     1     9    1
     2     2     8    1
     3     3     7    1
     4     4    10    1
     5     5    11    1
     6     6    12    1
     7     7    11   ar
     8     8    10   ar
     9     9    10   ar
    10    11     9   ar
    11    12     7   ar
    12     8    12   ar
    13    13    14    1
    14    14    28    1
    15    15    13    1
    16    16    13    1
    17    17    13    1
    18    18    13    1
    19    19    39    1
    20    20    13    1
    21    21    51    1
    22    22    16    2
    23    23    22    1
    24    24    17    2
    25    25    24    1
    26    26    16    1
    27    27    17    1
    28    28    30   ar
    29    29    18   ar
    30    30    22    1
    31    31    15    1
    32    32    20   ar
    33    33    24    1
    34    34    30   ar
    35    35    34    1
    36    36    28   ar
    37    37    36    1
    38    38    32   ar
    39    39    34   ar
    40    40    18   ar
    41    41    40    1
    42    42    43    1
    43    44    29   ar
    44    45    33   ar
    45    46    45    1
    46    47    27   ar
    47    48    47    1
    48    49    20   ar
    49    50    49    1
    50    51    45   ar
    51    52    36   ar
    52    53    52    1
    53    54    26   ar
    54    55    54    1
    55    56    54   ar
    56    57    56    1
    57    58    42   ar
    58    59    58    1
    59    60    31   ar
    60    61    60    1
    61    62    44   ar
    62    63    62    1
    63    64    40   ar
    64    65    64    1
    65    66    49   ar
    66    67    66    1
    67    68    38   ar
    68    69    68    1
    69    70    51   ar
    70    71    70    1
    71    72    38   ar
    72    73    72    1
    73    74    21    1
    74    75    74    1
    75    76    74    1
    76    77    74    1
    77    78    19    1
    78    79    78    1
    79    80    78    1
    80    81    78    1
    81    26    32   ar
    82    27    29   ar
    83    31    33   ar
    84    39    52   ar
    85    42    44   ar
    86    47    58   ar
    87    56    72   ar
    88    60    70   ar
    89    62    64   ar
    90    66    68   ar
    91    82    83    1
    92    83    84    3
    93    85    86    1
    94    87    85    1
@<TRIPOS>SUBSTRUCTURE
     1 RES1        1 GROUP             0 ****  ****    0  
     2 RES2       13 GROUP             0 ****  ****    0  
     3 RES3       82 GROUP             0 ****  ****    0  
     4 RES4       85 GROUP             0 ****  ****    0  
@<TRIPOS>CRYSIN
   11.6391   12.5643   14.2317   83.8260   78.2160   89.4500     2     1
