@<TRIPOS>MOLECULE
OPEYAM10
    87    94     4     0     0
SMALL
USER_CHARGES
****
Generated from the CSD

@<TRIPOS>ATOM
     1 I1      14.3805  10.4014   8.6282   I         1 RES1   0.0000
     2 I2       9.5130  12.4091   5.5870   I         1 RES1   0.0000
     3 I3      12.5989   7.7033   3.5287   I         1 RES1   0.0000
     4 F1      14.2213   8.4411   6.1434   F         1 RES1   0.0000
     5 F2      11.8792  12.1891   7.7212   F         1 RES1   0.0000
     6 F3      10.4070   9.9231   3.8918   F         1 RES1   0.0000
     7 C1      12.3282   9.1685   4.9677   C.ar      1 RES1   0.0000
     8 C2      13.0750  10.3126   6.9794   C.ar      1 RES1   0.0000
     9 C3      13.2077   9.3163   6.0311   C.ar      1 RES1   0.0000
    10 C4      11.0961  11.0841   5.8023   C.ar      1 RES1   0.0000
    11 C5      11.2782  10.0648   4.8984   C.ar      1 RES1   0.0000
    12 C6      12.0125  11.1817   6.8214   C.ar      1 RES1   0.0000
    13 Fe1      6.2174   8.3156   2.9156   Fe        2 RES2   1.0000
    14 O1       4.9880   8.9057   1.6138   O.3       2 RES2   0.0000
    15 O2       5.1064   6.9579   3.5798   O.3       2 RES2   0.0000
    16 N1       5.5470   9.6824   4.2495   N.2       2 RES2   0.0000
    17 N2       7.1190   7.0359   1.6471   N.2       2 RES2   0.0000
    18 N3       7.6490   9.5560   2.1102   N.ar      2 RES2   0.0000
    19 O3       0.8386  12.5403   1.7095   O.3       2 RES2   0.0000
    20 N4       7.5417   7.9840   4.4769   N.ar      2 RES2   0.0000
    21 O4       4.0952   1.7918   1.9812   O.3       2 RES2   0.0000
    22 C7       4.5254  10.4397   4.0748   C.2       2 RES2   0.0000
    23 H1       4.2783  10.9813   4.7887   H         2 RES2   0.0000
    24 C8       6.6983   5.8293   1.3726   C.2       2 RES2   0.0000
    25 H2       7.1325   5.3668   0.6928   H         2 RES2   0.0000
    26 C9       8.2593   7.5604   0.9677   C.ar      2 RES2   0.0000
    27 C10      3.7338  10.5332   2.8935   C.ar      2 RES2   0.0000
    28 C11      6.2827   9.7296   5.4807   C.ar      2 RES2   0.0000
    29 C12      4.8788   5.7600   3.0932   C.ar      2 RES2   0.0000
    30 C13      8.4914   8.9302   1.2326   C.ar      2 RES2   0.0000
    31 C14      7.3396   8.7993   5.5514   C.ar      2 RES2   0.0000
    32 C15      3.9990   9.7759   1.7234   C.ar      2 RES2   0.0000
    33 C16      5.6233   5.1705   2.0367   C.ar      2 RES2   0.0000
    34 C17      9.5626   9.6045   0.6059   C.ar      2 RES2   0.0000
    35 C18      2.6705  11.4686   2.9046   C.ar      2 RES2   0.0000
    36 H3       2.5069  11.9718   3.6687   H         2 RES2   0.0000
    37 C19      1.8777  11.6380   1.7941   C.ar      2 RES2   0.0000
    38 C20      3.1511   9.9858   0.6253   C.ar      2 RES2   0.0000
    39 H4       3.2895   9.4920  -0.1501   H         2 RES2   0.0000
    40 C21      7.8295  10.8451   2.3528   C.ar      2 RES2   0.0000
    41 H5       7.2626  11.2707   2.9560   H         2 RES2   0.0000
    42 C22      5.3622   3.8439   1.6346   C.ar      2 RES2   0.0000
    43 H6       5.8509   3.4701   0.9372   H         2 RES2   0.0000
    44 C23     10.4060   8.8803  -0.2579   C.ar      2 RES2   0.0000
    45 H7      11.1123   9.3075  -0.6850   H         2 RES2   0.0000
    46 C24     10.1868   7.5607  -0.4672   C.ar      2 RES2   0.0000
    47 H8      10.7617   7.0889  -1.0256   H         2 RES2   0.0000
    48 C25      4.3981   3.1012   2.2599   C.ar      2 RES2   0.0000
    49 C26      8.5086   7.0987   4.5199   C.ar      2 RES2   0.0000
    50 H9       8.6550   6.5501   3.7838   H         2 RES2   0.0000
    51 C27      8.1279   8.7134   6.7215   C.ar      2 RES2   0.0000
    52 C28      6.0442  10.5768   6.5233   C.ar      2 RES2   0.0000
    53 H10      5.3615  11.2060   6.4679   H         2 RES2   0.0000
    54 C29      6.8354  10.4920   7.6796   C.ar      2 RES2   0.0000
    55 H11      6.6667  11.0672   8.3908   H         2 RES2   0.0000
    56 C30      3.8591   4.9748   3.6755   C.ar      2 RES2   0.0000
    57 H12      3.3265   5.3396   4.3452   H         2 RES2   0.0000
    58 C31      2.1351  10.8857   0.6586   C.ar      2 RES2   0.0000
    59 H13      1.6015  10.9996  -0.0947   H         2 RES2   0.0000
    60 C32      9.1111   6.8846   0.1428   C.ar      2 RES2   0.0000
    61 H14      8.9812   5.9781  -0.0175   H         2 RES2   0.0000
    62 C33      8.8450  11.5974   1.7345   C.ar      2 RES2   0.0000
    63 H15      8.9261  12.5074   1.9080   H         2 RES2   0.0000
    64 C34      9.7005  10.9861   0.8859   C.ar      2 RES2   0.0000
    65 H16     10.3834  11.4748   0.4852   H         2 RES2   0.0000
    66 C35      9.3357   6.9579   5.6609   C.ar      2 RES2   0.0000
    67 H17     10.0130   6.3201   5.6642   H         2 RES2   0.0000
    68 C36      9.1504   7.7351   6.7340   C.ar      2 RES2   0.0000
    69 H18      9.6895   7.6319   7.4851   H         2 RES2   0.0000
    70 C37      3.6438   3.6819   3.2693   C.ar      2 RES2   0.0000
    71 H19      2.9759   3.1831   3.6804   H         2 RES2   0.0000
    72 C38      7.8480   9.5828   7.7822   C.ar      2 RES2   0.0000
    73 H20      8.3543   9.5412   8.5608   H         2 RES2   0.0000
    74 C39      0.6613  13.4420   2.7771   C.3       2 RES2   0.0000
    75 H21     -0.0589  14.0429   2.5711   H         2 RES2   0.0000
    76 H22      1.4685  13.9432   2.9098   H         2 RES2   0.0000
    77 H23      0.4516  12.9538   3.5765   H         2 RES2   0.0000
    78 C40      4.9947   1.1018   1.1411   C.3       2 RES2   0.0000
    79 H24      5.0512   1.5529   0.2949   H         2 RES2   0.0000
    80 H25      4.6815   0.2050   1.0049   H         2 RES2   0.0000
    81 H26      5.8623   1.0801   1.5503   H         2 RES2   0.0000
    82 S1       9.9688  16.7840   2.6226   S.2       3 RES3  -1.0000
    83 C41      8.9352  15.5561   2.9102   C.1       3 RES3   0.0000
    84 N5       8.1982  14.6902   3.1098   N.1       3 RES3   0.0000
    85 O5       6.1716  13.2304   4.4450   O.3       4 RES4   0.0000
    86 H27      5.5138  13.6298   4.8057   H         4 RES4   0.0000
    87 H28      6.6601  13.7972   4.0413   H         4 RES4   0.0000
@<TRIPOS>BOND
     1     1     8    1
     2     2    10    1
     3     3     7    1
     4     4     9    1
     5     5    12    1
     6     6    11    1
     7     7     9   ar
     8     8     9   ar
     9    10    11   ar
    10    11     7   ar
    11    12     8   ar
    12    10    12   ar
    13    13    14    1
    14    14    32    1
    15    15    13    1
    16    16    13    1
    17    17    13    1
    18    18    13    1
    19    19    37    1
    20    20    13    1
    21    21    48    1
    22    22    16    2
    23    23    22    1
    24    24    17    2
    25    25    24    1
    26    26    17    1
    27    27    22    1
    28    28    16    1
    29    29    15    1
    30    30    18   ar
    31    31    20   ar
    32    32    27   ar
    33    33    24    1
    34    34    30   ar
    35    35    27   ar
    36    36    35    1
    37    37    35   ar
    38    38    32   ar
    39    39    38    1
    40    40    18   ar
    41    41    40    1
    42    42    33   ar
    43    43    42    1
    44    44    34   ar
    45    45    44    1
    46    46    44   ar
    47    47    46    1
    48    48    42   ar
    49    49    20   ar
    50    50    49    1
    51    51    31   ar
    52    52    28   ar
    53    53    52    1
    54    54    52   ar
    55    55    54    1
    56    56    29   ar
    57    57    56    1
    58    58    37   ar
    59    59    58    1
    60    60    26   ar
    61    61    60    1
    62    62    40   ar
    63    63    62    1
    64    64    34   ar
    65    65    64    1
    66    66    49   ar
    67    67    66    1
    68    68    51   ar
    69    69    68    1
    70    70    48   ar
    71    71    70    1
    72    72    51   ar
    73    73    72    1
    74    74    19    1
    75    75    74    1
    76    76    74    1
    77    77    74    1
    78    78    21    1
    79    79    78    1
    80    80    78    1
    81    81    78    1
    82    26    30   ar
    83    28    31   ar
    84    29    33   ar
    85    38    58   ar
    86    46    60   ar
    87    54    72   ar
    88    56    70   ar
    89    62    64   ar
    90    66    68   ar
    91    82    83    1
    92    83    84    3
    93    85    86    1
    94    87    85    1
@<TRIPOS>SUBSTRUCTURE
     1 RES1        1 GROUP             0 ****  ****    0  
     2 RES2       13 GROUP             0 ****  ****    0  
     3 RES3       82 GROUP             0 ****  ****    0  
     4 RES4       85 GROUP             0 ****  ****    0  
@<TRIPOS>CRYSIN
   11.5982   12.6415   14.2355   83.8650   78.4130   89.5530     2     1
