@<TRIPOS>MOLECULE
OPEYAM15
    87    94     4     0     0
SMALL
USER_CHARGES
****
Generated from the CSD

@<TRIPOS>ATOM
     1 I1       8.7768  10.3312   8.4943   I         1 RES1   0.0000
     2 I2       3.7906  12.2018   5.5432   I         1 RES1   0.0000
     3 I3       6.9216   7.5117   3.4803   I         1 RES1   0.0000
     4 F1       6.2259  12.0624   7.6111   F         1 RES1   0.0000
     5 F2       8.5991   8.3250   6.0499   F         1 RES1   0.0000
     6 F3       4.6874   9.6983   3.8703   F         1 RES1   0.0000
     7 C1       6.6602   9.0027   4.9071   C.ar      1 RES1   0.0000
     8 C2       7.4376  10.1898   6.8732   C.ar      1 RES1   0.0000
     9 C3       7.5635   9.1865   5.9397   C.ar      1 RES1   0.0000
    10 C4       5.4171  10.9149   5.7346   C.ar      1 RES1   0.0000
    11 C5       5.5893   9.8731   4.8438   C.ar      1 RES1   0.0000
    12 C6       6.3660  11.0485   6.7273   C.ar      1 RES1   0.0000
    13 Fe1      0.5756   8.1644   2.9182   Fe        2 RES2   1.0000
    14 O1      -0.6344   8.6479   1.5660   O.3       2 RES2   0.0000
    15 O2      -0.5981   6.9024   3.6438   O.3       2 RES2   0.0000
    16 O3      -4.9167  12.1380   1.6564   O.3       2 RES2   0.0000
    17 O4      -1.7736   1.7648   2.0047   O.3       2 RES2   0.0000
    18 N1      -0.1133   9.4439   4.2063   N.2       2 RES2   0.0000
    19 N2       1.8754   7.7877   4.3715   N.ar      2 RES2   0.0000
    20 N3       1.9177   9.4087   2.1520   N.ar      2 RES2   0.0000
    21 N4       1.3748   6.9248   1.6632   N.2       2 RES2   0.0000
    22 C7      -1.6512   9.4801   1.6935   C.ar      2 RES2   0.0000
    23 C8      -0.1810   5.1180   2.0419   C.ar      2 RES2   0.0000
    24 C9      -1.1763  10.1760   4.0438   C.2       2 RES2   0.0000
    25 H1      -1.4504  10.7185   4.7727   H         2 RES2   0.0000
    26 C10      0.6250   9.5032   5.4193   C.ar      2 RES2   0.0000
    27 C11     -1.9600  10.2260   2.8570   C.ar      2 RES2   0.0000
    28 C12     -2.5012   9.6613   0.5755   C.ar      2 RES2   0.0000
    29 H2      -2.3271   9.1693  -0.2190   H         2 RES2   0.0000
    30 C13      2.5212   7.4341   0.9968   C.ar      2 RES2   0.0000
    31 C14      0.9000   5.7477   1.3576   C.2       2 RES2   0.0000
    32 H3       1.3014   5.2799   0.6347   H         2 RES2   0.0000
    33 C15      1.6899   8.5806   5.4799   C.ar      2 RES2   0.0000
    34 C16     -3.0664  11.1266   2.8652   C.ar      2 RES2   0.0000
    35 H4      -3.2586  11.6257   3.6502   H         2 RES2   0.0000
    36 C17      2.7579   8.7915   1.2571   C.ar      2 RES2   0.0000
    37 C18     -0.8643   5.7178   3.1255   C.ar      2 RES2   0.0000
    38 C19     -3.8533  11.2788   1.7541   C.ar      2 RES2   0.0000
    39 C20     -3.5633  10.5206   0.6017   C.ar      2 RES2   0.0000
    40 H5      -4.1141  10.6095  -0.1676   H         2 RES2   0.0000
    41 C21      2.8541   6.8931   4.3949   C.ar      2 RES2   0.0000
    42 H6       2.9898   6.3443   3.6314   H         2 RES2   0.0000
    43 C22     -1.4514   3.0737   2.2842   C.ar      2 RES2   0.0000
    44 C23     -0.4934   3.7953   1.6261   C.ar      2 RES2   0.0000
    45 H7      -0.0344   3.4109   0.8884   H         2 RES2   0.0000
    46 C24     -2.1680   3.6721   3.3223   C.ar      2 RES2   0.0000
    47 H8      -2.8604   3.1830   3.7508   H         2 RES2   0.0000
    48 C25      0.4036  10.3430   6.4726   C.ar      2 RES2   0.0000
    49 H9      -0.2956  10.9844   6.4282   H         2 RES2   0.0000
    50 C26      2.0793  10.7017   2.3999   C.ar      2 RES2   0.0000
    51 H10      1.4953  11.1277   3.0160   H         2 RES2   0.0000
    52 C27     -1.8937   4.9553   3.7382   C.ar      2 RES2   0.0000
    53 H11     -2.4003   5.3360   4.4456   H         2 RES2   0.0000
    54 C28      1.2077  10.2579   7.6209   C.ar      2 RES2   0.0000
    55 H12      1.0403  10.8419   8.3517   H         2 RES2   0.0000
    56 C29      4.6690   8.7555  -0.2368   C.ar      2 RES2   0.0000
    57 H13      5.3946   9.1891  -0.6699   H         2 RES2   0.0000
    58 C30      2.5003   8.4803   6.6254   C.ar      2 RES2   0.0000
    59 C31      3.8141   9.4878   0.6265   C.ar      2 RES2   0.0000
    60 C32      3.3787   6.7460   0.1528   C.ar      2 RES2   0.0000
    61 H14      3.2415   5.8221  -0.0177   H         2 RES2   0.0000
    62 C33      3.5201   7.5062   6.6227   C.ar      2 RES2   0.0000
    63 H15      4.0784   7.3931   7.3831   H         2 RES2   0.0000
    64 C34      4.4444   7.4214  -0.4433   C.ar      2 RES2   0.0000
    65 H16      5.0328   6.9385  -1.0123   H         2 RES2   0.0000
    66 C35      2.2282   9.3518   7.7076   C.ar      2 RES2   0.0000
    67 H17      2.7552   9.3060   8.4966   H         2 RES2   0.0000
    68 C36      3.0825  11.4584   1.7803   C.ar      2 RES2   0.0000
    69 H18      3.1567  12.3868   1.9652   H         2 RES2   0.0000
    70 C37      3.9505  10.8667   0.9142   C.ar      2 RES2   0.0000
    71 H19      4.6422  11.3752   0.5075   H         2 RES2   0.0000
    72 C38      3.6961   6.7249   5.5074   C.ar      2 RES2   0.0000
    73 H20      4.3853   6.0720   5.4878   H         2 RES2   0.0000
    74 C39     -5.0986  13.0562   2.7138   C.3       2 RES2   0.0000
    75 H21     -5.8658  13.6334   2.5158   H         2 RES2   0.0000
    76 H22     -4.2934  13.6053   2.8123   H         2 RES2   0.0000
    77 H23     -5.2648  12.5668   3.5465   H         2 RES2   0.0000
    78 C40     -0.8825   1.0576   1.1552   C.3       2 RES2   0.0000
    79 H24     -0.8679   1.4819   0.2723   H         2 RES2   0.0000
    80 H25     -1.1833   0.1295   1.0676   H         2 RES2   0.0000
    81 H26      0.0183   1.0745   1.5410   H         2 RES2   0.0000
    82 S1      10.6317   9.8708  11.1474   S.2       3 RES3  -1.0000
    83 N5      12.6778  11.7397  10.7050   N.1       3 RES3   0.0000
    84 C41     11.8279  10.9737  10.8854   C.1       3 RES3   0.0000
    85 O5      14.6067  13.2537   9.3364   O.3       4 RES4   0.0000
    86 H27     15.1995  12.7798   8.9538   H         4 RES4   0.0000
    87 H28     14.0955  12.7524   9.7947   H         4 RES4   0.0000
@<TRIPOS>BOND
     1     1     8    1
     2     2    10    1
     3     3     7    1
     4     4    12    1
     5     5     9    1
     6     6    11    1
     7     7     9   ar
     8     8     9   ar
     9    10    11   ar
    10    11     7   ar
    11    12     8   ar
    12    10    12   ar
    13    13    14    1
    14    14    22    1
    15    15    13    1
    16    16    38    1
    17    17    43    1
    18    18    13    1
    19    19    13    1
    20    20    13    1
    21    21    13    1
    22    22    27   ar
    23    23    31    1
    24    24    18    2
    25    25    24    1
    26    26    18    1
    27    27    24    1
    28    28    22   ar
    29    29    28    1
    30    30    21    1
    31    31    21    2
    32    32    31    1
    33    33    19   ar
    34    34    27   ar
    35    35    34    1
    36    36    20   ar
    37    37    15    1
    38    38    34   ar
    39    39    28   ar
    40    40    39    1
    41    41    19   ar
    42    42    41    1
    43    43    44   ar
    44    44    23   ar
    45    45    44    1
    46    46    43   ar
    47    47    46    1
    48    48    26   ar
    49    49    48    1
    50    50    20   ar
    51    51    50    1
    52    52    37   ar
    53    53    52    1
    54    54    48   ar
    55    55    54    1
    56    56    57    1
    57    58    33   ar
    58    59    36   ar
    59    60    30   ar
    60    61    60    1
    61    62    58   ar
    62    63    62    1
    63    64    56   ar
    64    65    64    1
    65    66    54   ar
    66    67    66    1
    67    68    50   ar
    68    69    68    1
    69    70    59   ar
    70    71    70    1
    71    72    41   ar
    72    73    72    1
    73    74    16    1
    74    75    74    1
    75    76    74    1
    76    77    74    1
    77    78    17    1
    78    79    78    1
    79    80    78    1
    80    81    78    1
    81    23    37   ar
    82    26    33   ar
    83    30    36   ar
    84    38    39   ar
    85    46    52   ar
    86    56    59   ar
    87    58    66   ar
    88    60    64   ar
    89    62    72   ar
    90    68    70   ar
    91    82    84    1
    92    83    84    3
    93    85    86    1
    94    87    85    1
@<TRIPOS>SUBSTRUCTURE
     1 RES1        1 GROUP             0 ****  ****    0  
     2 RES2       13 GROUP             0 ****  ****    0  
     3 RES3       82 GROUP             0 ****  ****    0  
     4 RES4       85 GROUP             0 ****  ****    0  
@<TRIPOS>CRYSIN
   11.7137   12.3595   14.1815   83.6390   77.6450   89.1860     2     1
