@<TRIPOS>MOLECULE
OPEYAM30
    87    94     4     0     0
SMALL
USER_CHARGES
****
Generated from the CSD

@<TRIPOS>ATOM
     1 I1       0.2852   3.5676   5.2876   I         1 RES1   0.0000
     2 I2       5.2487   1.6819   8.2558   I         1 RES1   0.0000
     3 I3       2.0896   6.3357  10.3440   I         1 RES1   0.0000
     4 F1       2.8271   1.8325   6.1776   F         1 RES1   0.0000
     5 F2       0.4365   5.5471   7.7535   F         1 RES1   0.0000
     6 F3       4.3204   4.1503   9.9589   F         1 RES1   0.0000
     7 C1       2.3565   4.8577   8.9114   C.ar      1 RES1   0.0000
     8 C2       1.6046   3.6906   6.9206   C.ar      1 RES1   0.0000
     9 C3       1.4729   4.6897   7.8607   C.ar      1 RES1   0.0000
    10 C4       2.6788   2.8349   7.0674   C.ar      1 RES1   0.0000
    11 C5       3.4340   3.9852   8.9710   C.ar      1 RES1   0.0000
    12 C6       3.6195   2.9589   8.0656   C.ar      1 RES1   0.0000
    13 Fe1      8.4553   5.6966  10.9108   Fe        2 RES2   1.0000
    14 O1       9.6628   5.2046  12.2609   O.3       2 RES2   0.0000
    15 O2       9.6159   6.9682  10.1909   O.3       2 RES2   0.0000
    16 O3      13.9184   1.6924  12.1882   O.3       2 RES2   0.0000
    17 N1       9.1482   4.4176   9.6183   N.2       2 RES2   0.0000
    18 O4      10.7844  12.0976  11.8450   O.3       2 RES2   0.0000
    19 N2       7.1122   4.4481  11.6795   N.ar      2 RES2   0.0000
    20 N3       7.1541   6.0714   9.4473   N.ar      2 RES2   0.0000
    21 N4       7.6456   6.9273  12.1678   N.2       2 RES2   0.0000
    22 C7      10.1972   3.6771   9.7878   C.2       2 RES2   0.0000
    23 H1      10.4649   3.1371   9.0667   H         2 RES2   0.0000
    24 C8      10.6725   4.3682  12.1385   C.ar      2 RES2   0.0000
    25 C9       9.1944   8.7435  11.7993   C.ar      2 RES2   0.0000
    26 C10      6.2693   5.0606  12.5746   C.ar      2 RES2   0.0000
    27 C11      8.4190   4.3694   8.4020   C.ar      2 RES2   0.0000
    28 C12      6.5063   6.4195  12.8445   C.ar      2 RES2   0.0000
    29 C13      8.1169   8.1063  12.4721   C.2       2 RES2   0.0000
    30 H2       7.7157   8.5660  13.1872   H         2 RES2   0.0000
    31 C14     10.9813   3.6121  10.9783   C.ar      2 RES2   0.0000
    32 C15      7.3571   5.2901   8.3410   C.ar      2 RES2   0.0000
    33 C16      9.8818   8.1539  10.7125   C.ar      2 RES2   0.0000
    34 C17     12.0741   2.7089  10.9700   C.ar      2 RES2   0.0000
    35 H3      12.2628   2.2104  10.1953   H         2 RES2   0.0000
    36 C18     11.5243   4.1825  13.2543   C.ar      2 RES2   0.0000
    37 H4      11.3605   4.6737  14.0390   H         2 RES2   0.0000
    38 C19      9.5043  10.0633  12.2146   C.ar      2 RES2   0.0000
    39 H5       9.0493  10.4422  12.9451   H         2 RES2   0.0000
    40 C20     12.8574   2.5566  12.0859   C.ar      2 RES2   0.0000
    41 C21      6.5549   5.3914   7.1892   C.ar      2 RES2   0.0000
    42 C22     10.4624  10.7919  11.5626   C.ar      2 RES2   0.0000
    43 C23      6.9489   3.1574  11.4214   C.ar      2 RES2   0.0000
    44 H6       7.5214   2.7386  10.8040   H         2 RES2   0.0000
    45 C24     12.5762   3.3120  13.2280   C.ar      2 RES2   0.0000
    46 H7      13.1205   3.2206  13.9892   H         2 RES2   0.0000
    47 C25      6.1767   6.9556   9.4278   C.ar      2 RES2   0.0000
    48 H8       6.0370   7.4955  10.1855   H         2 RES2   0.0000
    49 C26     11.1736  10.2042  10.5160   C.ar      2 RES2   0.0000
    50 H9      11.8504  10.6970  10.0867   H         2 RES2   0.0000
    51 C27      8.6544   3.5464   7.3346   C.ar      2 RES2   0.0000
    52 H10      9.3498   2.9159   7.3763   H         2 RES2   0.0000
    53 C28     10.9081   8.9262  10.0979   C.ar      2 RES2   0.0000
    54 H11     11.4114   8.5537   9.3965   H         2 RES2   0.0000
    55 C29      5.2144   4.3594  13.1934   C.ar      2 RES2   0.0000
    56 C30      5.9449   2.3994  12.0416   C.ar      2 RES2   0.0000
    57 H12      5.8720   1.4802  11.8587   H         2 RES2   0.0000
    58 C31      4.3640   5.0863  14.0683   C.ar      2 RES2   0.0000
    59 H13      3.6506   4.6521  14.4998   H         2 RES2   0.0000
    60 C32      7.8629   3.6386   6.1786   C.ar      2 RES2   0.0000
    61 H14      8.0371   3.0715   5.4500   H         2 RES2   0.0000
    62 C33      5.5250   6.3604   7.1975   C.ar      2 RES2   0.0000
    63 H15      4.9778   6.4784   6.4415   H         2 RES2   0.0000
    64 C34      5.0835   2.9833  12.9013   C.ar      2 RES2   0.0000
    65 H16      4.3997   2.4780  13.3024   H         2 RES2   0.0000
    66 C35      6.8420   4.5440   6.1025   C.ar      2 RES2   0.0000
    67 H17      6.3268   4.6009   5.3175   H         2 RES2   0.0000
    68 C36      5.6519   7.0952  13.6821   C.ar      2 RES2   0.0000
    69 H18      5.7828   8.0107  13.8521   H         2 RES2   0.0000
    70 C37      4.5837   6.4131  14.2815   C.ar      2 RES2   0.0000
    71 H19      4.0021   6.8854  14.8492   H         2 RES2   0.0000
    72 C38      5.3322   7.1200   8.3092   C.ar      2 RES2   0.0000
    73 H20      4.6386   7.7541   8.3315   H         2 RES2   0.0000
    74 C39      9.8928  12.8053  12.7033   C.3       2 RES2   0.0000
    75 H21      8.9996  12.7880  12.3256   H         2 RES2   0.0000
    76 H22     10.1899  13.7243  12.7900   H         2 RES2   0.0000
    77 H23      9.8832  12.3841  13.5767   H         2 RES2   0.0000
    78 C40     14.1196   0.7831  11.1251   C.3       2 RES2   0.0000
    79 H24     14.2808   1.2757  10.3052   H         2 RES2   0.0000
    80 H25     13.3299   0.2297  11.0199   H         2 RES2   0.0000
    81 H26     14.8850   0.2210  11.3208   H         2 RES2   0.0000
    82 S1       4.5593  -2.5589  11.2244   S.2       3 RES3  -1.0000
    83 N5       6.5905  -0.6917  10.7679   N.1       3 RES3   0.0000
    84 C41      5.7430  -1.4622  10.9465   C.1       3 RES3   0.0000
    85 O5       8.5257   0.8517   9.3890   O.3       4 RES4   0.0000
    86 H27      9.1589   0.4062   9.0384   H         4 RES4   0.0000
    87 H28      7.9667   0.3193   9.7440   H         4 RES4   0.0000
@<TRIPOS>BOND
     1     1     8    1
     2     2    12    1
     3     3     7    1
     4     4    10    1
     5     5     9    1
     6     6    11    1
     7     7     9   ar
     8     8     9   ar
     9    10     8   ar
    10    11     7   ar
    11    12    10   ar
    12    11    12   ar
    13    13    14    1
    14    14    24    1
    15    15    13    1
    16    16    40    1
    17    17    13    1
    18    18    42    1
    19    19    13    1
    20    20    13    1
    21    21    13    1
    22    22    17    2
    23    23    22    1
    24    24    31   ar
    25    25    29    1
    26    26    19   ar
    27    27    17    1
    28    28    21    1
    29    29    21    2
    30    30    29    1
    31    31    22    1
    32    32    20   ar
    33    33    15    1
    34    34    31   ar
    35    35    34    1
    36    36    24   ar
    37    37    36    1
    38    38    25   ar
    39    39    38    1
    40    40    34   ar
    41    41    32   ar
    42    42    38   ar
    43    43    19   ar
    44    44    43    1
    45    45    36   ar
    46    46    45    1
    47    47    20   ar
    48    48    47    1
    49    49    42   ar
    50    50    49    1
    51    51    27   ar
    52    52    51    1
    53    53    33   ar
    54    54    53    1
    55    55    26   ar
    56    56    43   ar
    57    57    56    1
    58    58    55   ar
    59    59    58    1
    60    60    51   ar
    61    61    60    1
    62    62    41   ar
    63    63    62    1
    64    64    55   ar
    65    65    64    1
    66    66    41   ar
    67    67    66    1
    68    68    28   ar
    69    69    68    1
    70    70    58   ar
    71    71    70    1
    72    72    47   ar
    73    73    72    1
    74    74    18    1
    75    75    74    1
    76    76    74    1
    77    77    74    1
    78    78    16    1
    79    79    78    1
    80    80    78    1
    81    81    78    1
    82    25    33   ar
    83    26    28   ar
    84    27    32   ar
    85    40    45   ar
    86    49    53   ar
    87    56    64   ar
    88    60    66   ar
    89    62    72   ar
    90    68    70   ar
    91    82    84    1
    92    83    84    3
    93    85    86    1
    94    87    85    1
@<TRIPOS>SUBSTRUCTURE
     1 RES1        1 GROUP             0 ****  ****    0  
     2 RES2       13 GROUP             0 ****  ****    0  
     3 RES3       82 GROUP             0 ****  ****    0  
     4 RES4       85 GROUP             0 ****  ****    0  
@<TRIPOS>CRYSIN
   11.7021   12.3965   14.2419   83.8740   77.8490   89.2140     2     1
