@<TRIPOS>MOLECULE
OPEYAM04
    87    94     4     0     0
SMALL
USER_CHARGES
****
Generated from the CSD

@<TRIPOS>ATOM
     1 I1      14.3828  10.3792   8.6455   I         1 RES1   0.0000
     2 I2       9.5028  12.3640   5.6103   I         1 RES1   0.0000
     3 I3      12.6249   7.6879   3.5345   I         1 RES1   0.0000
     4 F1      11.8748  12.1560   7.7381   F         1 RES1   0.0000
     5 F2      14.2413   8.4277   6.1569   F         1 RES1   0.0000
     6 F3      10.4204   9.8989   3.8976   F         1 RES1   0.0000
     7 C1      12.3515   9.1537   4.9786   C.ar      1 RES1   0.0000
     8 C2      13.0823  10.2887   6.9892   C.ar      1 RES1   0.0000
     9 C3      13.2214   9.2925   6.0332   C.ar      1 RES1   0.0000
    10 C4      12.0262  11.1524   6.8308   C.ar      1 RES1   0.0000
    11 C5      11.2949  10.0493   4.9063   C.ar      1 RES1   0.0000
    12 C6      11.1013  11.0645   5.8165   C.ar      1 RES1   0.0000
    13 Fe1      6.2390   8.2958   2.9281   Fe        2 RES2   1.0000
    14 O1       5.0116   8.8680   1.6200   O.3       2 RES2   0.0000
    15 O2       5.1267   6.9460   3.6034   O.3       2 RES2   0.0000
    16 N1       5.5664   9.6419   4.2560   N.2       2 RES2   0.0000
    17 N2       7.1293   7.0228   1.6591   N.2       2 RES2   0.0000
    18 N3       7.6545   9.5431   2.1315   N.ar      2 RES2   0.0000
    19 O3       0.8623  12.4980   1.6980   O.3       2 RES2   0.0000
    20 N4       7.5565   7.9609   4.4742   N.ar      2 RES2   0.0000
    21 O4       4.0832   1.7934   1.9745   O.3       2 RES2   0.0000
    22 C7       6.6985   5.8319   1.3742   C.2       2 RES2   0.0000
    23 H1       7.1252   5.3767   0.6849   H         2 RES2   0.0000
    24 C8       4.5423  10.4075   4.0768   C.2       2 RES2   0.0000
    25 H2       4.2959  10.9544   4.7873   H         2 RES2   0.0000
    26 C9       8.2668   7.5505   0.9754   C.ar      2 RES2   0.0000
    27 C10      6.2902   9.6857   5.4844   C.ar      2 RES2   0.0000
    28 C11      8.4966   8.9201   1.2450   C.ar      2 RES2   0.0000
    29 C12      3.7507  10.4957   2.8916   C.ar      2 RES2   0.0000
    30 C13      4.0265   9.7359   1.7272   C.ar      2 RES2   0.0000
    31 C14      7.3504   8.7645   5.5525   C.ar      2 RES2   0.0000
    32 C15      5.6260   5.1688   2.0301   C.ar      2 RES2   0.0000
    33 C16      4.8944   5.7488   3.1055   C.ar      2 RES2   0.0000
    34 C17      2.6870  11.4315   2.9013   C.ar      2 RES2   0.0000
    35 H3       2.5204  11.9298   3.6687   H         2 RES2   0.0000
    36 C18      3.1764   9.9484   0.6183   C.ar      2 RES2   0.0000
    37 H4       3.3171   9.4587  -0.1598   H         2 RES2   0.0000
    38 C19      1.9041  11.6100   1.7938   C.ar      2 RES2   0.0000
    39 C20      8.1413   8.6716   6.7294   C.ar      2 RES2   0.0000
    40 C21      9.5636   9.6015   0.6183   C.ar      2 RES2   0.0000
    41 C22      7.8280  10.8297   2.3788   C.ar      2 RES2   0.0000
    42 H5       7.2578  11.2515   2.9808   H         2 RES2   0.0000
    43 C23      8.5344   7.0763   4.5187   C.ar      2 RES2   0.0000
    44 H6       8.6841   6.5311   3.7793   H         2 RES2   0.0000
    45 C24      2.1586  10.8493   0.6558   C.ar      2 RES2   0.0000
    46 H7       1.6202  10.9591  -0.0938   H         2 RES2   0.0000
    47 C25      5.3503   3.8409   1.6313   C.ar      2 RES2   0.0000
    48 H8       5.8315   3.4667   0.9295   H         2 RES2   0.0000
    49 C26      6.0430  10.5211   6.5418   C.ar      2 RES2   0.0000
    50 H9       5.3527  11.1431   6.4936   H         2 RES2   0.0000
    51 C27      9.1155   6.8749   0.1403   C.ar      2 RES2   0.0000
    52 H10      8.9846   5.9695  -0.0279   H         2 RES2   0.0000
    53 C28      4.3930   3.0990   2.2579   C.ar      2 RES2   0.0000
    54 C29     10.4022   8.8817  -0.2529   C.ar      2 RES2   0.0000
    55 H11     11.1024   9.3129  -0.6864   H         2 RES2   0.0000
    56 C30     10.1889   7.5615  -0.4613   C.ar      2 RES2   0.0000
    57 H12     10.7683   7.0931  -1.0179   H         2 RES2   0.0000
    58 C31      6.8350  10.4358   7.6951   C.ar      2 RES2   0.0000
    59 H13      6.6649  11.0076   8.4082   H         2 RES2   0.0000
    60 C32      3.6519   3.6868   3.2764   C.ar      2 RES2   0.0000
    61 H14      2.9820   3.1906   3.6880   H         2 RES2   0.0000
    62 C33      9.7003  10.9765   0.9032   C.ar      2 RES2   0.0000
    63 H15     10.3796  11.4681   0.5006   H         2 RES2   0.0000
    64 C34      3.8742   4.9700   3.6933   C.ar      2 RES2   0.0000
    65 H16      3.3488   5.3319   4.3707   H         2 RES2   0.0000
    66 C35      8.8443  11.5865   1.7619   C.ar      2 RES2   0.0000
    67 H17      8.9284  12.4951   1.9410   H         2 RES2   0.0000
    68 C36      9.3584   6.9331   5.6497   C.ar      2 RES2   0.0000
    69 H18     10.0405   6.2998   5.6502   H         2 RES2   0.0000
    70 C37      7.8502   9.5290   7.7923   C.ar      2 RES2   0.0000
    71 H19      8.3522   9.4813   8.5736   H         2 RES2   0.0000
    72 C38      9.1625   7.7064   6.7280   C.ar      2 RES2   0.0000
    73 H20      9.7046   7.6040   7.4768   H         2 RES2   0.0000
    74 C39      4.9859   1.0932   1.1324   C.3       2 RES2   0.0000
    75 H21      5.0163   1.5185   0.2714   H         2 RES2   0.0000
    76 H22      4.6912   0.1859   1.0305   H         2 RES2   0.0000
    77 H23      5.8625   1.1034   1.5241   H         2 RES2   0.0000
    78 C40      0.6753  13.3974   2.7637   C.3       2 RES2   0.0000
    79 H24     -0.0589  13.9819   2.5638   H         2 RES2   0.0000
    80 H25      1.4736  13.9168   2.8877   H         2 RES2   0.0000
    81 H26      0.4854  12.9070   3.5668   H         2 RES2   0.0000
    82 S1      10.0155  16.7507   2.6181   S.2       3 RES3  -1.0000
    83 C41      8.9571  15.5479   2.9027   C.1       3 RES3   0.0000
    84 N5       8.1986  14.6925   3.1028   N.1       3 RES3   0.0000
    85 O5       6.1986  13.2009   4.4603   O.3       4 RES4   0.0000
    86 H27      6.7360  13.7867   4.1608   H         4 RES4   0.0000
    87 H28      5.4929  13.5813   4.7433   H         4 RES4   0.0000
@<TRIPOS>BOND
     1     1     8    1
     2     2    12    1
     3     3     7    1
     4     4    10    1
     5     5     9    1
     6     6    11    1
     7     7     9   ar
     8     8     9   ar
     9    10     8   ar
    10    11     7   ar
    11    12    10   ar
    12    11    12   ar
    13    13    14    1
    14    14    30    1
    15    15    13    1
    16    16    13    1
    17    17    13    1
    18    18    13    1
    19    19    38    1
    20    20    13    1
    21    21    53    1
    22    22    17    2
    23    23    22    1
    24    24    16    2
    25    25    24    1
    26    26    17    1
    27    27    16    1
    28    28    18   ar
    29    29    24    1
    30    30    29   ar
    31    31    20   ar
    32    32    22    1
    33    33    15    1
    34    34    29   ar
    35    35    34    1
    36    36    30   ar
    37    37    36    1
    38    38    34   ar
    39    39    31   ar
    40    40    28   ar
    41    41    18   ar
    42    42    41    1
    43    43    20   ar
    44    44    43    1
    45    45    36   ar
    46    46    45    1
    47    47    32   ar
    48    48    47    1
    49    49    27   ar
    50    50    49    1
    51    51    26   ar
    52    52    51    1
    53    53    47   ar
    54    54    40   ar
    55    55    54    1
    56    56    51   ar
    57    57    56    1
    58    58    49   ar
    59    59    58    1
    60    60    53   ar
    61    61    60    1
    62    62    40   ar
    63    63    62    1
    64    64    33   ar
    65    65    64    1
    66    66    41   ar
    67    67    66    1
    68    68    43   ar
    69    69    68    1
    70    70    39   ar
    71    71    70    1
    72    72    39   ar
    73    73    72    1
    74    74    21    1
    75    75    74    1
    76    76    74    1
    77    77    74    1
    78    78    19    1
    79    79    78    1
    80    80    78    1
    81    81    78    1
    82    26    28   ar
    83    27    31   ar
    84    32    33   ar
    85    38    45   ar
    86    54    56   ar
    87    58    70   ar
    88    60    64   ar
    89    62    66   ar
    90    68    72   ar
    91    82    83    1
    92    83    84    3
    93    85    86    1
    94    87    85    1
@<TRIPOS>SUBSTRUCTURE
     1 RES1        1 GROUP             0 ****  ****    0  
     2 RES2       13 GROUP             0 ****  ****    0  
     3 RES3       82 GROUP             0 ****  ****    0  
     4 RES4       85 GROUP             0 ****  ****    0  
@<TRIPOS>CRYSIN
   11.5976   12.6154   14.2654   83.9450   78.3910   89.4980     2     1
