@<TRIPOS>MOLECULE
OPEYAM19
    87    94     4     0     0
SMALL
USER_CHARGES
****
Generated from the CSD

@<TRIPOS>ATOM
     1 I1       8.7735  10.3325   8.4848   I         1 RES1   0.0000
     2 I2       3.7793  12.1945   5.5372   I         1 RES1   0.0000
     3 I3       6.9139   7.5019   3.4752   I         1 RES1   0.0000
     4 F1       6.2191  12.0613   7.6014   F         1 RES1   0.0000
     5 F2       8.5924   8.3227   6.0414   F         1 RES1   0.0000
     6 F3       4.6769   9.6867   3.8676   F         1 RES1   0.0000
     7 C1       7.4309  10.1878   6.8669   C.ar      1 RES1   0.0000
     8 C2       6.6511   8.9945   4.9022   C.ar      1 RES1   0.0000
     9 C3       5.4052  10.9092   5.7291   C.ar      1 RES1   0.0000
    10 C4       7.5532   9.1834   5.9314   C.ar      1 RES1   0.0000
    11 C5       6.3515  11.0520   6.7225   C.ar      1 RES1   0.0000
    12 C6       5.5825   9.8641   4.8389   C.ar      1 RES1   0.0000
    13 Fe1      0.5757   8.1578   2.9178   Fe        2 RES2   1.0000
    14 O1      -0.5970   6.8960   3.6445   O.3       2 RES2   0.0000
    15 O2      -0.6322   8.6395   1.5637   O.3       2 RES2   0.0000
    16 O3      -4.9202  12.1295   1.6579   O.3       2 RES2   0.0000
    17 O4      -1.7777   1.7589   2.0101   O.3       2 RES2   0.0000
    18 N1      -0.1116   9.4401   4.2033   N.2       2 RES2   0.0000
    19 N2       1.8812   7.7833   4.3711   N.ar      2 RES2   0.0000
    20 N3       1.9134   9.4015   2.1519   N.ar      2 RES2   0.0000
    21 N4       1.3732   6.9185   1.6648   N.2       2 RES2   0.0000
    22 C7       0.6312   9.4964   5.4168   C.ar      2 RES2   0.0000
    23 C8      -1.1735  10.1690   4.0409   C.2       2 RES2   0.0000
    24 H1      -1.4463  10.7133   4.7706   H         2 RES2   0.0000
    25 C9      -1.6526   9.4686   1.6909   C.ar      2 RES2   0.0000
    26 C10     -0.1856   5.1131   2.0390   C.ar      2 RES2   0.0000
    27 C11     -1.9582  10.2163   2.8590   C.ar      2 RES2   0.0000
    28 C12      2.5168   7.4288   0.9920   C.ar      2 RES2   0.0000
    29 C13      0.8997   5.7393   1.3539   C.2       2 RES2   0.0000
    30 H2       1.3003   5.2722   0.6304   H         2 RES2   0.0000
    31 C14     -2.5008   9.6466   0.5737   C.ar      2 RES2   0.0000
    32 H3      -2.3291   9.1542  -0.2200   H         2 RES2   0.0000
    33 C15      1.6894   8.5773   5.4787   C.ar      2 RES2   0.0000
    34 C16     -3.0691  11.1173   2.8673   C.ar      2 RES2   0.0000
    35 H4      -3.2637  11.6148   3.6530   H         2 RES2   0.0000
    36 C17     -3.8542  11.2725   1.7570   C.ar      2 RES2   0.0000
    37 C18      2.7589   8.7866   1.2548   C.ar      2 RES2   0.0000
    38 C19     -0.8677   5.7098   3.1273   C.ar      2 RES2   0.0000
    39 C20     -1.4564   3.0644   2.2908   C.ar      2 RES2   0.0000
    40 C21     -3.5642  10.5118   0.6040   C.ar      2 RES2   0.0000
    41 H5      -4.1156  10.6015  -0.1639   H         2 RES2   0.0000
    42 C22      2.8558   6.8855   4.3918   C.ar      2 RES2   0.0000
    43 H6       2.9884   6.3368   3.6277   H         2 RES2   0.0000
    44 C23      2.4995   8.4766   6.6248   C.ar      2 RES2   0.0000
    45 C24      3.8169   9.4846   0.6274   C.ar      2 RES2   0.0000
    46 C25     -2.1666   3.6669   3.3310   C.ar      2 RES2   0.0000
    47 H7      -2.8521   3.1765   3.7694   H         2 RES2   0.0000
    48 C26      4.6640   8.7517  -0.2435   C.ar      2 RES2   0.0000
    49 H8       5.3813   9.1894  -0.6866   H         2 RES2   0.0000
    50 C27      2.0816  10.6962   2.4023   C.ar      2 RES2   0.0000
    51 H9       1.5034  11.1215   3.0252   H         2 RES2   0.0000
    52 C28     -1.9001   4.9468   3.7369   C.ar      2 RES2   0.0000
    53 H10     -2.4130   5.3314   4.4377   H         2 RES2   0.0000
    54 C29     -0.4927   3.7892   1.6263   C.ar      2 RES2   0.0000
    55 H11     -0.0322   3.4025   0.8908   H         2 RES2   0.0000
    56 C30      1.2089  10.2594   7.6195   C.ar      2 RES2   0.0000
    57 H12      1.0410  10.8469   8.3471   H         2 RES2   0.0000
    58 C31      0.4046  10.3373   6.4693   C.ar      2 RES2   0.0000
    59 H13     -0.2965  10.9762   6.4239   H         2 RES2   0.0000
    60 C32      3.3759   6.7356   0.1568   C.ar      2 RES2   0.0000
    61 H14      3.2409   5.8100  -0.0076   H         2 RES2   0.0000
    62 C33      2.2337   9.3484   7.7104   C.ar      2 RES2   0.0000
    63 H15      2.7617   9.3023   8.4981   H         2 RES2   0.0000
    64 C34      3.5222   7.4994   6.6193   C.ar      2 RES2   0.0000
    65 H16      4.0797   7.3851   7.3795   H         2 RES2   0.0000
    66 C35      3.0838  11.4588   1.7776   C.ar      2 RES2   0.0000
    67 H17      3.1586  12.3872   1.9607   H         2 RES2   0.0000
    68 C36      3.9522  10.8601   0.9039   C.ar      2 RES2   0.0000
    69 H18      4.6383  11.3673   0.4870   H         2 RES2   0.0000
    70 C37      4.4469   7.4140  -0.4472   C.ar      2 RES2   0.0000
    71 H19      5.0380   6.9314  -1.0123   H         2 RES2   0.0000
    72 C38      3.7018   6.7131   5.5035   C.ar      2 RES2   0.0000
    73 H20      4.3909   6.0604   5.4832   H         2 RES2   0.0000
    74 C39     -5.0938  13.0551   2.7173   C.3       2 RES2   0.0000
    75 H21     -5.8647  13.6299   2.5252   H         2 RES2   0.0000
    76 H22     -4.2891  13.6069   2.8046   H         2 RES2   0.0000
    77 H23     -5.2498  12.5690   3.5535   H         2 RES2   0.0000
    78 C40     -0.8821   1.0487   1.1557   C.3       2 RES2   0.0000
    79 H24     -0.8791   1.4656   0.2687   H         2 RES2   0.0000
    80 H25     -1.1743   0.1170   1.0782   H         2 RES2   0.0000
    81 H26      0.0214   1.0782   1.5336   H         2 RES2   0.0000
    82 S1      10.6256   9.8683  11.1364   S.2       3 RES3  -1.0000
    83 N5      12.6778  11.7354  10.7029   N.1       3 RES3   0.0000
    84 C41     11.8289  10.9661  10.8790   C.1       3 RES3   0.0000
    85 O5      14.5962  13.2558   9.3339   O.3       4 RES4   0.0000
    86 H27     15.1853  12.7800   8.9496   H         4 RES4   0.0000
    87 H28     14.0749  12.7557   9.7819   H         4 RES4   0.0000
@<TRIPOS>BOND
     1     1     7    1
     2     2     9    1
     3     3     8    1
     4     4    11    1
     5     5    10    1
     6     6    12    1
     7     7    10   ar
     8     8    10   ar
     9     9    11   ar
    10    11     7   ar
    11    12     8   ar
    12     9    12   ar
    13    13    14    1
    14    14    38    1
    15    15    13    1
    16    16    36    1
    17    17    39    1
    18    18    13    1
    19    19    13    1
    20    20    13    1
    21    21    13    1
    22    22    18    1
    23    23    18    2
    24    24    23    1
    25    25    15    1
    26    26    29    1
    27    27    23    1
    28    28    21    1
    29    29    21    2
    30    30    29    1
    31    31    25   ar
    32    32    31    1
    33    33    19   ar
    34    34    27   ar
    35    35    34    1
    36    36    34   ar
    37    37    20   ar
    38    38    26   ar
    39    39    46   ar
    40    40    31   ar
    41    41    40    1
    42    42    19   ar
    43    43    42    1
    44    44    33   ar
    45    45    37   ar
    46    46    47    1
    47    48    45   ar
    48    49    48    1
    49    50    20   ar
    50    51    50    1
    51    52    38   ar
    52    53    52    1
    53    54    26   ar
    54    55    54    1
    55    56    57    1
    56    58    22   ar
    57    59    58    1
    58    60    28   ar
    59    61    60    1
    60    62    44   ar
    61    63    62    1
    62    64    44   ar
    63    65    64    1
    64    66    50   ar
    65    67    66    1
    66    68    45   ar
    67    69    68    1
    68    70    48   ar
    69    71    70    1
    70    72    42   ar
    71    73    72    1
    72    74    16    1
    73    75    74    1
    74    76    74    1
    75    77    74    1
    76    78    17    1
    77    79    78    1
    78    80    78    1
    79    81    78    1
    80    22    33   ar
    81    25    27   ar
    82    28    37   ar
    83    36    40   ar
    84    39    54   ar
    85    46    52   ar
    86    56    58   ar
    87    56    62   ar
    88    60    70   ar
    89    64    72   ar
    90    66    68   ar
    91    82    84    1
    92    83    84    3
    93    85    86    1
    94    87    85    1
@<TRIPOS>SUBSTRUCTURE
     1 RES1        1 GROUP             0 ****  ****    0  
     2 RES2       13 GROUP             0 ****  ****    0  
     3 RES3       82 GROUP             0 ****  ****    0  
     4 RES4       85 GROUP             0 ****  ****    0  
@<TRIPOS>CRYSIN
   11.7015   12.3484   14.1728   83.6090   77.6330   89.1770     2     1
