@<TRIPOS>MOLECULE
OPIVOB01
    90    97     4     0     0
SMALL
USER_CHARGES
****
Generated from the CSD

@<TRIPOS>ATOM
     1 I1       5.0596   1.8574   8.6302   I         1 RES1   0.0000
     2 I2       0.2046   3.6270   5.3935   I         1 RES1   0.0000
     3 I3       1.6157   6.3476  10.6204   I         1 RES1   0.0000
     4 F1       3.8856   4.2058  10.3534   F         1 RES1   0.0000
     5 F2       0.1199   5.5444   7.9246   F         1 RES1   0.0000
     6 F3       2.7413   1.9544   6.4010   F         1 RES1   0.0000
     7 C1       3.0921   4.0434   9.3119   C.ar      1 RES1   0.0000
     8 C2       3.3696   3.0538   8.3842   C.ar      1 RES1   0.0000
     9 C3       1.9908   4.8913   9.1910   C.ar      1 RES1   0.0000
    10 C4       1.3928   3.7346   7.1192   C.ar      1 RES1   0.0000
    11 C5       1.1748   4.7199   8.0806   C.ar      1 RES1   0.0000
    12 C6       2.4995   2.9147   7.3104   C.ar      1 RES1   0.0000
    13 Fe1      8.0662   5.6673  11.0998   Fe        2 RES2   1.0000
    14 O1       9.2731   5.1852  12.4576   O.3       2 RES2   0.0000
    15 O2       9.1998   6.9661  10.3886   O.3       2 RES2   0.0000
    16 O3      10.3429  12.0782  12.1526   O.3       2 RES2   0.0000
    17 O4      13.4569   1.5614  12.4449   O.3       2 RES2   0.0000
    18 N1       8.7989   4.4320   9.7912   N.2       2 RES2   0.0000
    19 N2       6.7666   6.0325   9.6422   N.ar      2 RES2   0.0000
    20 N3       6.7729   4.3858  11.8729   N.ar      2 RES2   0.0000
    21 N4       7.2374   6.8828  12.3690   N.2       2 RES2   0.0000
    22 C7      10.2608   4.3080  12.3479   C.ar      2 RES2   0.0000
    23 C8       9.8524   3.6747   9.9697   C.2       2 RES2   0.0000
    24 H1      10.1526   3.1588   9.2305   H         2 RES2   0.0000
    25 C9       6.1038   6.3443  13.0325   C.ar      2 RES2   0.0000
    26 C10     11.6550   2.6369  11.1940   C.ar      2 RES2   0.0000
    27 H2      11.8560   2.1450  10.4063   H         2 RES2   0.0000
    28 C11     10.5866   3.5659  11.1897   C.ar      2 RES2   0.0000
    29 C12      7.0203   5.3164   8.4939   C.ar      2 RES2   0.0000
    30 C13      5.8990   4.9690  12.7682   C.ar      2 RES2   0.0000
    31 C14      8.1269   4.4314   8.5402   C.ar      2 RES2   0.0000
    32 C15     12.4055   2.4425  12.3311   C.ar      2 RES2   0.0000
    33 C16      9.4621   8.1515  10.9227   C.ar      2 RES2   0.0000
    34 C17      7.6886   8.0575  12.6839   C.2       2 RES2   0.0000
    35 H3       7.2718   8.5144  13.4046   H         2 RES2   0.0000
    36 C18      5.7394   6.8755   9.6422   C.ar      2 RES2   0.0000
    37 H4       5.5496   7.3705  10.4303   H         2 RES2   0.0000
    38 C19     11.0654   4.0839  13.5019   C.ar      2 RES2   0.0000
    39 H5      10.8800   4.5640  14.3016   H         2 RES2   0.0000
    40 C20      5.2246   7.0073  13.8575   C.ar      2 RES2   0.0000
    41 H6       5.3288   7.9385  14.0158   H         2 RES2   0.0000
    42 C21      8.7636   8.7076  12.0218   C.ar      2 RES2   0.0000
    43 C22     10.4792   8.9380  10.3253   C.ar      2 RES2   0.0000
    44 H7      10.9841   8.5804   9.6045   H         2 RES2   0.0000
    45 C23      6.6487   3.0860  11.6255   C.ar      2 RES2   0.0000
    46 H8       7.2345   2.6806  10.9964   H         2 RES2   0.0000
    47 C24     10.0223  10.7765  11.8321   C.ar      2 RES2   0.0000
    48 C25      9.0734  10.0310  12.4660   C.ar      2 RES2   0.0000
    49 H9       8.6124  10.3951  13.2128   H         2 RES2   0.0000
    50 C26     12.1054   3.1835  13.4780   C.ar      2 RES2   0.0000
    51 H10     12.6334   3.0633  14.2588   H         2 RES2   0.0000
    52 C27      8.4293   3.6869   7.4228   C.ar      2 RES2   0.0000
    53 H11      9.1639   3.0845   7.4418   H         2 RES2   0.0000
    54 C28      4.9195   7.0573   8.5051   C.ar      2 RES2   0.0000
    55 H12      4.1938   7.6702   8.5382   H         2 RES2   0.0000
    56 C29      7.6654   3.8129   6.2646   C.ar      2 RES2   0.0000
    57 H13      7.8878   3.2935   5.5008   H         2 RES2   0.0000
    58 C30      4.8665   4.2471  13.3993   C.ar      2 RES2   0.0000
    59 C31     10.7471  10.2129  10.7737   C.ar      2 RES2   0.0000
    60 H14     11.4348  10.7186  10.3569   H         2 RES2   0.0000
    61 C32      3.9977   4.9486  14.2609   C.ar      2 RES2   0.0000
    62 H15      3.2932   4.4874  14.7007   H         2 RES2   0.0000
    63 C33      5.6805   2.2893  12.2608   C.ar      2 RES2   0.0000
    64 H16      5.6458   1.3557  12.0888   H         2 RES2   0.0000
    65 C34      6.2462   5.4443   7.3301   C.ar      2 RES2   0.0000
    66 C35      6.5888   4.6791   6.2056   C.ar      2 RES2   0.0000
    67 H17      6.0830   4.7563   5.4048   H         2 RES2   0.0000
    68 C36      5.1647   6.3639   7.3722   C.ar      2 RES2   0.0000
    69 H18      4.6154   6.4902   6.6076   H         2 RES2   0.0000
    70 C37      9.3702  12.7938  12.9116   C.3       2 RES2   0.0000
    71 H19      8.4965  12.7198  12.4737   H         2 RES2   0.0000
    72 H20      9.6289  13.7368  12.9682   H         2 RES2   0.0000
    73 H21      9.3165  12.4144  13.8136   H         2 RES2   0.0000
    74 C38      4.1684   6.3009  14.4675   C.ar      2 RES2   0.0000
    75 H22      3.5620   6.7649  15.0328   H         2 RES2   0.0000
    76 C39      4.7847   2.8590  13.1322   C.ar      2 RES2   0.0000
    77 H23      4.1168   2.3277  13.5505   H         2 RES2   0.0000
    78 C40     13.6913   0.7041  11.3401   C.3       2 RES2   0.0000
    79 H24     13.9186   1.2415  10.5520   H         2 RES2   0.0000
    80 H25     12.8839   0.1805  11.1560   H         2 RES2   0.0000
    81 H26     14.4335   0.0990  11.5474   H         2 RES2   0.0000
    82 S1       4.1741  -2.8203  11.4094   S.2       3 RES3  -1.0000
    83 C41      5.3459  -1.7282  11.1701   C.1       3 RES3   0.0000
    84 N5       6.1946  -0.9580  11.0365   N.1       3 RES3   0.0000
    85 O5       7.7065   0.8551   9.5986   O.3       4 RES4   0.0000
    86 H27      7.2184   0.2363   9.8889   H         4 RES4   0.0000
    87 C42      8.9214   0.3199   9.1446   C.3       4 RES4   0.0000
    88 H28      9.1539   0.7229   8.2820   H         4 RES4   0.0000
    89 H29      8.8319  -0.6501   9.0386   H         4 RES4   0.0000
    90 H30      9.6279   0.5134   9.7961   H         4 RES4   0.0000
@<TRIPOS>BOND
     1     1     8    1
     2     2    10    1
     3     3     9    1
     4     4     7    1
     5     5    11    1
     6     6    12    1
     7     7     8   ar
     8     8    12   ar
     9     9     7   ar
    10    10    11   ar
    11    11     9   ar
    12    12    10   ar
    13    13    14    1
    14    14    22    1
    15    15    13    1
    16    16    47    1
    17    17    32    1
    18    18    13    1
    19    19    13    1
    20    20    13    1
    21    21    13    1
    22    22    28   ar
    23    23    18    2
    24    24    23    1
    25    25    21    1
    26    26    27    1
    27    28    23    1
    28    29    19   ar
    29    30    20   ar
    30    31    18    1
    31    32    26   ar
    32    33    15    1
    33    34    21    2
    34    35    34    1
    35    36    19   ar
    36    37    36    1
    37    38    22   ar
    38    39    38    1
    39    40    25   ar
    40    41    40    1
    41    42    33   ar
    42    43    33   ar
    43    44    43    1
    44    45    20   ar
    45    46    45    1
    46    47    48   ar
    47    48    42   ar
    48    49    48    1
    49    50    32   ar
    50    51    50    1
    51    52    31   ar
    52    53    52    1
    53    54    36   ar
    54    55    54    1
    55    56    52   ar
    56    57    56    1
    57    58    30   ar
    58    59    43   ar
    59    60    59    1
    60    61    58   ar
    61    62    61    1
    62    63    45   ar
    63    64    63    1
    64    65    29   ar
    65    66    56   ar
    66    67    66    1
    67    68    54   ar
    68    69    68    1
    69    70    16    1
    70    71    70    1
    71    72    70    1
    72    73    70    1
    73    74    40   ar
    74    75    74    1
    75    76    58   ar
    76    77    76    1
    77    78    17    1
    78    79    78    1
    79    80    78    1
    80    81    78    1
    81    25    30   ar
    82    26    28   ar
    83    29    31   ar
    84    34    42    1
    85    38    50   ar
    86    47    59   ar
    87    61    74   ar
    88    63    76   ar
    89    65    66   ar
    90    65    68   ar
    91    82    83    1
    92    83    84    3
    93    85    86    1
    94    87    85    1
    95    88    87    1
    96    89    87    1
    97    90    87    1
@<TRIPOS>SUBSTRUCTURE
     1 RES1        1 GROUP             0 ****  ****    0  
     2 RES2       13 GROUP             0 ****  ****    0  
     3 RES3       82 GROUP             0 ****  ****    0  
     4 RES4       85 GROUP             0 ****  ****    0  
@<TRIPOS>CRYSIN
   11.5457   12.5260   14.3742   84.6900   79.1750   89.9780     2     1
