@<TRIPOS>MOLECULE
OPIVOB
    90    97     4     0     0
SMALL
USER_CHARGES
****
Generated from the CSD

@<TRIPOS>ATOM
     1 I1      11.1824   9.0040   5.2852   I         1 RES1   0.0000
     2 I2       6.4813  10.8265   8.7096   I         1 RES1   0.0000
     3 I3       9.9968   6.3594  10.5941   I         1 RES1   0.0000
     4 F1      11.3580   7.1181   7.8352   F         1 RES1   0.0000
     5 F2       7.7436   8.5263  10.4314   F         1 RES1   0.0000
     6 F3       8.6650  10.6603   6.3530   F         1 RES1   0.0000
     7 C1       8.1301   9.6107   8.4190   C.ar      1 RES1   0.0000
     8 C2      10.0449   8.9031   7.0483   C.ar      1 RES1   0.0000
     9 C3       9.5678   7.7909   9.1777   C.ar      1 RES1   0.0000
    10 C4       8.4907   8.6693   9.3328   C.ar      1 RES1   0.0000
    11 C5      10.3069   7.9354   8.0143   C.ar      1 RES1   0.0000
    12 C6       8.9523   9.7349   7.2626   C.ar      1 RES1   0.0000
    13 Fe1      3.3741   7.0060  11.2001   Fe        2 RES2   1.0000
    14 O1       2.0834   7.6780  12.4395   O.3       2 RES2   0.0000
    15 O2       2.3624   5.5358  10.5780   O.3       2 RES2   0.0000
    16 N1       2.6793   8.3923   9.7926   N.2       2 RES2   0.0000
    17 N2       4.3994   5.6985  12.4931   N.2       2 RES2   0.0000
    18 O3      -1.8431  11.5480  12.3874   O.3       2 RES2   0.0000
    19 O4       1.5783   0.3254  12.1758   O.3       2 RES2   0.0000
    20 N3       4.7403   6.7694   9.5599   N.ar      2 RES2   0.0000
    21 N4       4.8471   8.2732  12.0630   N.ar      2 RES2   0.0000
    22 C7       2.2103   4.3138  11.0476   C.ar      2 RES2   0.0000
    23 C8       5.5243   6.2629  13.1630   C.ar      2 RES2   0.0000
    24 C9       3.3338   8.3662   8.5290   C.ar      2 RES2   0.0000
    25 C10      5.7191   7.6656  12.9091   C.ar      2 RES2   0.0000
    26 C11      1.7104   9.2475  10.0069   C.2       2 RES2   0.0000
    27 H1       1.4940   9.8171   9.3040   H         2 RES2   0.0000
    28 C12      0.9529   9.3946  11.2084   C.ar      2 RES2   0.0000
    29 C13      4.4384   7.4954   8.4514   C.ar      2 RES2   0.0000
    30 C14      1.1757   8.6262  12.3620   C.ar      2 RES2   0.0000
    31 C15      2.9960   3.7558  12.0799   C.ar      2 RES2   0.0000
    32 C16      6.7654   8.3610  13.5466   C.ar      2 RES2   0.0000
    33 C17      4.0490   4.4694  12.7300   C.2       2 RES2   0.0000
    34 H2       4.5281   4.0122  13.3828   H         2 RES2   0.0000
    35 C18      7.6472   7.6511  14.3744   C.ar      2 RES2   0.0000
    36 H3       8.3589   8.0920  14.7791   H         2 RES2   0.0000
    37 C19     -0.0660  10.3905  11.1858   C.ar      2 RES2   0.0000
    38 H4      -0.2093  10.8905  10.4151   H         2 RES2   0.0000
    39 C20      5.1861   7.3846   7.2386   C.ar      2 RES2   0.0000
    40 C21     -0.8280  10.6126  12.2915   C.ar      2 RES2   0.0000
    41 C22      0.3546   8.9039  13.4972   C.ar      2 RES2   0.0000
    42 H5       0.4730   8.4138  14.2786   H         2 RES2   0.0000
    43 C23      6.4178   5.6240  13.9724   C.ar      2 RES2   0.0000
    44 H6       6.3307   4.7100  14.1197   H         2 RES2   0.0000
    45 C24      2.9778   9.1044   7.4036   C.ar      2 RES2   0.0000
    46 H7       2.2458   9.6762   7.4358   H         2 RES2   0.0000
    47 C25      2.7932   2.4080  12.4945   C.ar      2 RES2   0.0000
    48 H8       3.3001   2.0512  13.1881   H         2 RES2   0.0000
    49 C26      5.7789   5.9284   9.5331   C.ar      2 RES2   0.0000
    50 H9       5.9920   5.4339  10.2909   H         2 RES2   0.0000
    51 C27      1.8463   1.6389  11.8656   C.ar      2 RES2   0.0000
    52 C28      1.0414   2.1934  10.8784   C.ar      2 RES2   0.0000
    53 H10      0.3671   1.6808  10.4956   H         2 RES2   0.0000
    54 C29      1.2271   3.4935  10.4596   C.ar      2 RES2   0.0000
    55 H11      0.6959   3.8340   9.7769   H         2 RES2   0.0000
    56 C30      4.9720   9.5851  11.8303   C.ar      2 RES2   0.0000
    57 H12      4.3796  10.0016  11.2467   H         2 RES2   0.0000
    58 C31      6.8682   9.7488  13.2730   C.ar      2 RES2   0.0000
    59 H13      7.5500  10.2456  13.6644   H         2 RES2   0.0000
    60 C32      7.4648   6.3231  14.5859   C.ar      2 RES2   0.0000
    61 H14      8.0475   5.8684  15.1508   H         2 RES2   0.0000
    62 C33     -0.6042   9.8774  13.4507   C.ar      2 RES2   0.0000
    63 H15     -1.1153  10.0506  14.2077   H         2 RES2   0.0000
    64 C34      6.2743   6.5027   7.2556   C.ar      2 RES2   0.0000
    65 H16      6.8040   6.4123   6.4963   H         2 RES2   0.0000
    66 C35      3.7206   8.9860   6.2261   C.ar      2 RES2   0.0000
    67 H17      3.4689   9.4762   5.4760   H         2 RES2   0.0000
    68 C36      6.5609   5.7855   8.3541   C.ar      2 RES2   0.0000
    69 H18      7.2755   5.1907   8.3446   H         2 RES2   0.0000
    70 C37      4.8027   8.1677   6.1570   C.ar      2 RES2   0.0000
    71 H19      5.2975   8.1306   5.3696   H         2 RES2   0.0000
    72 C38      5.9902  10.3547  12.4550   C.ar      2 RES2   0.0000
    73 H20      6.0483  11.2695  12.2986   H         2 RES2   0.0000
    74 C39      2.5488  -0.3653  12.9571   C.3       2 RES2   0.0000
    75 H21      3.3596  -0.4577  12.4527   H         2 RES2   0.0000
    76 H22      2.2136  -1.2357  13.1868   H         2 RES2   0.0000
    77 H23      2.7254   0.1308  13.7600   H         2 RES2   0.0000
    78 C40     -2.0622  12.3550  11.3015   C.3       2 RES2   0.0000
    79 H24     -2.3702  11.8221  10.5640   H         2 RES2   0.0000
    80 H25     -1.2445  12.7944  11.0588   H         2 RES2   0.0000
    81 H26     -2.7269  13.0120  11.5202   H         2 RES2   0.0000
    82 S1       7.0487  15.9470  11.4697   S.2       3 RES3  -1.0000
    83 C41      6.1310  14.6004  11.1943   C.1       3 RES3   0.0000
    84 N5       5.5291  13.6643  11.0688   N.1       3 RES3   0.0000
    85 O5       3.8378  11.8704   9.7390   O.3       4 RES4   0.0000
    86 H27      4.2029  12.3867  10.2607   H         4 RES4   0.0000
    87 C42      2.9452  12.5495   8.9817   C.3       4 RES4   0.0000
    88 H28      3.0265  12.2724   8.0654   H         4 RES4   0.0000
    89 H29      3.1202  13.4910   9.0472   H         4 RES4   0.0000
    90 H30      2.0557  12.3666   9.2928   H         4 RES4   0.0000
@<TRIPOS>BOND
     1     1     8    1
     2     2     7    1
     3     3     9    1
     4     4    11    1
     5     5    10    1
     6     6    12    1
     7     7    10   ar
     8     8    11   ar
     9     9    10   ar
    10    11     9   ar
    11    12     7   ar
    12     8    12   ar
    13    13    14    1
    14    14    30    1
    15    15    13    1
    16    16    13    1
    17    17    13    1
    18    18    40    1
    19    19    51    1
    20    20    13    1
    21    21    13    1
    22    22    15    1
    23    23    17    1
    24    24    16    1
    25    25    21   ar
    26    26    16    2
    27    27    26    1
    28    28    26    1
    29    29    20   ar
    30    30    28   ar
    31    31    22   ar
    32    32    25   ar
    33    33    17    2
    34    34    33    1
    35    35    32   ar
    36    36    35    1
    37    37    28   ar
    38    38    37    1
    39    39    29   ar
    40    40    37   ar
    41    41    30   ar
    42    42    41    1
    43    43    23   ar
    44    44    43    1
    45    45    24   ar
    46    46    45    1
    47    47    31   ar
    48    48    47    1
    49    49    20   ar
    50    50    49    1
    51    51    47   ar
    52    52    51   ar
    53    53    52    1
    54    54    22   ar
    55    55    54    1
    56    56    21   ar
    57    57    56    1
    58    58    32   ar
    59    59    58    1
    60    60    35   ar
    61    61    60    1
    62    62    40   ar
    63    63    62    1
    64    64    39   ar
    65    65    64    1
    66    66    45   ar
    67    67    66    1
    68    68    49   ar
    69    69    68    1
    70    70    39   ar
    71    71    70    1
    72    72    56   ar
    73    73    72    1
    74    74    19    1
    75    75    74    1
    76    76    74    1
    77    77    74    1
    78    78    18    1
    79    79    78    1
    80    80    78    1
    81    81    78    1
    82    23    25   ar
    83    24    29   ar
    84    31    33    1
    85    41    62   ar
    86    43    60   ar
    87    52    54   ar
    88    58    72   ar
    89    64    68   ar
    90    66    70   ar
    91    82    83    1
    92    83    84    3
    93    85    86    1
    94    87    85    1
    95    88    87    1
    96    89    87    1
    97    90    87    1
@<TRIPOS>SUBSTRUCTURE
     1 RES1        1 GROUP             0 ****  ****    0  
     2 RES2       13 GROUP             0 ****  ****    0  
     3 RES3       82 GROUP             0 ****  ****    0  
     4 RES4       85 GROUP             0 ****  ****    0  
@<TRIPOS>CRYSIN
   11.3748   13.0212   14.3866   95.7630   99.7610   90.5370     2     1
