@<TRIPOS>MOLECULE
OQEGUN
    86    96     2     0     0
SMALL
NO_CHARGES
****
Generated from the CSD

@<TRIPOS>ATOM
     1 Fe1      1.8735   4.1566  11.2561   Fe        1 RES1   0.0000
     2 O1       3.7574   5.5011  13.0203   O.3       1 RES1   0.0000
     3 O2       0.5065   2.8217   9.1043   O.3       1 RES1   0.0000
     4 O3       2.4414   3.7601  14.0551   O.3       1 RES1   0.0000
     5 O4      -0.7275   4.6258  10.1606   O.3       1 RES1   0.0000
     6 O5       1.1178   5.1513   8.6469   O.3       1 RES1   0.0000
     7 O6       2.8708   8.6826   9.3587   O.3       1 RES1   0.0000
     8 O7       3.4985   8.2977   6.6535   O.3       1 RES1   0.0000
     9 O8       4.2550   3.1564  12.5386   O.3       1 RES1   0.0000
    10 N1       3.3861   2.9957  11.5113   N.2       1 RES1   0.0000
    11 N2       1.4878   2.7263  10.0403   N.2       1 RES1   0.0000
    12 N3       1.9816   5.2769   9.7119   N.2       1 RES1   0.0000
    13 N4       0.0025   4.4819  11.3082   N.2       1 RES1   0.0000
    14 N5       3.0514   5.5580  11.8573   N.2       1 RES1   0.0000
    15 N6       1.4689   3.8543  13.0969   N.2       1 RES1   0.0000
    16 B1       3.7865   4.1304  13.5490   B         1 RES1   0.0000
    17 B2       0.0164   4.2058   8.9332   B         1 RES1   0.0000
    18 F1      -0.8487   4.2376   7.9106   F         1 RES1   0.0000
    19 F2       4.6478   4.1120  14.5945   F         1 RES1   0.0000
    20 C1       4.3119   0.7448  11.2234   C.ar      1 RES1   0.0000
    21 C2       3.4152   1.8543  10.8685   C.2       1 RES1   0.0000
    22 C3       2.3555   1.7723   9.8761   C.2       1 RES1   0.0000
    23 C4      -2.1206   4.0986  12.5125   C.ar      1 RES1   0.0000
    24 C5      -0.6707   4.2777  12.4136   C.2       1 RES1   0.0000
    25 C6       5.6810   0.9573  11.4530   C.ar      1 RES1   0.0000
    26 H1       6.0611   1.8008  11.3612   H         1 RES1   0.0000
    27 C7      -1.0685   5.1145  15.3218   C.ar      1 RES1   0.0000
    28 H2      -1.4449   5.6819  14.6862   H         1 RES1   0.0000
    29 C8       0.2425   4.0300  13.5172   C.2       1 RES1   0.0000
    30 C9      -0.1263   4.1355  14.9387   C.ar      1 RES1   0.0000
    31 C10      2.3618   0.8083   8.7760   C.ar      1 RES1   0.0000
    32 C11      2.6940   6.3513   9.7472   C.2       1 RES1   0.0000
    33 C12      3.4404   6.4149  10.9886   C.2       1 RES1   0.0000
    34 C13      3.7814  -0.5305  11.3152   C.ar      1 RES1   0.0000
    35 H3       2.8796  -0.6644  11.1316   H         1 RES1   0.0000
    36 C14      0.4345   3.3154  15.9028   C.ar      1 RES1   0.0000
    37 H4       1.0445   2.6594  15.6521   H         1 RES1   0.0000
    38 C15      2.6094   7.4325   8.6718   C.3       1 RES1   0.0000
    39 H5       1.7063   7.4492   8.2922   H         1 RES1   0.0000
    40 C16      4.5683  -1.6100  11.6702   C.ar      1 RES1   0.0000
    41 H6       4.2071  -2.4652  11.7249   H         1 RES1   0.0000
    42 C17     -1.4221   5.2183  16.6444   C.ar      1 RES1   0.0000
    43 H7      -2.0625   5.8442  16.8969   H         1 RES1   0.0000
    44 C18      5.9235  -1.3824  11.9509   C.ar      1 RES1   0.0000
    45 H8       6.4602  -2.0920  12.2246   H         1 RES1   0.0000
    46 C19      6.4602  -0.1556  11.8291   C.ar      1 RES1   0.0000
    47 H9       7.3671  -0.0385  11.9986   H         1 RES1   0.0000
    48 C20     -0.8500   4.4200  17.5997   C.ar      1 RES1   0.0000
    49 H10     -1.0950   4.5204  18.4915   H         1 RES1   0.0000
    50 C21      3.5478   0.5874   8.0662   C.ar      1 RES1   0.0000
    51 H11      4.3498   0.9858   8.3152   H         1 RES1   0.0000
    52 C22      0.0935   3.4610  17.2466   C.ar      1 RES1   0.0000
    53 H12      0.4900   2.9271  17.8964   H         1 RES1   0.0000
    54 C23     -2.9782   4.9572  11.8256   C.ar      1 RES1   0.0000
    55 H13     -2.6472   5.6568  11.3099   H         1 RES1   0.0000
    56 C24     -2.6435   3.1012  13.3018   C.ar      1 RES1   0.0000
    57 H14     -2.0738   2.5389  13.7768   H         1 RES1   0.0000
    58 C25     -4.0138   2.9288  13.3954   C.ar      1 RES1   0.0000
    59 H15     -4.3624   2.2543  13.9304   H         1 RES1   0.0000
    60 C26     -4.3472   4.7262  11.9386   C.ar      1 RES1   0.0000
    61 H16     -4.9308   5.2752  11.4653   H         1 RES1   0.0000
    62 C27      2.8569   9.7588   8.3752   C.3       1 RES1   0.0000
    63 H17      1.9640   9.8391   8.0044   H         1 RES1   0.0000
    64 H18      3.0716  10.5956   8.8166   H         1 RES1   0.0000
    65 C28      1.2112  -0.6912   7.2663   C.ar      1 RES1   0.0000
    66 H19      0.4319  -1.1397   7.0314   H         1 RES1   0.0000
    67 C29      3.5857   7.2383   7.6018   C.3       1 RES1   0.0000
    68 H20      4.4799   7.2115   7.9779   H         1 RES1   0.0000
    69 H21      3.4189   6.3898   7.1603   H         1 RES1   0.0000
    70 C30      3.7978   9.5362   7.2963   C.3       1 RES1   0.0000
    71 H22      3.7410  10.2625   6.6553   H         1 RES1   0.0000
    72 H23      4.7021   9.5127   7.6494   H         1 RES1   0.0000
    73 C31      2.2961  -0.8753   6.5546   C.ar      1 RES1   0.0000
    74 H24      2.2696  -1.4075   5.7936   H         1 RES1   0.0000
    75 C32      3.4543  -0.2862   6.9325   C.ar      1 RES1   0.0000
    76 H25      4.2222  -0.4569   6.4381   H         1 RES1   0.0000
    77 C33     -4.8588   3.7589  12.6926   C.ar      1 RES1   0.0000
    78 H26     -5.7808   3.6418  12.7455   H         1 RES1   0.0000
    79 C34      1.2011   0.1439   8.3469   C.ar      1 RES1   0.0000
    80 H27      0.4054   0.2778   8.8078   H         1 RES1   0.0000
    81 Cl1      4.7912   7.4197  11.2607   Cl        1 RES1   0.0000
    82 C35      5.6001   8.8215   4.3774   C.3       2 RES2   0.0000
    83 H28      4.6933   8.7546   4.7147   H         2 RES2   0.0000
    84 H29      5.8906   9.7404   4.4957   H         2 RES2   0.0000
    85 Cl2      6.6401   7.7675   5.3311   Cl        2 RES2   0.0000
    86 Cl3      5.5951   8.4718   2.7591   Cl        2 RES2   0.0000
@<TRIPOS>BOND
     1     1    10    1
     2     2    14    1
     3     3    11    1
     4     4    15    1
     5     5    13    1
     6     6    12    1
     7     7    38    1
     8     8    67    1
     9     9    10    1
    10    10    21    2
    11    11     1    1
    12    12     1    1
    13    13     1    1
    14    14     1    1
    15    15     1    1
    16    16     2    1
    17    17     3    1
    18    18    17    1
    19    19    16    1
    20    20    21    1
    21    21    22    1
    22    22    11    2
    23    23    24    1
    24    24    13    2
    25    25    20   ar
    26    26    25    1
    27    27    28    1
    28    29    15    2
    29    30    27   ar
    30    31    22    1
    31    32    12    2
    32    33    14    2
    33    34    20   ar
    34    35    34    1
    35    36    30   ar
    36    37    36    1
    37    38    32    1
    38    39    38    1
    39    40    34   ar
    40    41    40    1
    41    42    27   ar
    42    43    42    1
    43    44    40   ar
    44    45    44    1
    45    46    25   ar
    46    47    46    1
    47    48    42   ar
    48    49    48    1
    49    50    31   ar
    50    51    50    1
    51    52    36   ar
    52    53    52    1
    53    54    23   ar
    54    55    54    1
    55    56    23   ar
    56    57    56    1
    57    58    56   ar
    58    59    58    1
    59    60    54   ar
    60    61    60    1
    61    62     7    1
    62    63    62    1
    63    64    62    1
    64    65    66    1
    65    67    38    1
    66    68    67    1
    67    69    67    1
    68    70     8    1
    69    71    70    1
    70    72    70    1
    71    73    65   ar
    72    74    73    1
    73    75    50   ar
    74    76    75    1
    75    77    58   ar
    76    78    77    1
    77    79    31   ar
    78    80    79    1
    79    81    33    1
    80     4    16    1
    81     5    17    1
    82     6    17    1
    83     9    16    1
    84    24    29    1
    85    29    30    1
    86    32    33    1
    87    44    46   ar
    88    48    52   ar
    89    60    77   ar
    90    62    70    1
    91    65    79   ar
    92    73    75   ar
    93    82    83    1
    94    84    82    1
    95    85    82    1
    96    86    82    1
@<TRIPOS>SUBSTRUCTURE
     1 RES1        1 GROUP             0 ****  ****    0  
     2 RES2       82 GROUP             0 ****  ****    0  
@<TRIPOS>CRYSIN
   12.6300   16.7360   17.6580   90.0000   90.0000   90.0000    19     1
