@<TRIPOS>MOLECULE
OROBEF
   105   114     5     0     0
SMALL
USER_CHARGES
****
Generated from the CSD

@<TRIPOS>ATOM
     1 Fe1      5.8526   4.1669   9.6774   Fe        1 RES1   0.0000
     2 O1       7.6782   4.3839   9.2212   O.3       1 RES1  -1.0000
     3 O2       5.0104   5.1812   2.4819   O.3       1 RES1   0.0000
     4 H1       4.3615   4.7789   2.7832   H         1 RES1   0.0000
     5 O3       5.7453   6.0160  10.0930   O.3       1 RES1   0.0000
     6 O4       6.5696   3.6206  16.8836   O.3       1 RES1   0.0000
     7 H2       6.2749   2.9309  16.5541   H         1 RES1   0.0000
     8 N1       3.9381   3.9638   9.6020   N.2       1 RES1   0.0000
     9 N2       2.9034   3.6193  10.3673   N.2       1 RES1   0.0000
    10 N3       1.8595   3.5257   9.5507   N.2       1 RES1   0.0000
    11 N4       2.1935   3.7923   8.2687   N.2       1 RES1   0.0000
    12 N5       4.3652   4.3188   7.2867   N.2       1 RES1   0.0000
    13 N6       5.5567   4.3976   7.8072   N.2       1 RES1   0.0000
    14 N7       6.0015   2.2639   9.7840   N.2       1 RES1   0.0000
    15 N8       5.8186   1.1729   9.0418   N.2       1 RES1   0.0000
    16 N9       6.0535   0.1365   9.8340   N.2       1 RES1   0.0000
    17 N10      6.3744   0.5200  11.1070   N.2       1 RES1   0.0000
    18 N11      6.4652   2.7895  12.0493   N.2       1 RES1   0.0000
    19 N12      6.2110   3.9513  11.5339   N.2       1 RES1   0.0000
    20 C1       3.4981   4.0468   8.3290   C.2       1 RES1   0.0000
    21 C2       6.6977   4.6918   7.0932   C.ar      1 RES1   0.0000
    22 C3       7.8095   4.6898   7.9610   C.ar      1 RES1   0.0000
    23 C4       9.0868   5.0614   7.4419   C.ar      1 RES1   0.0000
    24 H3       9.8359   5.0526   7.9931   H         1 RES1   0.0000
    25 C5       9.1992   5.4223   6.1458   C.ar      1 RES1   0.0000
    26 H4      10.0304   5.6933   5.8291   H         1 RES1   0.0000
    27 C6       8.1020   5.4060   5.2497   C.ar      1 RES1   0.0000
    28 C7       8.2566   5.7695   3.8934   C.ar      1 RES1   0.0000
    29 H5       9.0871   6.0677   3.6023   H         1 RES1   0.0000
    30 C8       7.2313   5.7007   2.9934   C.ar      1 RES1   0.0000
    31 H6       7.3606   5.9498   2.1076   H         1 RES1   0.0000
    32 C9       5.9812   5.2466   3.4293   C.ar      1 RES1   0.0000
    33 C10      5.7692   4.8766   4.7484   C.ar      1 RES1   0.0000
    34 H7       4.9368   4.5577   5.0138   H         1 RES1   0.0000
    35 C11      6.8126   4.9843   5.6881   C.ar      1 RES1   0.0000
    36 C12      6.3014   1.8515  11.0339   C.2       1 RES1   0.0000
    37 C13      6.2492   5.1343  12.2300   C.ar      1 RES1   0.0000
    38 C14      6.0536   6.2257  11.3416   C.ar      1 RES1   0.0000
    39 C15      6.2165   7.5603  11.8249   C.ar      1 RES1   0.0000
    40 H8       6.1127   8.2864  11.2532   H         1 RES1   0.0000
    41 C16      6.5299   7.7524  13.1441   C.ar      1 RES1   0.0000
    42 H9       6.6663   8.6215  13.4453   H         1 RES1   0.0000
    43 C17      6.6539   6.6788  14.0761   C.ar      1 RES1   0.0000
    44 C18      6.9119   6.9109  15.4324   C.ar      1 RES1   0.0000
    45 H10      7.0831   7.7786  15.7195   H         1 RES1   0.0000
    46 C19      6.9164   5.8851  16.3528   C.ar      1 RES1   0.0000
    47 H11      7.0904   6.0629  17.2489   H         1 RES1   0.0000
    48 C20      6.6541   4.5723  15.9298   C.ar      1 RES1   0.0000
    49 C21      6.4773   4.2985  14.5799   C.ar      1 RES1   0.0000
    50 H12      6.3585   3.4203  14.3017   H         1 RES1   0.0000
    51 C22      6.4768   5.3163  13.6428   C.ar      1 RES1   0.0000
    52 P1       5.9605   2.5432  -3.4118   P.3       2 RES2   1.0000
    53 C23      6.8388   1.1635  -4.1818   C.ar      2 RES2   0.0000
    54 C24      7.0132  -0.0186  -3.4729   C.ar      2 RES2   0.0000
    55 H13      6.7160  -0.0898  -2.5947   H         2 RES2   0.0000
    56 C25      7.6400  -1.0949  -4.0933   C.ar      2 RES2   0.0000
    57 H14      7.7752  -1.8865  -3.6254   H         2 RES2   0.0000
    58 C26      8.0655  -0.9869  -5.4189   C.ar      2 RES2   0.0000
    59 H15      8.4558  -1.7175  -5.8407   H         2 RES2   0.0000
    60 C27      7.9093   0.2054  -6.1073   C.ar      2 RES2   0.0000
    61 H16      8.2172   0.2839  -6.9816   H         2 RES2   0.0000
    62 C28      7.2900   1.2896  -5.4843   C.ar      2 RES2   0.0000
    63 H17      7.1801   2.0914  -5.9407   H         2 RES2   0.0000
    64 C29      4.2032   2.4399  -3.8126   C.ar      2 RES2   0.0000
    65 C30      3.6778   1.3097  -4.3908   C.ar      2 RES2   0.0000
    66 H18      4.2292   0.5875  -4.5882   H         2 RES2   0.0000
    67 C31      2.3201   1.2508  -4.6779   C.ar      2 RES2   0.0000
    68 H19      1.9610   0.4857  -5.0664   H         2 RES2   0.0000
    69 C32      1.5018   2.3265  -4.3908   C.ar      2 RES2   0.0000
    70 H20      0.5950   2.2881  -4.5946   H         2 RES2   0.0000
    71 C33      2.0291   3.4609  -3.7959   C.ar      2 RES2   0.0000
    72 H21      1.4707   4.1718  -3.5793   H         2 RES2   0.0000
    73 C34      3.3845   3.5402  -3.5254   C.ar      2 RES2   0.0000
    74 H22      3.7461   4.3127  -3.1562   H         2 RES2   0.0000
    75 C35      6.2046   2.4636  -1.6461   C.ar      2 RES2   0.0000
    76 C36      5.1386   2.5956  -0.7602   C.ar      2 RES2   0.0000
    77 H23      4.2687   2.6589  -1.0833   H         2 RES2   0.0000
    78 C37      5.3733   2.6327   0.5987   C.ar      2 RES2   0.0000
    79 H24      4.6626   2.7147   1.1922   H         2 RES2   0.0000
    80 C38      6.6689   2.5477   1.0756   C.ar      2 RES2   0.0000
    81 H25      6.8234   2.6031   1.9909   H         2 RES2   0.0000
    82 C39      7.7336   2.3810   0.2179   C.ar      2 RES2   0.0000
    83 H26      8.5973   2.2990   0.5538   H         2 RES2   0.0000
    84 C40      7.5136   2.3368  -1.1397   C.ar      2 RES2   0.0000
    85 H27      8.2287   2.2250  -1.7243   H         2 RES2   0.0000
    86 C41      6.5962   4.0910  -4.0895   C.ar      2 RES2   0.0000
    87 C42      7.5830   4.7951  -3.4575   C.ar      2 RES2   0.0000
    88 H28      7.8901   4.5265  -2.6229   H         2 RES2   0.0000
    89 C43      8.1290   5.9306  -4.0831   C.ar      2 RES2   0.0000
    90 H29      8.8005   6.4201  -3.6652   H         2 RES2   0.0000
    91 C44      7.6588   6.3094  -5.3189   C.ar      2 RES2   0.0000
    92 H30      8.0185   7.0606  -5.7317   H         2 RES2   0.0000
    93 C45      6.6565   5.5942  -5.9663   C.ar      2 RES2   0.0000
    94 H31      6.3559   5.8560  -6.8060   H         2 RES2   0.0000
    95 C46      6.1145   4.4838  -5.3420   C.ar      2 RES2   0.0000
    96 H32      5.4322   4.0025  -5.7522   H         2 RES2   0.0000
    97 O5       3.1867   2.8396  13.3479   O.3       3 RES3   0.0000
    98 H33      3.8014   2.2860  13.5466   H         3 RES3   0.0000
    99 H34      3.2031   2.9761  12.5082   H         3 RES3   0.0000
   100 O6       9.1012   6.0376  -1.0089   O.3       4 RES4   0.0000
   101 H35      8.6497   6.6058  -0.5679   H         4 RES4   0.0000
   102 H36      9.7114   5.7134  -0.5115   H         4 RES4   0.0000
   103 O7       6.3451   5.9295  -0.3807   O.3       5 RES5   0.0000
   104 H37      5.6045   5.9324   0.0359   H         5 RES5   0.0000
   105 H38      6.4676   6.7418  -0.6000   H         5 RES5   0.0000
@<TRIPOS>BOND
     1     1     2    1
     2     2    22    1
     3     3     4    1
     4     5     1    1
     5     6     7    1
     6     8     1    1
     7     9     8    1
     8    10     9    2
     9    11    10    1
    10    12    13    2
    11    13     1    1
    12    14     1    1
    13    15    14    1
    14    16    15    2
    15    17    16    1
    16    18    19    2
    17    19     1    1
    18    20     8    1
    19    21    13    1
    20    22    21   ar
    21    23    22   ar
    22    24    23    1
    23    25    23   ar
    24    26    25    1
    25    27    25   ar
    26    28    27   ar
    27    29    28    1
    28    30    28   ar
    29    31    30    1
    30    32     3    1
    31    33    32   ar
    32    34    33    1
    33    35    21   ar
    34    36    14    1
    35    37    19    1
    36    38     5    1
    37    39    38   ar
    38    40    39    1
    39    41    39   ar
    40    42    41    1
    41    43    41   ar
    42    44    43   ar
    43    45    44    1
    44    46    44   ar
    45    47    46    1
    46    48     6    1
    47    49    48   ar
    48    50    49    1
    49    51    37   ar
    50    11    20    2
    51    12    20    1
    52    17    36    2
    53    18    36    1
    54    27    35   ar
    55    30    32   ar
    56    33    35   ar
    57    37    38   ar
    58    43    51   ar
    59    46    48   ar
    60    49    51   ar
    61    52    53    1
    62    53    54   ar
    63    54    55    1
    64    56    54   ar
    65    57    56    1
    66    58    56   ar
    67    59    58    1
    68    60    58   ar
    69    61    60    1
    70    62    53   ar
    71    63    62    1
    72    64    52    1
    73    65    64   ar
    74    66    65    1
    75    67    65   ar
    76    68    67    1
    77    69    67   ar
    78    70    69    1
    79    71    69   ar
    80    72    71    1
    81    73    64   ar
    82    74    73    1
    83    75    52    1
    84    76    75   ar
    85    77    76    1
    86    78    76   ar
    87    79    78    1
    88    80    78   ar
    89    81    80    1
    90    82    80   ar
    91    83    82    1
    92    84    75   ar
    93    85    84    1
    94    86    52    1
    95    87    86   ar
    96    88    87    1
    97    89    87   ar
    98    90    89    1
    99    91    89   ar
   100    92    91    1
   101    93    91   ar
   102    94    93    1
   103    95    86   ar
   104    96    95    1
   105    60    62   ar
   106    71    73   ar
   107    82    84   ar
   108    93    95   ar
   109    97    98    1
   110    99    97    1
   111   100   101    1
   112   102   100    1
   113   103   104    1
   114   105   103    1
@<TRIPOS>SUBSTRUCTURE
     1 RES1        1 GROUP             0 ****  ****    0  
     2 RES2       52 GROUP             0 ****  ****    0  
     3 RES3       97 GROUP             0 ****  ****    0  
     4 RES4      100 GROUP             0 ****  ****    0  
     5 RES5      103 GROUP             0 ****  ****    0  
@<TRIPOS>CRYSIN
   12.8708   13.1238   15.2393  107.8700  112.6120  100.0950     2     1
