@<TRIPOS>MOLECULE
OSELOO
    82    91     2     0     0
SMALL
NO_CHARGES
****
Generated from the CSD

@<TRIPOS>ATOM
     1 Fe1     11.9315   9.0606   1.5067   Fe        1 RES1   0.0000
     2 Se1     13.9601   9.3682   3.0213   Se        1 RES1   0.0000
     3 Se2     11.2801  11.5417   1.8870   Se        1 RES1   0.0000
     4 N1      12.1705   6.8274   1.2322   N.ar      1 RES1   0.0000
     5 N2      10.6213   8.1484   2.9901   N.ar      1 RES1   0.0000
     6 N3      10.2940   8.8480  -0.0113   N.ar      1 RES1   0.0000
     7 N4      12.9008   9.3253  -0.4260   N.ar      1 RES1   0.0000
     8 C1      12.9836   6.1675   0.4209   C.ar      1 RES1   0.0000
     9 H1      13.5633   6.6683  -0.1408   H         1 RES1   0.0000
    10 C2      13.0319   4.7737   0.3495   C.ar      1 RES1   0.0000
    11 H2      13.6489   4.3461  -0.2333   H         1 RES1   0.0000
    12 C3      12.1901   4.0351   1.1182   C.ar      1 RES1   0.0000
    13 H3      12.2015   3.0872   1.0659   H         1 RES1   0.0000
    14 C4      11.3026   4.6857   1.9932   C.ar      1 RES1   0.0000
    15 C5      10.3954   3.9779   2.8496   C.ar      1 RES1   0.0000
    16 H4      10.3230   3.0323   2.7854   H         1 RES1   0.0000
    17 C6       9.6479   4.6479   3.7451   C.ar      1 RES1   0.0000
    18 H5       9.0559   4.1665   4.3118   H         1 RES1   0.0000
    19 C7       9.7243   6.0726   3.8616   C.ar      1 RES1   0.0000
    20 C8       9.0341   6.7929   4.8508   C.ar      1 RES1   0.0000
    21 H6       8.4812   6.3413   5.4783   H         1 RES1   0.0000
    22 C9       9.1676   8.1479   4.9005   C.ar      1 RES1   0.0000
    23 H7       8.7288   8.6464   5.5809   H         1 RES1   0.0000
    24 C10      9.9525   8.7996   3.9444   C.ar      1 RES1   0.0000
    25 H8      10.0122   9.7475   3.9760   H         1 RES1   0.0000
    26 C11     10.5356   6.7884   2.9706   C.ar      1 RES1   0.0000
    27 C12     11.3532   6.0863   2.0310   C.ar      1 RES1   0.0000
    28 C13      8.9972   8.6967   0.2045   C.ar      1 RES1   0.0000
    29 H9       8.6959   8.6098   1.1021   H         1 RES1   0.0000
    30 C14      8.0533   8.6578  -0.8183   C.ar      1 RES1   0.0000
    31 H10      7.1325   8.5401  -0.6194   H         1 RES1   0.0000
    32 C15      8.4663   8.7916  -2.1046   C.ar      1 RES1   0.0000
    33 H11      7.8319   8.7687  -2.8115   H         1 RES1   0.0000
    34 C16      9.8167   8.9620  -2.3900   C.ar      1 RES1   0.0000
    35 C17     10.3513   9.1015  -3.7139   C.ar      1 RES1   0.0000
    36 H12      9.7644   9.0592  -4.4587   H         1 RES1   0.0000
    37 C18     11.6602   9.2913  -3.9201   C.ar      1 RES1   0.0000
    38 H13     11.9855   9.3496  -4.8106   H         1 RES1   0.0000
    39 C19     12.5790   9.4056  -2.8292   C.ar      1 RES1   0.0000
    40 C20     13.9259   9.7383  -2.9887   C.ar      1 RES1   0.0000
    41 H14     14.2897   9.8675  -3.8573   H         1 RES1   0.0000
    42 C21     14.7146   9.8744  -1.8852   C.ar      1 RES1   0.0000
    43 H15     15.6272  10.1202  -1.9769   H         1 RES1   0.0000
    44 C22     14.1703   9.6492  -0.6172   C.ar      1 RES1   0.0000
    45 H16     14.7374   9.7315   0.1408   H         1 RES1   0.0000
    46 C23     12.0999   9.2330  -1.5194   C.ar      1 RES1   0.0000
    47 C24     10.7031   8.9894  -1.2952   C.ar      1 RES1   0.0000
    48 C25     14.2691   7.6059   3.7057   C.ar      1 RES1   0.0000
    49 C26     15.3028   6.8295   3.2268   C.ar      1 RES1   0.0000
    50 H17     15.8694   7.1714   2.5441   H         1 RES1   0.0000
    51 C27     15.5294   5.5535   3.7286   C.ar      1 RES1   0.0000
    52 H18     16.2387   5.0264   3.3787   H         1 RES1   0.0000
    53 C28     14.7421   5.0527   4.7201   C.ar      1 RES1   0.0000
    54 H19     14.8923   4.1757   5.0519   H         1 RES1   0.0000
    55 C29     13.7261   5.8268   5.2370   C.ar      1 RES1   0.0000
    56 H20     13.1943   5.4918   5.9509   H         1 RES1   0.0000
    57 C30     13.4765   7.0879   4.7265   C.ar      1 RES1   0.0000
    58 H21     12.7584   7.6048   5.0741   H         1 RES1   0.0000
    59 C31     10.8567  12.0652   0.0905   C.ar      1 RES1   0.0000
    60 C32     11.8652  12.4265  -0.8012   C.ar      1 RES1   0.0000
    61 H22     12.7646  12.4379  -0.4988   H         1 RES1   0.0000
    62 C33     11.5966  12.7672  -2.1071   C.ar      1 RES1   0.0000
    63 H23     12.3056  13.0153  -2.6889   H         1 RES1   0.0000
    64 C34     10.3122  12.7466  -2.5622   C.ar      1 RES1   0.0000
    65 H24     10.1233  12.9730  -3.4652   H         1 RES1   0.0000
    66 C35      9.2920  12.3990  -1.7115   C.ar      1 RES1   0.0000
    67 H25      8.4003  12.3784  -2.0373   H         1 RES1   0.0000
    68 C36      9.5465  12.0743  -0.3761   C.ar      1 RES1   0.0000
    69 H26      8.8298  11.8605   0.2092   H         1 RES1   0.0000
    70 O1       5.9583   6.8250   3.7799   O.3       2 RES2   0.0000
    71 C37      5.0525   5.7593   3.6421   C.3       2 RES2   0.0000
    72 H27      4.4331   5.7250   4.4144   H         2 RES2   0.0000
    73 H28      5.5352   4.8960   3.5818   H         2 RES2   0.0000
    74 C38      4.2874   6.0452   2.3430   C.3       2 RES2   0.0000
    75 H29      3.8889   5.2185   1.9749   H         2 RES2   0.0000
    76 H30      3.5709   6.7129   2.4918   H         2 RES2   0.0000
    77 C39      5.3377   6.5791   1.4480   C.3       2 RES2   0.0000
    78 H31      5.0226   7.3806   0.9593   H         2 RES2   0.0000
    79 H32      5.6377   5.8965   0.7964   H         2 RES2   0.0000
    80 C40      6.4398   6.9267   2.4314   C.3       2 RES2   0.0000
    81 H33      7.2037   6.3093   2.3047   H         2 RES2   0.0000
    82 H34      6.7571   7.8483   2.2605   H         2 RES2   0.0000
@<TRIPOS>BOND
     1     1     2    1
     2     2    48    1
     3     3     1    1
     4     4     1    1
     5     5     1    1
     6     6     1    1
     7     7     1    1
     8     8     4   ar
     9     9     8    1
    10    10     8   ar
    11    11    10    1
    12    12    10   ar
    13    13    12    1
    14    14    12   ar
    15    15    14   ar
    16    16    15    1
    17    17    15   ar
    18    18    17    1
    19    19    17   ar
    20    20    19   ar
    21    21    20    1
    22    22    20   ar
    23    23    22    1
    24    24     5   ar
    25    25    24    1
    26    26     5   ar
    27    27     4   ar
    28    28     6   ar
    29    29    28    1
    30    30    28   ar
    31    31    30    1
    32    32    30   ar
    33    33    32    1
    34    34    32   ar
    35    35    34   ar
    36    36    35    1
    37    37    35   ar
    38    38    37    1
    39    39    37   ar
    40    40    39   ar
    41    41    40    1
    42    42    40   ar
    43    43    42    1
    44    44     7   ar
    45    45    44    1
    46    46     7   ar
    47    47     6   ar
    48    48    49   ar
    49    49    50    1
    50    51    49   ar
    51    52    51    1
    52    53    51   ar
    53    54    53    1
    54    55    53   ar
    55    56    55    1
    56    57    48   ar
    57    58    57    1
    58    59     3    1
    59    60    59   ar
    60    61    60    1
    61    62    60   ar
    62    63    62    1
    63    64    62   ar
    64    65    64    1
    65    66    64   ar
    66    67    66    1
    67    68    59   ar
    68    69    68    1
    69    14    27   ar
    70    19    26   ar
    71    22    24   ar
    72    26    27   ar
    73    34    47   ar
    74    39    46   ar
    75    42    44   ar
    76    46    47   ar
    77    55    57   ar
    78    66    68   ar
    79    70    71    1
    80    71    72    1
    81    73    71    1
    82    74    71    1
    83    75    74    1
    84    76    74    1
    85    77    74    1
    86    78    77    1
    87    79    77    1
    88    80    70    1
    89    81    80    1
    90    82    80    1
    91    77    80    1
@<TRIPOS>SUBSTRUCTURE
     1 RES1        1 GROUP             0 ****  ****    0  
     2 RES2       70 GROUP             0 ****  ****    0  
@<TRIPOS>CRYSIN
   14.8490   11.4340   20.1680   90.0000   94.3000   90.0000   231     1
