@<TRIPOS>MOLECULE
OSITAO
    83    88     1     0     0
SMALL
USER_CHARGES
****
Generated from the CSD

@<TRIPOS>ATOM
     1 C1       2.5045   1.3675  -0.1143   C.ar      1 RES1   0.0000
     2 C2       3.5554   2.1664  -0.4467   C.ar      1 RES1   0.0000
     3 H1       3.5007   2.7279  -1.1852   H         1 RES1   0.0000
     4 C3       4.7304   2.1369   0.3379   C.ar      1 RES1   0.0000
     5 H2       5.4486   2.6804   0.1063   H         1 RES1   0.0000
     6 C4       4.8275   1.3254   1.4278   C.ar      1 RES1   0.0000
     7 H3       5.6137   1.3136   1.9256   H         1 RES1   0.0000
     8 C5       3.7507   0.5037   1.8076   C.ar      1 RES1   0.0000
     9 C6       3.7394  -0.3286   2.9425   C.ar      1 RES1   0.0000
    10 H4       4.4945  -0.3943   3.4806   H         1 RES1   0.0000
    11 C7       2.6204  -1.0367   3.2479   C.ar      1 RES1   0.0000
    12 H5       2.5973  -1.5652   4.0122   H         1 RES1   0.0000
    13 C8       1.4958  -0.9668   2.3999   C.ar      1 RES1   0.0000
    14 H6       0.7414  -1.4642   2.6202   H         1 RES1   0.0000
    15 C9       2.5763   0.5313   1.0060   C.ar      1 RES1   0.0000
    16 C10      3.0115  -5.2066  -4.3034   C.1       1 RES1   0.0000
    17 C11      1.2302  -4.8955  -5.8811   C.1       1 RES1   0.0000
    18 C12      1.0397  -2.3534  -1.6721   C.1       1 RES1   0.0000
    19 C13      2.2614  -4.4183  -1.6413   C.1       1 RES1   0.0000
    20 C14      1.1046  -3.7279  -3.7220   C.2       1 RES1   0.0000
    21 C15      1.7380  -4.6182  -4.5828   C.2       1 RES1   0.0000
    22 C16      1.4637  -3.5031  -2.3771   C.2       1 RES1  -1.0000
    23 C17     -1.5892  -2.9307  -3.3138   C.3       1 RES1   0.0000
    24 H7      -1.2536  -3.1359  -2.4269   H         1 RES1   0.0000
    25 H8      -2.0578  -2.0829  -3.2628   H         1 RES1   0.0000
    26 C18     -2.5740  -4.0131  -3.7302   C.3       1 RES1   0.0000
    27 H9      -3.3254  -4.0028  -3.1164   H         1 RES1   0.0000
    28 H10     -2.9133  -3.8021  -4.6136   H         1 RES1   0.0000
    29 C19     -1.9906  -5.3981  -3.7542   C.3       1 RES1   0.0000
    30 H11     -2.6659  -6.0244  -4.0246   H         1 RES1   0.0000
    31 H12     -1.2605  -5.4260  -4.3773   H         1 RES1   0.0000
    32 H13     -1.6731  -5.6269  -2.8783   H         1 RES1   0.0000
    33 N1       1.2670   1.3046  -0.8653   N.pl3     1 RES1   0.0000
    34 H14      1.4363   1.0483  -1.7006   H         1 RES1   0.0000
    35 H15      0.8927   2.1116  -0.8932   H         1 RES1   0.0000
    36 N2       1.4652  -0.2230   1.3044   N.ar      1 RES1   0.0000
    37 N3       4.0371  -5.6839  -4.1162   N.1       1 RES1   0.0000
    38 N4       0.8631  -5.1522  -6.9401   N.1       1 RES1   0.0000
    39 N5       0.7086  -1.4340  -1.0648   N.1       1 RES1   0.0000
    40 N6       2.8888  -5.1585  -1.0238   N.1       1 RES1   0.0000
    41 S1      -0.1796  -2.7566  -4.4504   S.3       1 RES1   0.0000
    42 Fe1      0.0000   0.0000   0.0000   Fe        1 RES1   2.0000
    43 C1A     -2.5045  -1.3675   0.1143   C.ar      1 RES1   0.0000
    44 C2A     -3.5554  -2.1664   0.4467   C.ar      1 RES1   0.0000
    45 H1A     -3.5007  -2.7279   1.1852   H         1 RES1   0.0000
    46 C3A     -4.7304  -2.1369  -0.3379   C.ar      1 RES1   0.0000
    47 H2A     -5.4486  -2.6804  -0.1063   H         1 RES1   0.0000
    48 C4A     -4.8275  -1.3254  -1.4278   C.ar      1 RES1   0.0000
    49 H3A     -5.6137  -1.3136  -1.9256   H         1 RES1   0.0000
    50 C5A     -3.7507  -0.5037  -1.8076   C.ar      1 RES1   0.0000
    51 C6A     -3.7394   0.3286  -2.9425   C.ar      1 RES1   0.0000
    52 H4A     -4.4945   0.3943  -3.4806   H         1 RES1   0.0000
    53 C7A     -2.6204   1.0367  -3.2479   C.ar      1 RES1   0.0000
    54 H5A     -2.5973   1.5652  -4.0122   H         1 RES1   0.0000
    55 C8A     -1.4958   0.9668  -2.3999   C.ar      1 RES1   0.0000
    56 H6A     -0.7414   1.4642  -2.6202   H         1 RES1   0.0000
    57 C9A     -2.5763  -0.5313  -1.0060   C.ar      1 RES1   0.0000
    58 C10A    -3.0115   5.2066   4.3034   C.1       1 RES1   0.0000
    59 C11A    -1.2302   4.8955   5.8811   C.1       1 RES1   0.0000
    60 C12A    -1.0397   2.3534   1.6721   C.1       1 RES1   0.0000
    61 C13A    -2.2614   4.4183   1.6413   C.1       1 RES1   0.0000
    62 C14A    -1.1046   3.7279   3.7220   C.2       1 RES1   0.0000
    63 C15A    -1.7380   4.6182   4.5828   C.2       1 RES1   0.0000
    64 C16A    -1.4637   3.5031   2.3771   C.2       1 RES1  -1.0000
    65 C17A     1.5892   2.9307   3.3138   C.3       1 RES1   0.0000
    66 H7A      1.2536   3.1359   2.4269   H         1 RES1   0.0000
    67 H8A      2.0578   2.0829   3.2628   H         1 RES1   0.0000
    68 C18A     2.5740   4.0131   3.7302   C.3       1 RES1   0.0000
    69 H9A      3.3254   4.0028   3.1164   H         1 RES1   0.0000
    70 H10A     2.9133   3.8021   4.6136   H         1 RES1   0.0000
    71 C19A     1.9906   5.3981   3.7542   C.3       1 RES1   0.0000
    72 H11A     2.6659   6.0244   4.0246   H         1 RES1   0.0000
    73 H12A     1.2605   5.4260   4.3773   H         1 RES1   0.0000
    74 H13A     1.6731   5.6269   2.8783   H         1 RES1   0.0000
    75 N1A     -1.2670  -1.3046   0.8653   N.pl3     1 RES1   0.0000
    76 H14A    -1.4363  -1.0483   1.7006   H         1 RES1   0.0000
    77 H15A    -0.8927  -2.1116   0.8932   H         1 RES1   0.0000
    78 N2A     -1.4652   0.2230  -1.3044   N.ar      1 RES1   0.0000
    79 N3A     -4.0371   5.6839   4.1162   N.1       1 RES1   0.0000
    80 N4A     -0.8631   5.1522   6.9401   N.1       1 RES1   0.0000
    81 N5A     -0.7086   1.4340   1.0648   N.1       1 RES1   0.0000
    82 N6A     -2.8888   5.1585   1.0238   N.1       1 RES1   0.0000
    83 S1A      0.1796   2.7566   4.4504   S.3       1 RES1   0.0000
@<TRIPOS>BOND
     1     1     2   ar
     2     2     3    1
     3     4     2   ar
     4     5     4    1
     5     6     4   ar
     6     7     6    1
     7     8     6   ar
     8     9     8   ar
     9    10     9    1
    10    11     9   ar
    11    12    11    1
    12    13    11   ar
    13    14    13    1
    14    15     1   ar
    15    16    21    1
    16    17    21    1
    17    18    22    1
    18    19    22    1
    19    20    21    2
    20    22    20    1
    21    23    24    1
    22    25    23    1
    23    26    23    1
    24    27    26    1
    25    28    26    1
    26    29    26    1
    27    30    29    1
    28    31    29    1
    29    32    29    1
    30    33     1    1
    31    34    33    1
    32    35    33    1
    33    36    13   ar
    34    37    16    3
    35    38    17    3
    36    39    18    3
    37    40    19    3
    38    41    20    1
    39    42    33    1
    40    43    44   ar
    41    44    45    1
    42    46    44   ar
    43    47    46    1
    44    48    46   ar
    45    49    48    1
    46    50    48   ar
    47    51    50   ar
    48    52    51    1
    49    53    51   ar
    50    54    53    1
    51    55    53   ar
    52    56    55    1
    53    57    43   ar
    54    58    63    1
    55    59    63    1
    56    60    64    1
    57    61    64    1
    58    62    63    2
    59    64    62    1
    60    65    66    1
    61    67    65    1
    62    68    65    1
    63    69    68    1
    64    70    68    1
    65    71    68    1
    66    72    71    1
    67    73    71    1
    68    74    71    1
    69    75    42    1
    70    76    75    1
    71    77    75    1
    72    78    42    1
    73    79    58    3
    74    80    59    3
    75    81    42    1
    76    82    61    3
    77    83    62    1
    78     8    15   ar
    79    15    36   ar
    80    23    41    1
    81    36    42    1
    82    39    42    1
    83    43    75    1
    84    50    57   ar
    85    55    78   ar
    86    57    78   ar
    87    60    81    3
    88    65    83    1
@<TRIPOS>SUBSTRUCTURE
     1 RES1        1 GROUP             0 ****  ****    0  
@<TRIPOS>CRYSIN
    9.5674    9.6327   11.3553  111.2440   91.1290  108.4770     2     1
