@<TRIPOS>MOLECULE
OSOGAF
   288   318     4     0     0
SMALL
USER_CHARGES
****
Generated from the CSD

@<TRIPOS>ATOM
     1 Fe1     -0.0723  11.1212   7.2990   Fe        1 RES1   2.0000
     2 C94      2.6665  11.6438   7.6948   C.ar      1 RES1   0.0000
     3 C95      2.4536  11.7533   6.2568   C.ar      1 RES1   0.0000
     4 C96      3.9029  11.7466   8.3230   C.ar      1 RES1   0.0000
     5 H99      4.6823  11.9294   7.8118   H         1 RES1   0.0000
     6 C97     -2.5609  10.5678   5.7302   C.ar      1 RES1   0.0000
     7 H100    -2.9744  10.3607   6.5587   H         1 RES1   0.0000
     8 C98      3.3911  12.0051   5.2586   C.ar      1 RES1   0.0000
     9 H101     4.3044  12.1502   5.4789   H         1 RES1   0.0000
    10 C99      3.9925  11.5812   9.6851   C.ar      1 RES1   0.0000
    11 H102     4.8315  11.6499  10.1247   H         1 RES1   0.0000
    12 C100    -1.7385  12.9747   8.6310   C.ar      1 RES1   0.0000
    13 C101     1.6319  11.2194   9.7357   C.ar      1 RES1   0.0000
    14 H103     0.8439  11.0346  10.2313   H         1 RES1   0.0000
    15 C102     0.7424  11.5440   4.6544   C.ar      1 RES1   0.0000
    16 C103    -0.4883   8.5511   8.3603   C.ar      1 RES1   0.0000
    17 C104    -0.3348  14.0971   7.1612   C.ar      1 RES1   0.0000
    18 H104     0.3477  14.0795   6.5020   H         1 RES1   0.0000
    19 C105    -0.6812  11.1973   4.5358   C.ar      1 RES1   0.0000
    20 C106    -1.4557   9.4155   9.0262   C.ar      1 RES1   0.0000
    21 C107     2.8373  11.3125  10.4059   C.ar      1 RES1   0.0000
    22 H105     2.8730  11.1946  11.3477   H         1 RES1   0.0000
    23 C108    -3.3124  10.4793   4.5804   C.ar      1 RES1   0.0000
    24 H106    -4.2257  10.2210   4.6191   H         1 RES1   0.0000
    25 C109    -2.1003  11.6661   9.1352   C.ar      1 RES1   0.0000
    26 C110     1.1451   8.4822   6.6930   C.ar      1 RES1   0.0000
    27 H107     1.6566   8.9318   6.0288   H         1 RES1   0.0000
    28 C111    -2.7179  10.7709   3.3727   C.ar      1 RES1   0.0000
    29 H108    -3.2215  10.7236   2.5695   H         1 RES1   0.0000
    30 C112    -1.3824  11.1322   3.3397   C.ar      1 RES1   0.0000
    31 H109    -0.9534  11.3321   2.5162   H         1 RES1   0.0000
    32 C113     2.9707  12.0391   3.9495   C.ar      1 RES1   0.0000
    33 H110     3.6014  12.2133   3.2594   H         1 RES1   0.0000
    34 C114    -0.8548  15.3227   7.5395   C.ar      1 RES1   0.0000
    35 H111    -0.5358  16.1237   7.1419   H         1 RES1   0.0000
    36 C115    -2.2899  14.1902   9.0479   C.ar      1 RES1   0.0000
    37 H112    -2.9730  14.2034   9.7081   H         1 RES1   0.0000
    38 C116     1.6397  11.8212   3.6199   C.ar      1 RES1   0.0000
    39 H113     1.3475  11.8595   2.7161   H         1 RES1   0.0000
    40 C117     1.3554   7.1285   6.8990   C.ar      1 RES1   0.0000
    41 H114     1.9825   6.6510   6.3687   H         1 RES1   0.0000
    42 C118     0.6382   6.4876   7.8811   C.ar      1 RES1   0.0000
    43 H115     0.7804   5.5624   8.0484   H         1 RES1   0.0000
    44 C119    -2.4587   9.0621   9.9227   C.ar      1 RES1   0.0000
    45 H116    -2.5627   8.1610  10.2046   H         1 RES1   0.0000
    46 C120    -1.8365  15.3644   8.4990   C.ar      1 RES1   0.0000
    47 H117    -2.1985  16.1958   8.7816   H         1 RES1   0.0000
    48 C121    -3.1309  11.3564  10.0287   C.ar      1 RES1   0.0000
    49 H118    -3.6965  12.0375  10.3713   H         1 RES1   0.0000
    50 C122    -3.3041  10.0542  10.3989   C.ar      1 RES1   0.0000
    51 H119    -4.0113   9.8266  10.9911   H         1 RES1   0.0000
    52 C123    -0.2851   7.1926   8.6186   C.ar      1 RES1   0.0000
    53 H120    -0.7829   6.7569   9.3015   H         1 RES1   0.0000
    54 N4      -0.7502  12.9352   7.6841   N.ar      1 RES1   0.0000
    55 N5       1.1559  11.5340   5.9315   N.ar      1 RES1   0.0000
    56 N6       0.2486   9.1768   7.3969   N.ar      1 RES1   0.0000
    57 N7       1.5365  11.3821   8.4020   N.ar      1 RES1   0.0000
    58 N8      -1.2769  10.9332   5.7319   N.ar      1 RES1   0.0000
    59 N9      -1.3109  10.6988   8.6366   N.ar      1 RES1   0.0000
    60 K1       7.7481  11.0734   6.7061   K         2 RES2   0.0000
    61 C1       8.1477  11.9713  11.0045   C.ar      2 RES2   0.0000
    62 C2       7.8003  12.8728  10.0353   C.ar      2 RES2   0.0000
    63 C3       9.6139  11.5586  12.9858   C.ar      2 RES2   0.0000
    64 H1       9.2768  10.6717  13.0541   H         2 RES2   0.0000
    65 C4       8.2870  14.2025  10.0147   C.ar      2 RES2   0.0000
    66 C5       5.9465  14.4611   6.2598   C.ar      2 RES2   0.0000
    67 C6       2.2199  15.8133   4.9214   C.ar      2 RES2   0.0000
    68 H2       1.5172  15.9592   5.5422   H         2 RES2   0.0000
    69 C7       6.9525  14.5379   3.9825   C.ar      2 RES2   0.0000
    70 C8       8.3675  13.0962   2.6031   C.ar      2 RES2   0.0000
    71 C9       9.1270  12.4099  11.9616   C.ar      2 RES2   0.0000
    72 C10      5.8244  14.7380   4.9277   C.ar      2 RES2   0.0000
    73 C11      9.6677  13.7317  11.8986   C.ar      2 RES2   0.0000
    74 C12      3.7070  15.2172   6.8043   C.ar      2 RES2   0.0000
    75 H3       3.0265  15.4047   7.4419   H         2 RES2   0.0000
    76 C13     10.6077   7.1585   4.6151   C.ar      2 RES2   0.0000
    77 C14      7.7539   8.8390   3.7316   C.ar      2 RES2   0.0000
    78 C15      9.2171  14.6384  10.8965   C.ar      2 RES2   0.0000
    79 H4       9.5600  15.5242  10.8478   H         2 RES2   0.0000
    80 C16      7.3670  13.2990   3.5916   C.ar      2 RES2   0.0000
    81 C17      6.3190   8.0413  11.4307   C.ar      2 RES2   0.0000
    82 H5       5.9235   7.1806  11.5144   H         2 RES2   0.0000
    83 C18      6.7434   8.9722   2.7461   C.ar      2 RES2   0.0000
    84 C19      4.9154  14.7502   7.1949   C.ar      2 RES2   0.0000
    85 C20      9.2185   7.7400   6.4697   C.ar      2 RES2   0.0000
    86 C21      6.0682   7.9005   2.2649   C.ar      2 RES2   0.0000
    87 H6       5.4021   8.0010   1.5963   H         2 RES2   0.0000
    88 C22      7.6916   5.1880   4.2808   C.ar      2 RES2   0.0000
    89 H7       8.3899   5.0711   4.9124   H         2 RES2   0.0000
    90 C23      9.3135   7.5155   5.1353   C.ar      2 RES2   0.0000
    91 C24      7.7192   9.6176  10.2343   C.ar      2 RES2   0.0000
    92 C25     10.2959   7.4885   7.3689   C.ar      2 RES2   0.0000
    93 C26      8.1548   7.6356   4.2185   C.ar      2 RES2   0.0000
    94 C27      7.4925  10.6382  11.1228   C.ar      2 RES2   0.0000
    95 C28      4.5382  15.2125   4.4841   C.ar      2 RES2   0.0000
    96 C29      1.9615  15.9959   3.5830   C.ar      2 RES2   0.0000
    97 C30      3.4821  15.4198   5.4123   C.ar      2 RES2   0.0000
    98 C31      6.6131  10.3578  12.2202   C.ar      2 RES2   0.0000
    99 C32      7.6618  15.6551   3.4137   C.ar      2 RES2   0.0000
   100 C33      6.9507   4.1057   3.8806   C.ar      2 RES2   0.0000
   101 H8       7.1411   3.2522   4.2525   H         2 RES2   0.0000
   102 C34      7.4271   6.4765   3.7626   C.ar      2 RES2   0.0000
   103 C35     11.7050   6.9816   5.5076   C.ar      2 RES2   0.0000
   104 C36     10.5609  11.9880  13.8789   C.ar      2 RES2   0.0000
   105 H9      10.8776  11.3839  14.5404   H         2 RES2   0.0000
   106 C37     10.6258  14.1349  12.8531   C.ar      2 RES2   0.0000
   107 H10     10.9728  15.0171  12.8108   H         2 RES2   0.0000
   108 C38      6.0331   9.0632  12.3759   C.ar      2 RES2   0.0000
   109 C39     10.8414   7.0082   3.2400   C.ar      2 RES2   0.0000
   110 H11     10.1177   7.1107   2.6328   H         2 RES2   0.0000
   111 C40     11.5179   7.1038   6.9056   C.ar      2 RES2   0.0000
   112 H12     12.2288   6.9214   7.5085   H         2 RES2   0.0000
   113 C41      7.1627   8.3170  10.4129   C.ar      2 RES2   0.0000
   114 C42      3.0241  15.8377   2.6901   C.ar      2 RES2   0.0000
   115 H13      2.8759  15.9907   1.7630   H         2 RES2   0.0000
   116 C43      9.0040  14.1300   2.0173   C.ar      2 RES2   0.0000
   117 H14      9.6609  13.9803   1.3464   H         2 RES2   0.0000
   118 C44      8.6693  15.4484   2.4242   C.ar      2 RES2   0.0000
   119 C45     11.0729  13.2875  13.8439   C.ar      2 RES2   0.0000
   120 C46      4.2834  15.4658   3.1177   C.ar      2 RES2   0.0000
   121 H15      4.9868  15.3799   2.4862   H         2 RES2   0.0000
   122 C47     12.0865   6.7165   2.7508   C.ar      2 RES2   0.0000
   123 H16     12.2100   6.6036   1.8163   H         2 RES2   0.0000
   124 C48      5.6651   5.4643   2.4129   C.ar      2 RES2   0.0000
   125 H17      4.9747   5.5511   1.7663   H         2 RES2   0.0000
   126 C49     12.9833   6.7005   4.9513   C.ar      2 RES2   0.0000
   127 H18     13.7217   6.5924   5.5389   H         2 RES2   0.0000
   128 C50      5.9279   4.2241   2.9444   C.ar      2 RES2   0.0000
   129 C51      5.4883  11.0369  14.2635   C.ar      2 RES2   0.0000
   130 H19      5.2937  11.7175  14.8970   H         2 RES2   0.0000
   131 C52      6.3916   6.6172   2.7984   C.ar      2 RES2   0.0000
   132 C53      6.2853  11.3377  13.1887   C.ar      2 RES2   0.0000
   133 H20      6.6233  12.2201  13.0907   H         2 RES2   0.0000
   134 N1      10.5710  14.6542   6.0941   N.am      2 RES2   0.0000
   135 C54      8.0534  18.0432   3.2400   C.ar      2 RES2   0.0000
   136 H21      7.8523  18.9274   3.5260   H         2 RES2   0.0000
   137 C55      7.3869  16.9806   3.8212   C.ar      2 RES2   0.0000
   138 H22      6.7419  17.1424   4.4991   H         2 RES2   0.0000
   139 C56      5.2203   8.8013  13.4937   C.ar      2 RES2   0.0000
   140 H23      4.8422   7.9356  13.5906   H         2 RES2   0.0000
   141 C57     13.1897   6.5822   3.6179   C.ar      2 RES2   0.0000
   142 C58      9.3187  16.5584   1.8716   C.ar      2 RES2   0.0000
   143 H24      9.9942  16.4189   1.2164   H         2 RES2   0.0000
   144 C59      9.0080  17.8505   2.2489   C.ar      2 RES2   0.0000
   145 C60      4.9527   9.7565  14.4548   C.ar      2 RES2   0.0000
   146 B1       8.5275   8.2322   8.5920   B         2 RES2  -1.0000
   147 B2       6.7436  14.0076   8.3477   B         2 RES2  -1.0000
   148 B3       7.5523  11.0495   3.2087   B         2 RES2   0.0000
   149 O1       5.3523  14.4962   8.4463   O.3       2 RES2   0.0000
   150 O2       8.2367  10.0616   4.0689   O.3       2 RES2   0.0000
   151 O3       6.9165  12.6939   9.0085   O.3       2 RES2   0.0000
   152 O4       8.4833   9.6285   9.1149   O.3       2 RES2   0.0000
   153 O5       7.6963  14.9091   9.0245   O.3       2 RES2   0.0000
   154 O6       8.1392   8.1750   7.1702   O.3       2 RES2   0.0000
   155 O7       7.0143  13.9278   6.8993   O.3       2 RES2   0.0000
   156 O8       6.8804  12.1038   4.0192   O.3       2 RES2   0.0000
   157 O9       6.5809  10.2739   2.4155   O.3       2 RES2   0.0000
   158 O10      8.5215  11.7770   2.3645   O.3       2 RES2   0.0000
   159 O11      9.9036   7.6859   8.6406   O.3       2 RES2   0.0000
   160 O12      7.6019   7.4797   9.4541   O.3       2 RES2   0.0000
   161 C61     12.0737  13.7414  14.8927   C.3       2 RES2   0.0000
   162 H25     11.9690  13.1690  15.6935   H         2 RES2   0.0000
   163 H26     12.9870  13.5949  14.5404   H         2 RES2   0.0000
   164 C62     11.9546  15.1766  15.3160   C.3       2 RES2   0.0000
   165 H27     11.0206  15.3506  15.5936   H         2 RES2   0.0000
   166 H28     12.1493  15.7563  14.5371   H         2 RES2   0.0000
   167 C63      0.5727  16.2871   3.0667   C.3       2 RES2   0.0000
   168 H29      0.0235  16.6488   3.8059   H         2 RES2   0.0000
   169 H30      0.6301  16.9824   2.3629   H         2 RES2   0.0000
   170 C64     12.8798  15.5596  16.4531   C.3       2 RES2   0.0000
   171 H31     12.6303  15.0486  17.2632   H         2 RES2   0.0000
   172 H32     13.8095  15.3146  16.2134   H         2 RES2   0.0000
   173 C65      5.0624   3.0377   2.5685   C.3       2 RES2   0.0000
   174 H33      5.6391   2.2448   2.4295   H         2 RES2   0.0000
   175 H34      4.6013   3.2297   1.7130   H         2 RES2   0.0000
   176 C66      4.0164   2.7174   3.6416   C.3       2 RES2   0.0000
   177 H35      3.5543   1.8797   3.3893   H         2 RES2   0.0000
   178 H36      4.4866   2.5513   4.4958   H         2 RES2   0.0000
   179 C67      4.1968   9.4164  15.7219   C.3       2 RES2   0.0000
   180 H37      3.5630   8.6749  15.5469   H         2 RES2   0.0000
   181 H38      3.6803  10.2030  16.0301   H         2 RES2   0.0000
   182 C68      9.7081  19.0300   1.6107   C.3       2 RES2   0.0000
   183 H39     10.0340  18.7449   0.7199   H         2 RES2   0.0000
   184 H40      9.0330  19.7388   1.4630   H         2 RES2   0.0000
   185 C69     -1.4099  15.3966   1.8020   C.3       2 RES2   0.0000
   186 H41     -2.0288  15.8014   2.4595   H         2 RES2   0.0000
   187 H42     -1.2336  16.0741   1.1031   H         2 RES2   0.0000
   188 C70     -0.1060  15.0716   2.5008   C.3       2 RES2   0.0000
   189 H43     -0.2854  14.4311   3.2360   H         2 RES2   0.0000
   190 H44      0.5034  14.6317   1.8563   H         2 RES2   0.0000
   191 C71     10.7555  19.5855   2.2762   C.3       2 RES2   0.0000
   192 H45     10.3310  20.1693   2.9561   H         2 RES2   0.0000
   193 H46     11.1657  20.2008   1.6197   H         2 RES2   0.0000
   194 C72     12.8224  17.0392  16.7623   C.3       2 RES2   0.0000
   195 H47     13.0685  17.5503  15.9635   H         2 RES2   0.0000
   196 H48     13.4484  17.2461  17.4865   H         2 RES2   0.0000
   197 H49     11.9137  17.2799  17.0366   H         2 RES2   0.0000
   198 C73     14.5671   6.3219   3.0741   C.3       2 RES2   0.0000
   199 H50     14.4997   5.6818   2.3229   H         2 RES2   0.0000
   200 H51     15.1178   5.9027   3.7826   H         2 RES2   0.0000
   201 C74      2.0071   3.4555   4.9400   C.3       2 RES2   0.0000
   202 H52      1.5204   2.6369   4.7057   H         2 RES2   0.0000
   203 H53      1.3727   4.1966   5.0323   H         2 RES2   0.0000
   204 H54      2.4805   3.3221   5.7888   H         2 RES2   0.0000
   205 C75      2.9921   3.7753   3.8646   C.3       2 RES2   0.0000
   206 H55      2.5007   3.9239   3.0194   H         2 RES2   0.0000
   207 H56      3.4521   4.6203   4.0959   H         2 RES2   0.0000
   208 C76     -2.0716  14.2463   1.1818   C.3       2 RES2   0.0000
   209 H57     -1.4379  13.7797   0.5999   H         2 RES2   0.0000
   210 H58     -2.8369  14.5550   0.6532   H         2 RES2   0.0000
   211 H59     -2.3851  13.6332   1.8796   H         2 RES2   0.0000
   212 C77     17.6233   8.1092   3.3227   C.3       2 RES2   0.0000
   213 H60     17.4462   7.8680   4.2558   H         2 RES2   0.0000
   214 H61     17.6505   9.0851   3.2394   H         2 RES2   0.0000
   215 H62     18.4844   7.7328   3.0461   H         2 RES2   0.0000
   216 C78      5.2864   8.9656  16.8833   C.3       2 RES2   0.0000
   217 H63      5.8165   9.7792  17.0766   H         2 RES2   0.0000
   218 H64      4.7460   8.7943  17.6965   H         2 RES2   0.0000
   219 C79     15.3177   7.6764   2.5495   C.3       2 RES2   0.0000
   220 H65     15.1007   7.7959   1.5930   H         2 RES2   0.0000
   221 H66     14.9353   8.4472   3.0394   H         2 RES2   0.0000
   222 C80      6.1171   8.0303  16.8367   C.3       2 RES2   0.0000
   223 H67      6.5853   8.0821  15.9668   H         2 RES2   0.0000
   224 H68      5.6172   7.1761  16.8500   H         2 RES2   0.0000
   225 C81     16.8497   7.7215   2.7061   C.3       2 RES2   0.0000
   226 H69     17.0769   6.7569   2.6895   H         2 RES2   0.0000
   227 H70     17.1265   8.0551   1.8130   H         2 RES2   0.0000
   228 C88     10.0383  13.7166   6.8753   C.2       2 RES2   0.0000
   229 H85     10.2373  13.9262   7.8318   H         2 RES2   0.0000
   230 C89     10.3000  16.0628   6.3487   C.3       2 RES2   0.0000
   231 H86      9.6333  16.3874   5.7055   H         2 RES2   0.0000
   232 H87     11.1269  16.5790   6.2488   H         2 RES2   0.0000
   233 H88      9.9539  16.1710   7.2586   H         2 RES2   0.0000
   234 C90     11.3027  14.2927   4.9137   C.3       2 RES2   0.0000
   235 H89     11.0705  13.3763   4.6524   H         2 RES2   0.0000
   236 H90     12.2642  14.3454   5.0957   H         2 RES2   0.0000
   237 H91     11.0733  14.9066   4.1858   H         2 RES2   0.0000
   238 C91      5.2538   8.5266   6.1681   C.2       2 RES2   0.0000
   239 H92      5.5463   8.2850   5.2956   H         2 RES2   0.0000
   240 C92      4.9947   6.1504   6.5624   C.3       2 RES2   0.0000
   241 H93      5.1818   6.0965   5.6022   H         2 RES2   0.0000
   242 H94      4.1799   5.6458   6.7653   H         2 RES2   0.0000
   243 H95      5.7478   5.7720   7.0619   H         2 RES2   0.0000
   244 C93      4.4486   7.8229   8.3113   C.3       2 RES2   0.0000
   245 H96      5.1216   7.4330   8.9082   H         2 RES2   0.0000
   246 H97      3.5746   7.4240   8.5016   H         2 RES2   0.0000
   247 H98      4.4069   8.7898   8.4550   H         2 RES2   0.0000
   248 O15      5.3221   9.7202   6.4770   O.2       2 RES2   0.0000
   249 O16     10.1128  12.5045   6.6967   O.2       2 RES2   0.0000
   250 N3       4.8078   7.5583   6.9493   N.am      2 RES2   0.0000
   251 C124    11.8416  19.0153   2.9427   C.3       2 RES2   0.0000
   252 H121    11.9068  19.3872   3.8559   H         2 RES2   0.0000
   253 H122    11.7150  18.0349   3.0127   H         2 RES2   0.0000
   254 C125     7.1076   7.9785  17.8698   C.3       2 RES2   0.0000
   255 H123     7.6142   8.8169  17.8764   H         2 RES2   0.0000
   256 H124     7.7168   7.2302  17.6998   H         2 RES2   0.0000
   257 H125     6.6694   7.8545  18.7363   H         2 RES2   0.0000
   258 C127    12.9852  19.2858   2.2496   C.3       2 RES2   0.0000
   259 H129    13.0184  18.7291   1.4430   H         2 RES2   0.0000
   260 H130    13.7625  19.0919   2.8128   H         2 RES2   0.0000
   261 H131    12.9943  20.2324   1.9929   H         2 RES2   0.0000
   262 C82      1.8526   8.4959  12.5962   C.3       3 RES3   0.0000
   263 H71      1.5711   7.8342  13.2774   H         3 RES3   0.0000
   264 H72      2.6310   8.9927  12.9508   H         3 RES3   0.0000
   265 C83      0.4458  10.1556  13.4537   C.3       3 RES3   0.0000
   266 H73      1.2116  10.7236  13.7173   H         3 RES3   0.0000
   267 H74      0.2298   9.5561  14.2105   H         3 RES3   0.0000
   268 C84      2.2350   7.7948  11.3461   C.3       3 RES3   0.0000
   269 H75      1.4596   7.3113  10.9911   H         3 RES3   0.0000
   270 H76      2.9562   7.1603  11.5344   H         3 RES3   0.0000
   271 H77      2.5396   8.4495  10.6845   H         3 RES3   0.0000
   272 C85     -0.7367  11.0166  13.1367   C.3       3 RES3   0.0000
   273 H78     -0.5082  11.6274  12.4042   H         3 RES3   0.0000
   274 H79     -0.9856  11.5349  13.9306   H         3 RES3   0.0000
   275 H80     -1.4888  10.4509  12.8674   H         3 RES3   0.0000
   276 O14      0.7852   9.3990  12.3355   O.3       3 RES3   0.0000
   277 C86      1.1474   1.6106  16.5047   C.3       4 RES4   0.0000
   278 H81      1.0962   2.4611  16.9866   H         4 RES4   0.0000
   279 H82      0.5920   0.9421  16.9600   H         4 RES4   0.0000
   280 H83      0.8230   1.7354  15.5869   H         4 RES4   0.0000
   281 C87      3.5509   2.0532  16.6007   C.2       4 RES4   0.0000
   282 H84      3.3377   2.9660  16.7467   H         4 RES4   0.0000
   283 O13      4.8166   1.7016  16.5267   O.2       4 RES4   0.0000
   284 N2       2.5321   1.1512  16.4721   N.am      4 RES4   0.0000
   285 C126     2.7929  -0.2423  16.3288   C.3       4 RES4   0.0000
   286 H126     3.7599  -0.3922  16.3034   H         4 RES4   0.0000
   287 H127     2.3889  -0.5657  15.4969   H         4 RES4   0.0000
   288 H128     2.4068  -0.7257  17.0899   H         4 RES4   0.0000
@<TRIPOS>BOND
     1     1    54    1
     2     2     3    1
     3     3     8   ar
     4     4     2   ar
     5     5     4    1
     6     6     7    1
     7     8     9    1
     8    10     4   ar
     9    11    10    1
    10    12    25    1
    11    13    14    1
    12    15    19    1
    13    16    20    1
    14    17    18    1
    15    19    30   ar
    16    20    44   ar
    17    21    10   ar
    18    22    21    1
    19    23     6   ar
    20    24    23    1
    21    25    48   ar
    22    26    27    1
    23    28    23   ar
    24    29    28    1
    25    30    28   ar
    26    31    30    1
    27    32     8   ar
    28    33    32    1
    29    34    17   ar
    30    35    34    1
    31    36    12   ar
    32    37    36    1
    33    38    15   ar
    34    39    38    1
    35    40    26   ar
    36    41    40    1
    37    42    40   ar
    38    43    42    1
    39    44    45    1
    40    46    34   ar
    41    47    46    1
    42    48    49    1
    43    50    44   ar
    44    51    50    1
    45    52    16   ar
    46    53    52    1
    47    54    12   ar
    48    55     1    1
    49    56     1    1
    50    57     1    1
    51    58     1    1
    52    59     1    1
    53     2    57   ar
    54     3    55   ar
    55     6    58   ar
    56    13    21   ar
    57    13    57   ar
    58    15    55   ar
    59    16    56   ar
    60    17    54   ar
    61    19    58   ar
    62    20    59   ar
    63    25    59   ar
    64    26    56   ar
    65    32    38   ar
    66    36    46   ar
    67    42    52   ar
    68    48    50   ar
    69    60   150    1
    70    61    62   ar
    71    62    65   ar
    72    63    64    1
    73    65    78   ar
    74    66    72   ar
    75    67    68    1
    76    69    72    1
    77    70    80   ar
    78    71    61   ar
    79    72    95   ar
    80    73    71   ar
    81    74    75    1
    82    76    90   ar
    83    77    83   ar
    84    78    73   ar
    85    79    78    1
    86    80    69   ar
    87    81    82    1
    88    83    86   ar
    89    84    66   ar
    90    85    90   ar
    91    86    87    1
    92    88    89    1
    93    90    93    1
    94    91    94   ar
    95    92    85   ar
    96    93    77   ar
    97    94    61    1
    98    95    97   ar
    99    96    67   ar
   100    97    67   ar
   101    98    94   ar
   102    99    69   ar
   103   100    88   ar
   104   101   100    1
   105   102    88   ar
   106   103    76   ar
   107   104    63   ar
   108   105   104    1
   109   106    73   ar
   110   107   106    1
   111   108    81   ar
   112   109    76   ar
   113   110   109    1
   114   111    92   ar
   115   112   111    1
   116   113    81   ar
   117   114    96   ar
   118   115   114    1
   119   116    70   ar
   120   117   116    1
   121   118    99   ar
   122   119   104   ar
   123   120    95   ar
   124   121   120    1
   125   122   109   ar
   126   123   122    1
   127   124   125    1
   128   126   103   ar
   129   127   126    1
   130   128   100   ar
   131   129   130    1
   132   131    86   ar
   133   132    98   ar
   134   133   132    1
   135   134   228   am
   136   135   136    1
   137   137    99   ar
   138   138   137    1
   139   139   108   ar
   140   140   139    1
   141   141   122   ar
   142   142   118   ar
   143   143   142    1
   144   144   135   ar
   145   145   129   ar
   146   146   152    1
   147   147   149    1
   148   148   150    1
   149   149    84    1
   150   150    77    1
   151   151    60    1
   152   152    60    1
   153   153    65    1
   154   154    60    1
   155   155    60    1
   156   156    60    1
   157   157    83    1
   158   158    70    1
   159   159    92    1
   160   160   113    1
   161   161   119    1
   162   162   161    1
   163   163   161    1
   164   164   161    1
   165   165   164    1
   166   166   164    1
   167   167    96    1
   168   168   167    1
   169   169   167    1
   170   170   164    1
   171   171   170    1
   172   172   170    1
   173   173   128    1
   174   174   173    1
   175   175   173    1
   176   176   173    1
   177   177   176    1
   178   178   176    1
   179   179   145    1
   180   180   179    1
   181   181   179    1
   182   182   144    1
   183   183   182    1
   184   184   182    1
   185   185   186    1
   186   187   185    1
   187   188   167    1
   188   189   188    1
   189   190   188    1
   190   191   182    1
   191   192   191    1
   192   193   191    1
   193   194   170    1
   194   195   194    1
   195   196   194    1
   196   197   194    1
   197   198   141    1
   198   199   198    1
   199   200   198    1
   200   201   202    1
   201   203   201    1
   202   204   201    1
   203   205   176    1
   204   206   205    1
   205   207   205    1
   206   208   185    1
   207   209   208    1
   208   210   208    1
   209   211   208    1
   210   212   213    1
   211   214   212    1
   212   215   212    1
   213   216   179    1
   214   217   216    1
   215   218   216    1
   216   219   198    1
   217   220   219    1
   218   221   219    1
   219   222   216    1
   220   223   222    1
   221   224   222    1
   222   225   212    1
   223   226   225    1
   224   227   225    1
   225   228   229    1
   226   230   134    1
   227   231   230    1
   228   232   230    1
   229   233   230    1
   230   234   134    1
   231   235   234    1
   232   236   234    1
   233   237   234    1
   234   238   239    1
   235   240   241    1
   236   242   240    1
   237   243   240    1
   238   244   245    1
   239   246   244    1
   240   247   244    1
   241   248    60    1
   242   249    60    1
   243   250   238   am
   244   251   191    1
   245   252   251    1
   246   253   251    1
   247   254   222    1
   248   255   254    1
   249   256   254    1
   250   257   254    1
   251   258   251    1
   252   259   258    1
   253   260   258    1
   254   261   258    1
   255    62   151    1
   256    63    71   ar
   257    66   155    1
   258    74    84   ar
   259    74    97   ar
   260    80   156    1
   261    85   154    1
   262    91   113   ar
   263    91   152    1
   264    93   102   ar
   265    98   108   ar
   266   102   131   ar
   267   103   111   ar
   268   106   119   ar
   269   114   120   ar
   270   116   118   ar
   271   124   128   ar
   272   124   131   ar
   273   126   141   ar
   274   129   132   ar
   275   135   137   ar
   276   139   145   ar
   277   142   144   ar
   278   146   154    1
   279   146   159    1
   280   146   160    1
   281   147   151    1
   282   147   153    1
   283   147   155    1
   284   148   156    1
   285   148   157    1
   286   148   158    1
   287   185   188    1
   288   201   205    1
   289   219   225    1
   290   228   249    2
   291   238   248    2
   292   240   250    1
   293   244   250    1
   294   262   263    1
   295   264   262    1
   296   265   266    1
   297   267   265    1
   298   268   262    1
   299   269   268    1
   300   270   268    1
   301   271   268    1
   302   272   265    1
   303   273   272    1
   304   274   272    1
   305   275   272    1
   306   276   262    1
   307   265   276    1
   308   277   278    1
   309   279   277    1
   310   280   277    1
   311   281   282    1
   312   283   281    2
   313   284   277    1
   314   285   284    1
   315   286   285    1
   316   287   285    1
   317   288   285    1
   318   281   284   am
@<TRIPOS>SUBSTRUCTURE
     1 RES1        1 GROUP             0 ****  ****    0  
     2 RES2       60 GROUP             0 ****  ****    0  
     3 RES3      262 GROUP             0 ****  ****    0  
     4 RES4      277 GROUP             0 ****  ****    0  
@<TRIPOS>CRYSIN
   14.9070   22.5380   33.3550   90.0000   92.3600   90.0000   231     1
