@<TRIPOS>MOLECULE
OSUMEV
    75    79     4     0     0
SMALL
USER_CHARGES
****
Generated from the CSD

@<TRIPOS>ATOM
     1 Fe1      2.0891   4.9234   1.2458   Fe        1 RES1   2.0000
     2 N1       5.9093   3.3926   1.5307   N.pl3     1 RES1   0.0000
     3 N2       3.9309   4.3393   1.3751   N.2       1 RES1   0.0000
     4 N3       2.5800   5.9167   2.8731   N.2       1 RES1   0.0000
     5 N4       0.2358   5.5471   1.3225   N.2       1 RES1   0.0000
     6 N5      -1.8625   5.9071   0.8139   N.pl3     1 RES1   0.0000
     7 N6       3.1102   8.2169  -1.0697   N.2       1 RES1   0.0000
     8 N7       2.5638   6.3839   0.1031   N.2       1 RES1   0.0000
     9 N8       1.8281   3.9999  -0.4729   N.2       1 RES1   0.0000
    10 N9       1.5040   3.3294   2.2465   N.2       1 RES1   0.0000
    11 N10      1.0621   1.9512   3.8913   N.pl3     1 RES1   0.0000
    12 C1       6.8348   4.2239   3.7108   C.3       1 RES1   0.0000
    13 C2       5.7892   4.1813   2.6461   C.2       1 RES1   0.0000
    14 C3       4.7760   3.5162   0.8001   C.2       1 RES1   0.0000
    15 C4       4.5603   4.7763   2.5539   C.2       1 RES1   0.0000
    16 C5       3.7745   5.6900   3.3143   C.2       1 RES1   0.0000
    17 C6       1.7319   6.9226   3.5264   C.3       1 RES1   0.0000
    18 C7       0.3123   6.4004   3.7098   C.3       1 RES1   0.0000
    19 C8      -0.3874   6.1338   2.4210   C.2       1 RES1   0.0000
    20 C9      -1.6934   6.3578   2.0968   C.2       1 RES1   0.0000
    21 C10     -0.6930   5.4262   0.3777   C.2       1 RES1   0.0000
    22 C11      2.8826   7.4090  -3.4332   C.3       1 RES1   0.0000
    23 C12      2.7982   7.2235  -1.9570   C.2       1 RES1   0.0000
    24 C13      2.9618   7.6659   0.1388   C.2       1 RES1   0.0000
    25 C14      2.4532   6.0899  -1.2432   C.2       1 RES1   0.0000
    26 C15      2.0693   4.7474  -1.5040   C.2       1 RES1   0.0000
    27 C16      1.5001   2.5874  -0.6484   C.3       1 RES1   0.0000
    28 C17      0.3967   2.1600   0.3024   C.3       1 RES1   0.0000
    29 C18      0.7881   2.2562   1.7389   C.2       1 RES1   0.0000
    30 C19      0.5129   1.3988   2.7571   C.2       1 RES1   0.0000
    31 C20      1.6461   3.0999   3.5413   C.2       1 RES1   0.0000
    32 H1       6.6680   2.7069   1.4177   H         1 RES1   0.0000
    33 H2      -2.6600   5.8123   0.3470   H         1 RES1   0.0000
    34 H3       0.9904   1.7588   4.6794   H         1 RES1   0.0000
    35 H4       6.7411   5.0703   4.2432   H         1 RES1   0.0000
    36 H5       6.7839   3.4901   4.3820   H         1 RES1   0.0000
    37 H6       7.7037   4.0398   3.3311   H         1 RES1   0.0000
    38 H7       4.6060   3.0504   0.0397   H         1 RES1   0.0000
    39 H8       4.1417   6.1558   4.1243   H         1 RES1   0.0000
    40 H9       1.7287   7.7635   2.9147   H         1 RES1   0.0000
    41 H10      2.1238   7.2276   4.3820   H         1 RES1   0.0000
    42 H11      0.2741   5.6474   4.2730   H         1 RES1   0.0000
    43 H12     -0.1516   7.0627   4.1243   H         1 RES1   0.0000
    44 H13     -2.4017   6.8291   2.5380   H         1 RES1   0.0000
    45 H14     -0.5436   5.1115  -0.4263   H         1 RES1   0.0000
    46 H15      2.2647   8.1208  -3.7079   H         1 RES1   0.0000
    47 H16      2.7453   6.5955  -3.9161   H         1 RES1   0.0000
    48 H17      3.7533   7.5986  -3.6880   H         1 RES1   0.0000
    49 H18      3.0827   8.1070   0.8724   H         1 RES1   0.0000
    50 H19      2.0129   4.3970  -2.3595   H         1 RES1   0.0000
    51 H20      2.2828   2.0748  -0.4660   H         1 RES1   0.0000
    52 H21      1.2772   2.4458  -1.5863   H         1 RES1   0.0000
    53 H22     -0.3938   2.6932   0.0297   H         1 RES1   0.0000
    54 H23      0.1723   1.2504   0.0991   H         1 RES1   0.0000
    55 H24      0.0843   0.4534   2.7065   H         1 RES1   0.0000
    56 H25      2.0923   3.5726   4.0846   H         1 RES1   0.0000
    57 Cl1     -0.5339   1.7027   7.1364   Cl        2 RES2   0.0000
    58 O1       0.8738   1.8650   6.8437   O.3       2 RES2  -1.0000
    59 O2      -0.6860   1.0402   8.4180   O.2       2 RES2   0.0000
    60 O3      -1.1631   2.9749   7.1718   O.2       2 RES2   0.0000
    61 O4      -1.1138   0.8849   6.1031   O.2       2 RES2   0.0000
    62 Cl2      4.0401   4.0182   6.5042   Cl        3 RES3   0.0000
    63 O5       2.7851   4.6441   6.1418   O.3       3 RES3  -1.0000
    64 O6       4.3606   2.9984   5.5509   O.2       3 RES3   0.0000
    65 O7       5.0785   5.0305   6.5126   O.2       3 RES3   0.0000
    66 O8       3.9115   3.4420   7.8242   O.2       3 RES3   0.0000
    67 O9      -3.8348   5.2297  -1.0003   O.3       4 RES4   0.0000
    68 C21     -4.7775   6.1064  -1.6219   C.3       4 RES4   0.0000
    69 C22     -4.1095   7.2661  -2.3090   C.3       4 RES4   0.0000
    70 H26     -3.4636   4.8642  -1.6160   H         4 RES4   0.0000
    71 H27     -5.3319   6.5131  -0.8625   H         4 RES4   0.0000
    72 H28     -5.3223   5.4688  -2.3794   H         4 RES4   0.0000
    73 H29     -3.6092   7.8597  -1.6457   H         4 RES4   0.0000
    74 H30     -3.4222   6.8841  -2.9544   H         4 RES4   0.0000
    75 H31     -4.6955   7.8734  -2.7958   H         4 RES4   0.0000
@<TRIPOS>BOND
     1     1     3    1
     2     2    13    1
     3     3    14    2
     4     4     1    1
     5     5     1    1
     6     6    20    1
     7     7    23    1
     8     8     1    1
     9     9     1    1
    10    10     1    1
    11    11    30    1
    12    12    13    1
    13    13    15    2
    14    14     2    1
    15    15     3    1
    16    16     4    2
    17    17     4    1
    18    18    17    1
    19    19     5    1
    20    20    19    2
    21    21     5    2
    22    22    23    1
    23    23    25    2
    24    24     7    2
    25    25     8    1
    26    26     9    2
    27    27     9    1
    28    28    27    1
    29    29    10    1
    30    30    29    2
    31    31    10    2
    32    32     2    1
    33    33     6    1
    34    34    11    1
    35    35    12    1
    36    36    12    1
    37    37    12    1
    38    38    14    1
    39    39    16    1
    40    40    17    1
    41    41    17    1
    42    42    18    1
    43    43    18    1
    44    44    20    1
    45    45    21    1
    46    46    22    1
    47    47    22    1
    48    48    22    1
    49    49    24    1
    50    50    26    1
    51    51    27    1
    52    52    27    1
    53    53    28    1
    54    54    28    1
    55    55    30    1
    56    56    31    1
    57     6    21    1
    58     8    24    1
    59    11    31    1
    60    15    16    1
    61    18    19    1
    62    25    26    1
    63    28    29    1
    64    57    58    1
    65    59    57    2
    66    60    57    2
    67    61    57    2
    68    62    63    1
    69    64    62    2
    70    65    62    2
    71    66    62    2
    72    67    68    1
    73    68    69    1
    74    69    73    1
    75    70    67    1
    76    71    68    1
    77    72    68    1
    78    74    69    1
    79    75    69    1
@<TRIPOS>SUBSTRUCTURE
     1 RES1        1 GROUP             0 ****  ****    0  
     2 RES2       57 GROUP             0 ****  ****    0  
     3 RES3       62 GROUP             0 ****  ****    0  
     4 RES4       67 GROUP             0 ****  ****    0  
@<TRIPOS>CRYSIN
   10.7872   13.7407   11.2993   90.0000  118.6690   90.0000     4     1
