@<TRIPOS>MOLECULE
OTEXOD
    86    94     2     0     0
SMALL
USER_CHARGES
****
Generated from the CSD

@<TRIPOS>ATOM
     1 Fe1      8.3299   5.4709   9.6499   Fe        1 RES1   1.0000
     2 N1       9.7018   4.0616   9.5389   N.ar      1 RES1   0.0000
     3 C1       9.9801   3.2781   8.4739   C.ar      1 RES1   0.0000
     4 H1       9.4562   3.3455   7.7086   H         1 RES1   0.0000
     5 O1      10.2522   9.6216   4.6009   O.3       1 RES1   0.0000
     6 C2      10.8004   8.3379   8.0013   C.ar      1 RES1   0.0000
     7 H2      11.3507   8.4863   8.7359   H         1 RES1   0.0000
     8 C3      10.4460   3.9692  10.6363   C.ar      1 RES1   0.0000
     9 C4      11.5385   3.0996  10.7070   C.ar      1 RES1   0.0000
    10 H3      12.0649   3.0571  11.4723   H         1 RES1   0.0000
    11 C5       4.2217   4.5628   4.8578   C.ar      1 RES1   0.0000
    12 H4       4.0526   4.1508   4.0411   H         1 RES1   0.0000
    13 C6      11.0297  10.7952   4.6203   C.3       1 RES1   0.0000
    14 H5      10.7681  11.3410   5.3650   H         1 RES1   0.0000
    15 H6      10.8938  11.2819   3.8036   H         1 RES1   0.0000
    16 H7      11.9580  10.5638   4.7037   H         1 RES1   0.0000
    17 C7      11.0157   2.3888   8.4996   C.ar      1 RES1   0.0000
    18 H8      11.1816   1.8398   7.7676   H         1 RES1   0.0000
    19 C8      11.8156   2.3141   9.6245   C.ar      1 RES1   0.0000
    20 H9      12.5388   1.7309   9.6437   H         1 RES1   0.0000
    21 C9       6.7590  10.2815  15.1410   C.3       1 RES1   0.0000
    22 H10      6.6764   9.4794  15.6611   H         1 RES1   0.0000
    23 H11      6.4907  11.0349  15.6714   H         1 RES1   0.0000
    24 H12      7.6720  10.3926  14.8662   H         1 RES1   0.0000
    25 C10     13.3292   5.8049  14.1202   C.ar      1 RES1   0.0000
    26 H13     14.0812   5.9979  14.6325   H         1 RES1   0.0000
    27 C11     12.4258   4.8813  14.5632   C.ar      1 RES1   0.0000
    28 H14     12.5700   4.4517  15.3747   H         1 RES1   0.0000
    29 N2       7.6871   5.3473   7.8521   N.2       1 RES1   0.0000
    30 O2       6.9491   6.6768   9.9215   O.3       1 RES1   0.0000
    31 C12      6.7503   7.4092  10.9779   C.ar      1 RES1   0.0000
    32 N3       7.0337   4.0180   9.9166   N.ar      1 RES1   0.0000
    33 C13      9.0478   7.0771   6.9086   C.ar      1 RES1   0.0000
    34 N4       8.9941   5.6171  11.4393   N.2       1 RES1   0.0000
    35 O3       9.6410   6.7182   9.2374   O.3       1 RES1   0.0000
    36 C14      8.0502   6.0529   6.8456   C.2       1 RES1   0.0000
    37 H15      7.6410   5.8900   6.0264   H         1 RES1   0.0000
    38 C15      9.7944   7.3397   8.0887   C.ar      1 RES1   0.0000
    39 C16      3.3905   5.5392   5.3060   C.ar      1 RES1   0.0000
    40 H16      2.6549   5.7852   4.7923   H         1 RES1   0.0000
    41 C17      9.2729   7.8492   5.7644   C.ar      1 RES1   0.0000
    42 H17      8.7920   7.6613   4.9914   H         1 RES1   0.0000
    43 C18      7.5306   7.3812  12.1619   C.ar      1 RES1   0.0000
    44 N5       6.6648   4.3905   7.6559   N.3       1 RES1   0.0000
    45 C19      5.6532   8.3172  10.9561   C.ar      1 RES1   0.0000
    46 H18      5.0768   8.3089  10.2267   H         1 RES1   0.0000
    47 N6      10.0774   4.7599  11.7146   N.pl3     1 RES1   0.0000
    48 C20      5.5465   4.7879   6.8251   C.ar      1 RES1   0.0000
    49 C21      6.2473   9.2137  13.0877   C.ar      1 RES1   0.0000
    50 C22     11.1313   5.1895  12.5972   C.ar      1 RES1   0.0000
    51 C23      4.7034   5.7935   7.2758   C.ar      1 RES1   0.0000
    52 H19      4.8677   6.2127   8.0899   H         1 RES1   0.0000
    53 C24      8.6084   6.4545  12.3378   C.2       1 RES1   0.0000
    54 H20      9.0591   6.4586  13.1519   H         1 RES1   0.0000
    55 C25      6.7863   3.3435  11.0729   C.ar      1 RES1   0.0000
    56 H21      7.2565   3.5790  11.8396   H         1 RES1   0.0000
    57 C26      6.3572   3.6921   8.8296   C.ar      1 RES1   0.0000
    58 O4       5.9361  10.1902  14.0042   O.3       1 RES1   0.0000
    59 C27      5.4106   2.6659   8.8334   C.ar      1 RES1   0.0000
    60 H22      4.9465   2.4448   8.0578   H         1 RES1   0.0000
    61 C28     10.9864   9.0820   6.8803   C.ar      1 RES1   0.0000
    62 H23     11.6518   9.7316   6.8610   H         1 RES1   0.0000
    63 C29     10.1805   8.8754   5.7528   C.ar      1 RES1   0.0000
    64 C30      7.2595   8.2943  13.2046   C.ar      1 RES1   0.0000
    65 H24      7.7734   8.2736  13.9789   H         1 RES1   0.0000
    66 C31      5.3259   4.1767   5.6129   C.ar      1 RES1   0.0000
    67 H25      5.9031   3.5168   5.3034   H         1 RES1   0.0000
    68 C32     12.0194   6.1349  12.1542   C.ar      1 RES1   0.0000
    69 H26     11.8804   6.5666  11.3413   H         1 RES1   0.0000
    70 C33      3.6187   6.1691   6.5066   C.ar      1 RES1   0.0000
    71 H27      3.0473   6.8416   6.7994   H         1 RES1   0.0000
    72 C34      5.8742   2.3348  11.1449   C.ar      1 RES1   0.0000
    73 H28      5.7230   1.8886  11.9461   H         1 RES1   0.0000
    74 C35      5.1769   1.9913  10.0020   C.ar      1 RES1   0.0000
    75 H29      4.5531   1.3023  10.0251   H         1 RES1   0.0000
    76 C36      5.4234   9.1888  11.9616   C.ar      1 RES1   0.0000
    77 H30      4.7074   9.7803  11.9025   H         1 RES1   0.0000
    78 C37     13.1348   6.4441  12.9323   C.ar      1 RES1   0.0000
    79 H31     13.7441   7.0844  12.6421   H         1 RES1   0.0000
    80 C38     11.2961   4.5763  13.8197   C.ar      1 RES1   0.0000
    81 H32     10.6642   3.9734  14.1394   H         1 RES1   0.0000
    82 Cl1      9.3132   4.2527   3.3232   Cl        2 RES2   0.0000
    83 O5       9.0033   5.4375   2.7095   O.3       2 RES2  -1.0000
    84 O6      10.3506   4.6676   4.1156   O.2       2 RES2   0.0000
    85 O7       9.7922   3.3321   2.5374   O.2       2 RES2   0.0000
    86 O8       8.2386   3.9069   3.9345   O.2       2 RES2   0.0000
@<TRIPOS>BOND
     1     1     2    1
     2     2     3   ar
     3     3     4    1
     4     5    13    1
     5     6     7    1
     6     8     2   ar
     7     9     8   ar
     8    10     9    1
     9    11    12    1
    10    13    14    1
    11    15    13    1
    12    16    13    1
    13    17     3   ar
    14    18    17    1
    15    19     9   ar
    16    20    19    1
    17    21    22    1
    18    23    21    1
    19    24    21    1
    20    25    26    1
    21    27    25   ar
    22    28    27    1
    23    29     1    1
    24    30     1    1
    25    31    30    1
    26    32     1    1
    27    33    36    1
    28    34     1    1
    29    35     1    1
    30    36    29    2
    31    37    36    1
    32    38     6   ar
    33    39    11   ar
    34    40    39    1
    35    41    33   ar
    36    42    41    1
    37    43    31   ar
    38    44    29    1
    39    45    31   ar
    40    46    45    1
    41    47     8    1
    42    48    44    1
    43    49    58    1
    44    50    47    1
    45    51    48   ar
    46    52    51    1
    47    53    34    2
    48    54    53    1
    49    55    32   ar
    50    56    55    1
    51    57    32   ar
    52    58    21    1
    53    59    57   ar
    54    60    59    1
    55    61     6   ar
    56    62    61    1
    57    63     5    1
    58    64    43   ar
    59    65    64    1
    60    66    11   ar
    61    67    66    1
    62    68    50   ar
    63    69    68    1
    64    70    39   ar
    65    71    70    1
    66    72    55   ar
    67    73    72    1
    68    74    59   ar
    69    75    74    1
    70    76    45   ar
    71    77    76    1
    72    78    25   ar
    73    79    78    1
    74    80    27   ar
    75    81    80    1
    76    17    19   ar
    77    33    38   ar
    78    34    47    1
    79    35    38    1
    80    41    63   ar
    81    43    53    1
    82    44    57    1
    83    48    66   ar
    84    49    64   ar
    85    49    76   ar
    86    50    80   ar
    87    51    70   ar
    88    61    63   ar
    89    68    78   ar
    90    72    74   ar
    91    82    83    1
    92    84    82    2
    93    85    82    2
    94    86    82    2
@<TRIPOS>SUBSTRUCTURE
     1 RES1        1 GROUP             0 ****  ****    0  
     2 RES2       82 GROUP             0 ****  ****    0  
@<TRIPOS>CRYSIN
   12.7280   10.3770   12.9290   90.0000   96.6820   90.0000     4     1
