@<TRIPOS>MOLECULE
OTUJUJ02
   107   112     4     0     0
SMALL
USER_CHARGES
****
Generated from the CSD

@<TRIPOS>ATOM
     1 Fe1      8.6525   7.1464   5.7676   Fe        1 RES1   2.0000
     2 N1       6.6372   6.4283   5.2392   N.2       1 RES1   0.0000
     3 N2       7.3927   7.9963   7.3868   N.2       1 RES1   0.0000
     4 N3       4.6614   5.7114   4.6871   N.pl3     1 RES1   0.0000
     5 N4       9.4938   6.4637   3.8778   N.2       1 RES1   0.0000
     6 N5       8.4095   8.9088   4.4384   N.2       1 RES1   0.0000
     7 N6      10.1613   5.6481   1.9473   N.pl3     1 RES1   0.0000
     8 N7       9.2239   5.4656   7.0011   N.2       1 RES1   0.0000
     9 N8      10.6745   7.7207   6.4763   N.2       1 RES1   0.0000
    10 N9       9.6733   3.8175   8.3267   N.pl3     1 RES1   0.0000
    11 C1       6.5168   5.0298   3.1507   C.3       1 RES1   0.0000
    12 C2       5.9674   5.7412   4.3731   C.2       1 RES1   0.0000
    13 C3       4.4831   6.4022   5.8104   C.2       1 RES1   0.0000
    14 C4       5.7373   6.8585   6.1687   C.2       1 RES1   0.0000
    15 C5       6.1505   7.7021   7.2603   C.2       1 RES1   0.0000
    16 C6       7.7975   8.8101   8.5375   C.3       1 RES1   0.0000
    17 C7       6.6758   9.4600   9.3489   C.3       1 RES1   0.0000
    18 C8       8.6432   7.9777   9.4627   C.ar      1 RES1   0.0000
    19 C9       8.1083   6.7896   9.9790   C.ar      1 RES1   0.0000
    20 C10      8.8685   5.9981  10.8452   C.ar      1 RES1   0.0000
    21 C11     10.2119   6.3501  11.1339   C.ar      1 RES1   0.0000
    22 C12     10.7046   7.5661  10.6977   C.ar      1 RES1   0.0000
    23 C13      9.9300   8.3725   9.8209   C.ar      1 RES1   0.0000
    24 C14     10.4926   4.1862   3.9895   C.3       1 RES1   0.0000
    25 C15     10.0444   5.4432   3.2961   C.2       1 RES1   0.0000
    26 C16      9.7131   6.9106   1.7050   C.2       1 RES1   0.0000
    27 C17      9.2830   7.4246   2.8873   C.2       1 RES1   0.0000
    28 C18      8.7613   8.6890   3.2392   C.2       1 RES1   0.0000
    29 C19      7.8095  10.2086   4.8578   C.3       1 RES1   0.0000
    30 C20      8.2553  11.4078   4.0401   C.3       1 RES1   0.0000
    31 C21      6.2915  10.0615   4.8451   C.ar      1 RES1   0.0000
    32 C22      5.6204   9.5065   3.7766   C.ar      1 RES1   0.0000
    33 C23      4.2240   9.4730   3.7872   C.ar      1 RES1   0.0000
    34 C24      3.5373   9.9777   4.7398   C.ar      1 RES1   0.0000
    35 C25      4.1626  10.5233   5.8589   C.ar      1 RES1   0.0000
    36 C26      5.5710  10.5978   5.8820   C.ar      1 RES1   0.0000
    37 C27      7.3770   3.8119   7.4058   C.3       1 RES1   0.0000
    38 C28      8.7601   4.3762   7.5512   C.2       1 RES1   0.0000
    39 C29     10.8034   4.6034   8.3099   C.2       1 RES1   0.0000
    40 C30     10.5034   5.6220   7.4774   C.2       1 RES1   0.0000
    41 C31     11.2299   6.8380   7.1824   C.2       1 RES1   0.0000
    42 C32     11.4070   8.9479   6.1307   C.3       1 RES1   0.0000
    43 C33     12.5600   9.3520   7.0517   C.3       1 RES1   0.0000
    44 C34     11.9107   8.8734   4.6829   C.ar      1 RES1   0.0000
    45 C35     12.5082   7.7598   4.1855   C.ar      1 RES1   0.0000
    46 C36     13.0359   7.7151   2.8725   C.ar      1 RES1   0.0000
    47 C37     12.9721   8.8659   2.1138   C.ar      1 RES1   0.0000
    48 C38     12.3781   9.9609   2.5985   C.ar      1 RES1   0.0000
    49 C39     11.8468  10.0466   3.8947   C.ar      1 RES1   0.0000
    50 H1       6.4854   5.6127   2.4026   H         1 RES1   0.0000
    51 H2       5.9927   4.2570   2.9737   H         1 RES1   0.0000
    52 H3       7.4155   4.7710   3.3151   H         1 RES1   0.0000
    53 H4       3.9698   5.2812   4.1960   H         1 RES1   0.0000
    54 H5       3.6722   6.5345   6.2867   H         1 RES1   0.0000
    55 H6       5.5168   8.0279   7.8884   H         1 RES1   0.0000
    56 H7       8.3432   9.5103   8.1982   H         1 RES1   0.0000
    57 H8       6.4662  10.3073   8.9758   H         1 RES1   0.0000
    58 H9       6.9409   9.5680  10.2530   H         1 RES1   0.0000
    59 H10      5.9095   8.8976   9.3067   H         1 RES1   0.0000
    60 H11      7.2216   6.5307   9.7577   H         1 RES1   0.0000
    61 H12      8.5396   5.1806  11.2035   H         1 RES1   0.0000
    62 H13     10.7552   5.8343  11.7198   H         1 RES1   0.0000
    63 H14     11.5890   7.8380  10.9147   H         1 RES1   0.0000
    64 H15     10.2275   9.2086   9.4795   H         1 RES1   0.0000
    65 H16     11.3950   4.2756   4.2740   H         1 RES1   0.0000
    66 H17     10.4215   3.4562   3.3846   H         1 RES1   0.0000
    67 H18      9.9372   4.0298   4.7419   H         1 RES1   0.0000
    68 H19     10.4974   5.0317   1.3066   H         1 RES1   0.0000
    69 H20      9.7035   7.3557   0.8662   H         1 RES1   0.0000
    70 H21      8.6758   9.3669   2.5796   H         1 RES1   0.0000
    71 H22      8.0734  10.3669   5.7577   H         1 RES1   0.0000
    72 H23      9.0420  11.7915   4.4089   H         1 RES1   0.0000
    73 H24      7.5601  12.0559   4.0359   H         1 RES1   0.0000
    74 H25      8.4288  11.1248   3.1507   H         1 RES1   0.0000
    75 H26      6.1059   9.1229   3.0559   H         1 RES1   0.0000
    76 H27      3.7626   9.1043   3.0432   H         1 RES1   0.0000
    77 H28      2.5879   9.9516   4.7124   H         1 RES1   0.0000
    78 H29      3.6638  10.8585   6.5944   H         1 RES1   0.0000
    79 H30      6.0360  11.0093   6.6007   H         1 RES1   0.0000
    80 H31      6.8095   4.1844   8.0696   H         1 RES1   0.0000
    81 H32      7.4107   2.8678   7.5111   H         1 RES1   0.0000
    82 H33      7.0384   4.0224   6.5438   H         1 RES1   0.0000
    83 H34      9.5830   2.9926   8.7904   H         1 RES1   0.0000
    84 H35     11.6179   4.4674   8.7798   H         1 RES1   0.0000
    85 H36     12.1167   6.9553   7.5006   H         1 RES1   0.0000
    86 H37     10.7781   9.6592   6.1665   H         1 RES1   0.0000
    87 H38     12.2456   9.8734   7.7788   H         1 RES1   0.0000
    88 H39     13.2034   9.8492   6.5606   H         1 RES1   0.0000
    89 H40     12.9588   8.5549   7.3805   H         1 RES1   0.0000
    90 H41     12.5637   6.9870   4.7356   H         1 RES1   0.0000
    91 H42     13.4263   6.9237   2.5185   H         1 RES1   0.0000
    92 H43     13.3444   8.8697   1.2413   H         1 RES1   0.0000
    93 H44     12.3094  10.7300   2.0443   H         1 RES1   0.0000
    94 H45     11.4649  10.8436   4.2424   H         1 RES1   0.0000
    95 Cl1      2.5055   3.4171   2.5248   Cl        2 RES2   0.0000
    96 O1       2.3747   4.5940   3.2498   O.3       2 RES2  -1.0000
    97 O2       2.2229   3.4637   1.2666   O.2       2 RES2   0.0000
    98 O3       3.8313   3.0205   2.5606   O.2       2 RES2   0.0000
    99 O4       1.6132   2.4618   2.9294   O.2       2 RES2   0.0000
   100 Cl2      9.0185   1.9538  11.3883   Cl        3 RES3   0.0000
   101 O5       8.3782   1.7523  10.1961   O.3       3 RES3  -1.0000
   102 O6      10.2649   2.5642  11.0559   O.2       3 RES3   0.0000
   103 O7       8.3444   2.7207  12.2298   O.2       3 RES3   0.0000
   104 O8       9.2336   0.6723  12.0128   O.2       3 RES3   0.0000
   105 O9      11.4155   3.7300   0.4110   O.3       4 RES4   0.0000
   106 C40     10.9998   2.4507  -0.0337   C.3       4 RES4   0.0000
   107 C41      9.8071   2.3073   0.0843   C.2       4 RES4   0.0000
@<TRIPOS>BOND
     1     1     2    1
     2     2    12    2
     3     3     1    1
     4     4    12    1
     5     5     1    1
     6     6     1    1
     7     7    25    1
     8     8     1    1
     9     9     1    1
    10    10    38    1
    11    11    12    1
    12    13     4    1
    13    14     2    1
    14    15     3    2
    15    16     3    1
    16    17    16    1
    17    18    16    1
    18    19    18   ar
    19    20    19   ar
    20    21    20   ar
    21    22    21   ar
    22    23    18   ar
    23    24    25    1
    24    25     5    2
    25    26     7    1
    26    27     5    1
    27    28     6    2
    28    29     6    1
    29    30    29    1
    30    31    29    1
    31    32    31   ar
    32    33    32   ar
    33    34    33   ar
    34    35    34   ar
    35    36    31   ar
    36    37    38    1
    37    38     8    2
    38    39    10    1
    39    40     8    1
    40    41     9    2
    41    42     9    1
    42    43    42    1
    43    44    42    1
    44    45    44   ar
    45    46    45   ar
    46    47    46   ar
    47    48    47   ar
    48    49    44   ar
    49    50    11    1
    50    51    11    1
    51    52    11    1
    52    53     4    1
    53    54    13    1
    54    55    15    1
    55    56    16    1
    56    57    17    1
    57    58    17    1
    58    59    17    1
    59    60    19    1
    60    61    20    1
    61    62    21    1
    62    63    22    1
    63    64    23    1
    64    65    24    1
    65    66    24    1
    66    67    24    1
    67    68     7    1
    68    69    26    1
    69    70    28    1
    70    71    29    1
    71    72    30    1
    72    73    30    1
    73    74    30    1
    74    75    32    1
    75    76    33    1
    76    77    34    1
    77    78    35    1
    78    79    36    1
    79    80    37    1
    80    81    37    1
    81    82    37    1
    82    83    10    1
    83    84    39    1
    84    85    41    1
    85    86    42    1
    86    87    43    1
    87    88    43    1
    88    89    43    1
    89    90    45    1
    90    91    46    1
    91    92    47    1
    92    93    48    1
    93    94    49    1
    94    13    14    2
    95    14    15    1
    96    22    23   ar
    97    26    27    2
    98    27    28    1
    99    35    36   ar
   100    39    40    2
   101    40    41    1
   102    48    49   ar
   103    95    96    1
   104    97    95    2
   105    98    95    2
   106    99    95    2
   107   100   101    1
   108   102   100    2
   109   103   100    2
   110   104   100    2
   111   105   106    1
   112   106   107    1
@<TRIPOS>SUBSTRUCTURE
     1 RES1        1 GROUP             0 ****  ****    0  
     2 RES2       95 GROUP             0 ****  ****    0  
     3 RES3      100 GROUP             0 ****  ****    0  
     4 RES4      105 GROUP             0 ****  ****    0  
@<TRIPOS>CRYSIN
   12.0480   18.6220   21.0750   90.0000   90.0000   90.0000    19     1
