@<TRIPOS>MOLECULE
OVALEF02
    63    70     5     0     0
SMALL
NO_CHARGES
****
Generated from the CSD

@<TRIPOS>ATOM
     1 N1       3.7089   7.9431  26.1036   N.3       1 RES1   0.0000
     2 Fe1     -1.4457  11.4856  26.1036   Fe        2 RES2   0.0000
     3 O1      -0.4858  10.1732  27.2745   O.co2     2 RES2   0.0000
     4 O2      -0.7419  13.0336  27.1896   O.co2     2 RES2   0.0000
     5 O3       1.3187   8.8906  27.3427   O.co2     2 RES2   0.0000
     6 C5       0.6123   9.7252  26.8067   C.2       2 RES2   0.0000
     7 O4       2.0786  10.0086  24.9203   O.co2     2 RES2   0.0000
     8 C6       1.0567  10.3773  25.4458   C.2       2 RES2   0.0000
     9 O5      -0.5992  15.2597  27.2000   O.co2     2 RES2   0.0000
    10 C7      -1.0173  14.1933  26.7441   C.2       2 RES2   0.0000
    11 O6       0.2017  11.2297  24.9864   O.co2     2 RES2   0.0000
    12 O2A     -2.1495  13.0336  25.0177   O.co2     2 RES2   0.0000
    13 O5A     -2.2922  15.2597  25.0073   O.co2     2 RES2   0.0000
    14 C7A     -1.8742  14.1933  25.4632   C.2       2 RES2   0.0000
    15 O1A     -2.4056  10.1732  24.9328   O.co2     2 RES2   0.0000
    16 O3A     -4.2101   8.8906  24.8646   O.co2     2 RES2   0.0000
    17 C5A     -3.5037   9.7252  25.4006   C.2       2 RES2   0.0000
    18 O4A     -4.9700  10.0086  27.2870   O.co2     2 RES2   0.0000
    19 C6A     -3.9481  10.3773  26.7615   C.2       2 RES2   0.0000
    20 O6A     -3.0932  11.2297  27.2209   O.co2     2 RES2   0.0000
    21 S1       7.7468   9.7010   1.5192   S.3       3 RES3   0.0000
    22 S2       6.8082   7.5367  -2.1398   S.3       3 RES3   0.0000
    23 S3       5.3958   8.1647   0.6526   S.3       3 RES3   0.0000
    24 S4       9.2005   9.0401  -1.3139   S.3       3 RES3   0.0000
    25 S5      10.7527   8.4414  -3.7426   S.3       3 RES3   0.0000
    26 S6       6.6861  10.3256   4.2159   S.3       3 RES3   0.0000
    27 S7       3.8537   8.5758   3.1070   S.3       3 RES3   0.0000
    28 S8       7.9327   6.7297  -4.7784   S.3       3 RES3   0.0000
    29 C8       9.2715   8.2285  -2.8540   C.2       3 RES3   0.0000
    30 C9       6.4238   9.5765   2.6417   C.2       3 RES3   0.0000
    31 C10      7.6027   8.4684  -0.9049   C.2       3 RES3   0.0000
    32 C11      5.3448   8.8847   2.2449   C.2       3 RES3   0.0000
    33 C12      7.0026   8.7360   0.2889   C.2       3 RES3   0.0000
    34 C13      8.1719   7.5268  -3.2334   C.2       3 RES3   0.0000
    35 C14      5.1036  10.1553   4.9980   C.3       3 RES3   0.0000
    36 C15      4.3323   8.9977   4.7961   C.3       3 RES3   0.0000
    37 C16     10.3016   7.9986  -5.4261   C.3       3 RES3   0.0000
    38 C17      9.0014   7.7904  -5.7950   C.3       3 RES3   0.0000
    39 S9      13.3049   6.4480  -1.7214   S.3       4 RES4   0.0000
    40 S10     11.9267   7.0849   1.0737   S.3       4 RES4   0.0000
    41 S11      9.4896   5.6571   0.2617   S.3       4 RES4   0.0000
    42 S12     10.9053   4.9825  -2.6086   S.3       4 RES4   0.0000
    43 S13      8.0302   6.1053   2.7680   S.3       4 RES4   0.0000
    44 S14     14.8196   6.0020  -4.2065   S.3       4 RES4   0.0000
    45 S15     10.9842   7.7591   3.7857   S.3       4 RES4   0.0000
    46 S16     11.9191   4.3414  -5.2768   S.3       4 RES4   0.0000
    47 C18     13.3527   5.7269  -3.2960   C.2       4 RES4   0.0000
    48 C19      9.5068   6.3612   1.8690   C.2       4 RES4   0.0000
    49 C20     10.6341   7.0054   2.2519   C.2       4 RES4   0.0000
    50 C21     11.6899   5.8755  -1.3435   C.2       4 RES4   0.0000
    51 C22     12.2563   5.0648  -3.7346   C.2       4 RES4   0.0000
    52 C23     11.0807   6.1788  -0.1531   C.2       4 RES4   0.0000
    53 C24      9.3113   7.9034   4.4863   C.3       4 RES4   0.0000
    54 C25     13.4520   4.6644  -6.2057   C.3       4 RES4   0.0000
    55 C26      8.5198   6.6030   4.4446   C.3       4 RES4   0.0000
    56 C27     14.1222   6.0262  -5.8542   C.3       4 RES4   0.0000
    57 C1       3.7089  13.0634  26.1036   C.2       5 RES5   0.0000
    58 F1       3.7089  16.7405  26.1036   F         5 RES5   0.0000
    59 C2       3.7089  15.4263  26.1036   C.2       5 RES5   0.0000
    60 C3       4.5867  15.0457  25.5189   C.2       5 RES5   0.0000
    61 C4       4.7074  13.4400  25.3867   C.3       5 RES5   0.0000
    62 C3A      2.8312  15.0457  26.6884   C.2       5 RES5   0.0000
    63 C4A      2.7105  13.4400  26.8206   C.3       5 RES5   0.0000
@<TRIPOS>BOND
     1     2     3   un
     2     3     6   un
     3     4     2   un
     4     5     6   un
     5     6     8   un
     6     7     8   un
     7     8    11   un
     8     9    10   un
     9    10     4   un
    10    11     2   un
    11    12     2   un
    12    13    14   un
    13    14    10   un
    14    15     2   un
    15    16    17   un
    16    17    15   un
    17    18    19   un
    18    19    17   un
    19    20     2   un
    20    12    14   un
    21    19    20   un
    22    21    30    1
    23    22    31    1
    24    23    32    1
    25    24    29    1
    26    25    29    1
    27    26    30    1
    28    27    32    1
    29    28    34    1
    30    29    34    2
    31    30    32    2
    32    31    24    1
    33    33    21    1
    34    34    22    1
    35    35    26    1
    36    36    27    1
    37    37    25    1
    38    38    28    1
    39    23    33    1
    40    31    33    2
    41    35    36    1
    42    37    38    1
    43    39    47    1
    44    40    49    1
    45    41    48    1
    46    42    50    1
    47    43    48    1
    48    44    47    1
    49    45    49    1
    50    46    51    1
    51    47    51    2
    52    48    49    2
    53    50    39    1
    54    51    42    1
    55    52    40    1
    56    53    45    1
    57    54    46    1
    58    55    43    1
    59    56    44    1
    60    41    52    1
    61    50    52    2
    62    53    55    1
    63    54    56    1
    64    57    61    1
    65    58    59    1
    66    59    60   un
    67    60    61    1
    68    62    59   un
    69    63    57    1
    70    62    63    1
@<TRIPOS>SUBSTRUCTURE
     1 RES1        1 GROUP             0 ****  ****    0  
     2 RES2        2 GROUP             0 ****  ****    0  
     3 RES3       21 GROUP             0 ****  ****    0  
     4 RES4       39 GROUP             0 ****  ****    0  
     5 RES5       57 GROUP             0 ****  ****    0  
@<TRIPOS>CRYSIN
   10.3093   19.8230   34.8582   90.0000   93.1700   90.0000    15     1
