@<TRIPOS>MOLECULE
OVEPAH
   104   120     2     0     0
SMALL
USER_CHARGES
****
Generated from the CSD

@<TRIPOS>ATOM
     1 Fe1     -1.6929   3.5089   8.9679   Fe        1 RES1   2.0000
     2 N1      -2.6737   4.9696  10.1993   N.2       1 RES1   0.0000
     3 N2      -2.7423   4.6407  11.5277   N.pl3     1 RES1   0.0000
     4 N3      -1.3421   2.9501  10.9935   N.ar      1 RES1   0.0000
     5 N4       0.1453   1.4152  10.1990   N.pl3     1 RES1   0.0000
     6 N5      -0.0423   2.0496   9.0052   N.2       1 RES1   0.0000
     7 C1      -3.2189   6.1798  10.1122   C.2       1 RES1   0.0000
     8 H1      -3.3125   6.6736   9.3051   H         1 RES1   0.0000
     9 C2      -3.6370   6.6309  11.3781   C.2       1 RES1   0.0000
    10 H2      -4.0644   7.4553  11.5757   H         1 RES1   0.0000
    11 C3      -3.3086   5.6492  12.2598   C.2       1 RES1   0.0000
    12 H3      -3.4437   5.6618  13.2007   H         1 RES1   0.0000
    13 C4      -2.0756   3.4816  11.9682   C.ar      1 RES1   0.0000
    14 C5      -2.1798   2.9535  13.2359   C.ar      1 RES1   0.0000
    15 H4      -2.7319   3.3636  13.8930   H         1 RES1   0.0000
    16 C6      -1.4535   1.8027  13.5296   C.ar      1 RES1   0.0000
    17 C7      -0.6551   1.2319  12.5331   C.ar      1 RES1   0.0000
    18 H5      -0.1444   0.4478  12.6985   H         1 RES1   0.0000
    19 C8      -0.6359   1.8496  11.2977   C.ar      1 RES1   0.0000
    20 C9       1.1422   0.4929  10.1366   C.2       1 RES1   0.0000
    21 H6       1.4481  -0.0670  10.8404   H         1 RES1   0.0000
    22 C10      1.6175   0.5356   8.8495   C.2       1 RES1   0.0000
    23 H7       2.3249   0.0159   8.4872   H         1 RES1   0.0000
    24 C11      0.8535   1.4972   8.1762   C.2       1 RES1   0.0000
    25 H8       0.9565   1.7257   7.2604   H         1 RES1   0.0000
    26 C12     -1.5243   1.1449  14.8537   C.ar      1 RES1   0.0000
    27 C13     -1.7158  -0.2385  14.8712   C.ar      1 RES1   0.0000
    28 H9      -1.7704  -0.7172  14.0509   H         1 RES1   0.0000
    29 C14     -1.8262  -0.9198  16.0751   C.ar      1 RES1   0.0000
    30 H10     -1.9658  -1.8596  16.0668   H         1 RES1   0.0000
    31 C15     -1.7344  -0.2519  17.2936   C.ar      1 RES1   0.0000
    32 C16     -1.8512  -0.9390  18.5556   C.ar      1 RES1   0.0000
    33 H11     -2.0099  -1.8755  18.5599   H         1 RES1   0.0000
    34 C17     -1.7385  -0.2912  19.7200   C.ar      1 RES1   0.0000
    35 H12     -1.8206  -0.7775  20.5328   H         1 RES1   0.0000
    36 C18     -1.4987   1.1206  19.7684   C.ar      1 RES1   0.0000
    37 C19     -1.3637   1.8170  20.9748   C.ar      1 RES1   0.0000
    38 H13     -1.4221   1.3474  21.7991   H         1 RES1   0.0000
    39 C20     -1.1448   3.1912  20.9812   C.ar      1 RES1   0.0000
    40 H14     -1.0887   3.6532  21.8098   H         1 RES1   0.0000
    41 C21     -1.0076   3.8875  19.8043   C.ar      1 RES1   0.0000
    42 H15     -0.8363   4.8215  19.8297   H         1 RES1   0.0000
    43 C22     -1.1182   3.2355  18.5567   C.ar      1 RES1   0.0000
    44 C23     -0.9201   3.8950  17.3141   C.ar      1 RES1   0.0000
    45 H16     -0.6819   4.8148  17.3152   H         1 RES1   0.0000
    46 C24     -1.0584   3.2615  16.1328   C.ar      1 RES1   0.0000
    47 H17     -0.9322   3.7502  15.3279   H         1 RES1   0.0000
    48 C25     -1.3917   1.8621  16.0571   C.ar      1 RES1   0.0000
    49 C26     -1.5070   1.1491  17.3033   C.ar      1 RES1   0.0000
    50 C27     -1.3817   1.8370  18.5373   C.ar      1 RES1   0.0000
    51 N1A     -0.7120   4.9696   7.7364   N.2       1 RES1   0.0000
    52 N2A     -0.6434   4.6407   6.4081   N.pl3     1 RES1   0.0000
    53 N3A     -2.0437   2.9501   6.9422   N.ar      1 RES1   0.0000
    54 N4A     -3.5310   1.4152   7.7368   N.pl3     1 RES1   0.0000
    55 N5A     -3.3435   2.0496   8.9306   N.2       1 RES1   0.0000
    56 C1A     -0.1668   6.1798   7.8236   C.2       1 RES1   0.0000
    57 H1A     -0.0733   6.6736   8.6307   H         1 RES1   0.0000
    58 C2A      0.2513   6.6309   6.5577   C.2       1 RES1   0.0000
    59 H2A      0.6787   7.4553   6.3600   H         1 RES1   0.0000
    60 C3A     -0.0772   5.6492   5.6759   C.2       1 RES1   0.0000
    61 H3A      0.0579   5.6618   4.7350   H         1 RES1   0.0000
    62 C4A     -1.3102   3.4816   5.9676   C.ar      1 RES1   0.0000
    63 C5A     -1.2060   2.9535   4.6999   C.ar      1 RES1   0.0000
    64 H4A     -0.6539   3.3636   4.0427   H         1 RES1   0.0000
    65 C6A     -1.9323   1.8027   4.4061   C.ar      1 RES1   0.0000
    66 C7A     -2.7306   1.2319   5.4026   C.ar      1 RES1   0.0000
    67 H5A     -3.2414   0.4478   5.2372   H         1 RES1   0.0000
    68 C8A     -2.7498   1.8496   6.6380   C.ar      1 RES1   0.0000
    69 C9A     -4.5280   0.4929   7.7992   C.2       1 RES1   0.0000
    70 H6A     -4.8338  -0.0670   7.0954   H         1 RES1   0.0000
    71 C10A    -5.0032   0.5356   9.0862   C.2       1 RES1   0.0000
    72 H7A     -5.7107   0.0159   9.4485   H         1 RES1   0.0000
    73 C11A    -4.2392   1.4972   9.7595   C.2       1 RES1   0.0000
    74 H8A     -4.3423   1.7257  10.6753   H         1 RES1   0.0000
    75 C12A    -1.8615   1.1449   3.0821   C.ar      1 RES1   0.0000
    76 C13A    -1.6699  -0.2385   3.0645   C.ar      1 RES1   0.0000
    77 H9A     -1.6153  -0.7172   3.8849   H         1 RES1   0.0000
    78 C14A    -1.5596  -0.9198   1.8607   C.ar      1 RES1   0.0000
    79 H10A    -1.4199  -1.8596   1.8689   H         1 RES1   0.0000
    80 C15A    -1.6514  -0.2519   0.6421   C.ar      1 RES1   0.0000
    81 C16A    -1.5346  -0.9390  -0.6199   C.ar      1 RES1   0.0000
    82 H11A    -1.3759  -1.8755  -0.6242   H         1 RES1   0.0000
    83 C17A    -1.6472  -0.2912  -1.7842   C.ar      1 RES1   0.0000
    84 H12A    -1.5651  -0.7775  -2.5971   H         1 RES1   0.0000
    85 C18A    -1.8870   1.1206  -1.8327   C.ar      1 RES1   0.0000
    86 C19A    -2.0221   1.8170  -3.0390   C.ar      1 RES1   0.0000
    87 H13A    -1.9636   1.3474  -3.8634   H         1 RES1   0.0000
    88 C20A    -2.2410   3.1912  -3.0455   C.ar      1 RES1   0.0000
    89 H14A    -2.2971   3.6532  -3.8741   H         1 RES1   0.0000
    90 C21A    -2.3782   3.8875  -1.8685   C.ar      1 RES1   0.0000
    91 H15A    -2.5494   4.8215  -1.8940   H         1 RES1   0.0000
    92 C22A    -2.2676   3.2355  -0.6209   C.ar      1 RES1   0.0000
    93 C23A    -2.4657   3.8950   0.6217   C.ar      1 RES1   0.0000
    94 H16A    -2.7038   4.8148   0.6206   H         1 RES1   0.0000
    95 C24A    -2.3274   3.2615   1.8029   C.ar      1 RES1   0.0000
    96 H17A    -2.4535   3.7502   2.6079   H         1 RES1   0.0000
    97 C25A    -1.9941   1.8621   1.8786   C.ar      1 RES1   0.0000
    98 C26A    -1.8787   1.1491   0.6324   C.ar      1 RES1   0.0000
    99 C27A    -2.0041   1.8370  -0.6016   C.ar      1 RES1   0.0000
   100 Cl1      0.8047   5.7006  12.4391   Cl        2 RES2   0.0000
   101 O1       1.4532   4.4583  12.1723   O.3       2 RES2  -1.0000
   102 O2       1.7926   6.7272  12.6583   O.2       2 RES2   0.0000
   103 O3      -0.0372   5.5605  13.5781   O.2       2 RES2   0.0000
   104 O4       0.0219   6.0719  11.3027   O.2       2 RES2   0.0000
@<TRIPOS>BOND
     1     1     2    1
     2     2     3    1
     3     3    11    1
     4     4     1    1
     5     5     6    1
     6     6     1    1
     7     7     2    2
     8     8     7    1
     9     9     7    1
    10    10     9    1
    11    11     9    2
    12    12    11    1
    13    13     3    1
    14    14    13   ar
    15    15    14    1
    16    16    14   ar
    17    17    16   ar
    18    18    17    1
    19    19     4   ar
    20    20     5    1
    21    21    20    1
    22    22    20    2
    23    23    22    1
    24    24     6    2
    25    25    24    1
    26    26    16    1
    27    27    26   ar
    28    28    27    1
    29    29    27   ar
    30    30    29    1
    31    31    29   ar
    32    32    31   ar
    33    33    32    1
    34    34    32   ar
    35    35    34    1
    36    36    34   ar
    37    37    36   ar
    38    38    37    1
    39    39    37   ar
    40    40    39    1
    41    41    39   ar
    42    42    41    1
    43    43    41   ar
    44    44    43   ar
    45    45    44    1
    46    46    44   ar
    47    47    46    1
    48    48    26   ar
    49    49    31   ar
    50    50    36   ar
    51    51     1    1
    52    52    51    1
    53    53     1    1
    54    54    55    1
    55    55     1    1
    56    56    51    2
    57    57    56    1
    58    58    56    1
    59    59    58    1
    60    60    52    1
    61    61    60    1
    62    62    52    1
    63    63    62   ar
    64    64    63    1
    65    65    63   ar
    66    66    65   ar
    67    67    66    1
    68    68    53   ar
    69    69    54    1
    70    70    69    1
    71    71    69    2
    72    72    71    1
    73    73    55    2
    74    74    73    1
    75    75    65    1
    76    76    75   ar
    77    77    76    1
    78    78    76   ar
    79    79    78    1
    80    80    78   ar
    81    81    80   ar
    82    82    81    1
    83    83    81   ar
    84    84    83    1
    85    85    83   ar
    86    86    85   ar
    87    87    86    1
    88    88    86   ar
    89    89    88    1
    90    90    88   ar
    91    91    90    1
    92    92    90   ar
    93    93    92   ar
    94    94    93    1
    95    95    93   ar
    96    96    95    1
    97    97    75   ar
    98    98    80   ar
    99    99    85   ar
   100     4    13   ar
   101     5    19    1
   102    17    19   ar
   103    22    24    1
   104    43    50   ar
   105    46    48   ar
   106    48    49   ar
   107    49    50   ar
   108    53    62   ar
   109    54    68    1
   110    58    60    2
   111    66    68   ar
   112    71    73    1
   113    92    99   ar
   114    95    97   ar
   115    97    98   ar
   116    98    99   ar
   117   100   101    1
   118   102   100    2
   119   103   100    2
   120   104   100    2
@<TRIPOS>SUBSTRUCTURE
     1 RES1        1 GROUP             0 ****  ****    0  
     2 RES2      100 GROUP             0 ****  ****    0  
@<TRIPOS>CRYSIN
   15.1800    8.3692   36.5050   90.0000  100.6900   90.0000    15     1
