@<TRIPOS>MOLECULE
OVOLUH
    87    95     1     0     0
SMALL
NO_CHARGES
****
Generated from the CSD

@<TRIPOS>ATOM
     1 C1       9.3737  20.7574   6.1530   C.ar      1 RES1   0.0000
     2 C2       8.4381  19.7909   5.6892   C.ar      1 RES1   0.0000
     3 C3       7.1791  19.8455   6.2769   C.ar      1 RES1   0.0000
     4 C4       6.7755  20.7433   7.2409   C.ar      1 RES1   0.0000
     5 H1       5.9155  20.7234   7.5938   H         1 RES1   0.0000
     6 C5       7.7053  21.6752   7.6595   C.ar      1 RES1   0.0000
     7 H2       7.4746  22.3058   8.3026   H         1 RES1   0.0000
     8 C6       8.9710  21.6682   7.1257   C.ar      1 RES1   0.0000
     9 H3       9.5853  22.2989   7.4276   H         1 RES1   0.0000
    10 C7      10.8206  20.8176   5.7490   C.ar      1 RES1   0.0000
    11 C8      11.2906  21.1165   4.4525   C.ar      1 RES1   0.0000
    12 C9      12.6995  21.2361   4.3095   C.ar      1 RES1   0.0000
    13 C10     13.5957  21.0466   5.3202   C.ar      1 RES1   0.0000
    14 H4      14.5103  21.1028   5.1613   H         1 RES1   0.0000
    15 C11     13.1177  20.7716   6.5788   C.ar      1 RES1   0.0000
    16 H5      13.7081  20.6517   7.2876   H         1 RES1   0.0000
    17 C12     11.7482  20.6725   6.7874   C.ar      1 RES1   0.0000
    18 H6      11.4367  20.5037   7.6464   H         1 RES1   0.0000
    19 C13      8.7079  18.7302   4.6931   C.2       1 RES1   0.0000
    20 H7       8.0442  18.0121   4.6333   H         1 RES1   0.0000
    21 C14     10.2963  17.0546   4.0354   C.ar      1 RES1   0.0000
    22 C15      9.3893  16.0582   3.7393   C.ar      1 RES1   0.0000
    23 H8       8.4802  16.2447   3.7904   H         1 RES1   0.0000
    24 C16      9.8016  14.7697   3.3616   C.ar      1 RES1   0.0000
    25 H9       9.1598  14.1302   3.1516   H         1 RES1   0.0000
    26 C17     11.1219  14.4370   3.2960   C.ar      1 RES1   0.0000
    27 H10     11.3809  13.5889   3.0174   H         1 RES1   0.0000
    28 C18     12.1010  15.4079   3.6606   C.ar      1 RES1   0.0000
    29 C19     13.4875  15.0764   3.6999   C.ar      1 RES1   0.0000
    30 H11     13.7722  14.2436   3.3995   H         1 RES1   0.0000
    31 C20     14.3924  15.9694   4.1739   C.ar      1 RES1   0.0000
    32 H12     15.2943  15.7427   4.1929   H         1 RES1   0.0000
    33 C21     13.9832  17.2371   4.6377   C.ar      1 RES1   0.0000
    34 H13     14.6054  17.8294   4.9921   H         1 RES1   0.0000
    35 C22     12.6679  17.5842   4.5619   C.ar      1 RES1   0.0000
    36 H14     12.4078  18.4309   4.8419   H         1 RES1   0.0000
    37 C23     11.6946  16.6981   4.0704   C.ar      1 RES1   0.0000
    38 C24     10.4558  21.3437   3.2522   C.2       1 RES1   0.0000
    39 H15     10.8908  21.7737   2.4880   H         1 RES1   0.0000
    40 C25      8.4426  22.3532   2.4443   C.ar      1 RES1   0.0000
    41 C26      8.8408  22.5887   1.1448   C.ar      1 RES1   0.0000
    42 H16      9.6631  22.2642   0.8561   H         1 RES1   0.0000
    43 C27      8.0393  23.3038   0.2538   C.ar      1 RES1   0.0000
    44 H17      8.3225  23.4139  -0.6257   H         1 RES1   0.0000
    45 C28      6.8472  23.8456   0.6432   C.ar      1 RES1   0.0000
    46 H18      6.3232  24.3161   0.0365   H         1 RES1   0.0000
    47 C29      6.4221  23.6844   1.9761   C.ar      1 RES1   0.0000
    48 C30      5.1909  24.2419   2.4574   C.ar      1 RES1   0.0000
    49 H19      4.6319  24.6863   1.8624   H         1 RES1   0.0000
    50 C31      4.8244  24.1399   3.7510   C.ar      1 RES1   0.0000
    51 H20      4.0213  24.5105   4.0368   H         1 RES1   0.0000
    52 C32      5.6511  23.4745   4.6610   C.ar      1 RES1   0.0000
    53 H21      5.4025  23.4255   5.5565   H         1 RES1   0.0000
    54 C33      6.8149  22.8994   4.2541   C.ar      1 RES1   0.0000
    55 H22      7.3493  22.4539   4.8725   H         1 RES1   0.0000
    56 C34      7.2190  22.9718   2.9022   C.ar      1 RES1   0.0000
    57 C35      5.7629  19.9010   2.5886   C.3       1 RES1   0.0000
    58 H23      4.9803  19.5737   2.1395   H         1 RES1   0.0000
    59 H24      5.8095  20.8553   2.4939   H         1 RES1   0.0000
    60 H25      5.7167  19.6732   3.5206   H         1 RES1   0.0000
    61 C36      7.0305  19.6061   0.0758   C.3       1 RES1   0.0000
    62 H26      6.1327  19.4071  -0.1983   H         1 RES1   0.0000
    63 H27      7.6487  19.1064  -0.4638   H         1 RES1   0.0000
    64 H28      7.1987  20.5453  -0.0321   H         1 RES1   0.0000
    65 C37      6.7231  17.3951   1.8128   C.3       1 RES1   0.0000
    66 H29      6.5116  17.1053   2.7039   H         1 RES1   0.0000
    67 H30      7.4331  16.8554   1.4599   H         1 RES1   0.0000
    68 H31      5.9460  17.3065   1.2557   H         1 RES1   0.0000
    69 C38     10.7427  19.9679  -0.3631   C.3       1 RES1   0.0000
    70 H32     11.1478  19.5066  -1.1011   H         1 RES1   0.0000
    71 H33     11.2307  20.7743  -0.1852   H         1 RES1   0.0000
    72 H34      9.8337  20.1844  -0.5819   H         1 RES1   0.0000
    73 C39     10.3708  17.2681   0.4259   C.3       1 RES1   0.0000
    74 H35      9.4945  17.2996   0.0350   H         1 RES1   0.0000
    75 H36     10.3866  16.6056   1.1215   H         1 RES1   0.0000
    76 H37     11.0149  17.0405  -0.2479   H         1 RES1   0.0000
    77 C40     12.5769  18.7617   1.3534   C.3       1 RES1   0.0000
    78 H38     12.9961  18.6044   0.5031   H         1 RES1   0.0000
    79 H39     12.7736  18.0330   1.9455   H         1 RES1   0.0000
    80 H40     12.9115  19.5783   1.7282   H         1 RES1   0.0000
    81 F1       6.2584  18.9033   5.8896   F         1 RES1   0.0000
    82 F2      13.1794  21.5366   3.0674   F         1 RES1   0.0000
    83 Fe1      9.3507  19.5758   2.8554   Fe        1 RES1   0.0000
    84 N1       9.9909  18.3962   4.3883   N.2       1 RES1   0.0000
    85 N2       9.1198  21.5595   3.4010   N.2       1 RES1   0.0000
    86 P1       7.2486  19.1432   1.8520   P.3       1 RES1   0.0000
    87 P2      10.7763  18.8903   1.1262   P.3       1 RES1   0.0000
@<TRIPOS>BOND
     1     1     2   ar
     2     2     3   ar
     3     3     4   ar
     4     4     5    1
     5     6     4   ar
     6     7     6    1
     7     8     1   ar
     8     9     8    1
     9    10     1    1
    10    11    10   ar
    11    12    11   ar
    12    13    12   ar
    13    14    13    1
    14    15    13   ar
    15    16    15    1
    16    17    10   ar
    17    18    17    1
    18    19     2    1
    19    20    19    1
    20    21    22   ar
    21    22    23    1
    22    24    22   ar
    23    25    24    1
    24    26    24   ar
    25    27    26    1
    26    28    26   ar
    27    29    28   ar
    28    30    29    1
    29    31    29   ar
    30    32    31    1
    31    33    31   ar
    32    34    33    1
    33    35    33   ar
    34    36    35    1
    35    37    21   ar
    36    38    11    1
    37    39    38    1
    38    40    41   ar
    39    41    42    1
    40    43    41   ar
    41    44    43    1
    42    45    43   ar
    43    46    45    1
    44    47    45   ar
    45    48    47   ar
    46    49    48    1
    47    50    48   ar
    48    51    50    1
    49    52    50   ar
    50    53    52    1
    51    54    52   ar
    52    55    54    1
    53    56    40   ar
    54    57    58    1
    55    59    57    1
    56    60    57    1
    57    61    62    1
    58    63    61    1
    59    64    61    1
    60    65    66    1
    61    67    65    1
    62    68    65    1
    63    69    70    1
    64    71    69    1
    65    72    69    1
    66    73    74    1
    67    75    73    1
    68    76    73    1
    69    77    78    1
    70    79    77    1
    71    80    77    1
    72    81     3    1
    73    82    12    1
    74    83    19   un
    75    84    19    2
    76    85    38    2
    77    86    57    1
    78    87    69    1
    79     6     8   ar
    80    15    17   ar
    81    21    84    1
    82    28    37   ar
    83    35    37   ar
    84    38    83   un
    85    40    85    1
    86    47    56   ar
    87    54    56   ar
    88    61    86    1
    89    65    86    1
    90    73    87    1
    91    77    87    1
    92    83    84   un
    93    83    85   un
    94    83    86    1
    95    83    87    1
@<TRIPOS>SUBSTRUCTURE
     1 RES1        1 GROUP             0 ****  ****    0  
@<TRIPOS>CRYSIN
   10.5640   23.1340   14.5850   90.0000   90.6960   90.0000    14     1
