@<TRIPOS>MOLECULE
OVOMAO
    75    80     1     0     0
SMALL
NO_CHARGES
****
Generated from the CSD

@<TRIPOS>ATOM
     1 Fe1      5.0464   7.2822   4.3592   Fe        1 RES1   0.0000
     2 P1       6.4202   8.7175   5.5757   P.3       1 RES1   0.0000
     3 P2       6.0017   7.2547   2.2477   P.3       1 RES1   0.0000
     4 F1       5.1009   5.6384   7.4694   F         1 RES1   0.0000
     5 F2       2.0834   7.1735   2.4406   F         1 RES1   0.0000
     6 N1       6.0484   5.5751   4.8279   N.2       1 RES1   0.0000
     7 N2       3.7933   8.8290   4.0072   N.2       1 RES1   0.0000
     8 F3       0.8595   9.0063   6.9502   F         1 RES1   0.0000
     9 F4       3.3775   5.9293   9.4269   F         1 RES1   0.0000
    10 F5       0.6537   5.0383   1.8832   F         1 RES1   0.0000
    11 F6       3.6245   2.2631   4.2085   F         1 RES1   0.0000
    12 C1       3.7509   5.9281   3.6415   C.ar      1 RES1   0.0000
    13 F7       1.3462   2.5705   2.7369   F         1 RES1   0.0000
    14 C2       3.9692   7.2227   6.0566   C.ar      1 RES1   0.0000
    15 C3       7.6360   4.5049   6.3919   C.ar      1 RES1   0.0000
    16 H1       6.9391   4.0270   6.7800   H         1 RES1   0.0000
    17 F8       1.1958   7.5217   9.2101   F         1 RES1   0.0000
    18 C4       4.0583   6.5065   7.2377   C.ar      1 RES1   0.0000
    19 C5       7.3813   5.3903   5.3494   C.ar      1 RES1   0.0000
    20 C6       2.8200   8.9455   4.8765   C.2       1 RES1   0.0000
    21 H2       2.1361   9.5655   4.7562   H         1 RES1   0.0000
    22 C7       3.1795   6.6164   8.2852   C.ar      1 RES1   0.0000
    23 C8       7.0967   8.1108   7.1614   C.3       1 RES1   0.0000
    24 H3       7.6422   8.7939   7.5580   H         1 RES1   0.0000
    25 H4       7.6289   7.3279   7.0038   H         1 RES1   0.0000
    26 H5       6.3740   7.8929   7.7546   H         1 RES1   0.0000
    27 C9       2.5640   5.9873   2.9188   C.ar      1 RES1   0.0000
    28 C10      5.3667   4.4738   4.6613   C.2       1 RES1   0.0000
    29 H6       5.6989   3.6482   4.9325   H         1 RES1   0.0000
    30 C11      2.1329   3.6333   3.0290   C.ar      1 RES1   0.0000
    31 C12      3.7822   9.7994   2.9391   C.ar      1 RES1   0.0000
    32 C13      2.8482   8.0878   6.0122   C.ar      1 RES1   0.0000
    33 C14      5.5323  10.1934   6.2190   C.3       1 RES1   0.0000
    34 H7       6.1442  10.7459   6.7105   H         1 RES1   0.0000
    35 H8       4.8209   9.9108   6.7987   H         1 RES1   0.0000
    36 H9       5.1679  10.6932   5.4850   H         1 RES1   0.0000
    37 C15      8.4319   6.0922   4.7850   C.ar      1 RES1   0.0000
    38 H10      8.2703   6.6794   4.0816   H         1 RES1   0.0000
    39 C16      2.0843   7.4496   8.1937   C.ar      1 RES1   0.0000
    40 C17      3.2725   3.4986   3.7612   C.ar      1 RES1   0.0000
    41 C18      2.6392  10.0287   2.1832   C.ar      1 RES1   0.0000
    42 H11      1.8577   9.5540   2.3493   H         1 RES1   0.0000
    43 C19      1.9223   8.1730   7.0546   C.ar      1 RES1   0.0000
    44 C20      1.7873   4.8914   2.6069   C.ar      1 RES1   0.0000
    45 C21      4.0802   4.6006   4.0409   C.ar      1 RES1   0.0000
    46 C22      8.9360   4.3390   6.8444   C.ar      1 RES1   0.0000
    47 H12      9.1092   3.7491   7.5428   H         1 RES1   0.0000
    48 C23      7.9309   9.5474   4.9409   C.3       1 RES1   0.0000
    49 H13      8.3160  10.0852   5.6376   H         1 RES1   0.0000
    50 H14      7.7001  10.1054   4.1951   H         1 RES1   0.0000
    51 H15      8.5661   8.8849   4.6613   H         1 RES1   0.0000
    52 C24      4.8977   7.5665   0.8119   C.3       1 RES1   0.0000
    53 H16      5.4090   7.5275   0.0000   H         1 RES1   0.0000
    54 H17      4.4987   8.4351   0.8967   H         1 RES1   0.0000
    55 H18      4.2078   6.8985   0.7865   H         1 RES1   0.0000
    56 C25      4.9233  10.5504   2.6951   C.ar      1 RES1   0.0000
    57 H19      5.6857  10.4143   3.2103   H         1 RES1   0.0000
    58 C26      6.6152   5.6089   1.7476   C.3       1 RES1   0.0000
    59 H20      6.9966   5.6631   0.8678   H         1 RES1   0.0000
    60 H21      5.8872   4.9835   1.7425   H         1 RES1   0.0000
    61 H22      7.2859   5.3143   2.3696   H         1 RES1   0.0000
    62 C27      9.9677   5.0362   6.2749   C.ar      1 RES1   0.0000
    63 H23     10.8380   4.9043   6.5749   H         1 RES1   0.0000
    64 C28      7.4320   8.2861   1.7187   C.3       1 RES1   0.0000
    65 H24      7.6427   8.0948   0.8017   H         1 RES1   0.0000
    66 H25      8.1911   8.0877   2.2713   H         1 RES1   0.0000
    67 H26      7.2063   9.2156   1.8086   H         1 RES1   0.0000
    68 C29      3.8220  11.7037   0.9238   C.ar      1 RES1   0.0000
    69 H27      3.8392  12.3317   0.2373   H         1 RES1   0.0000
    70 C30      9.7217   5.9260   5.2613   C.ar      1 RES1   0.0000
    71 H28     10.4207   6.4180   4.8952   H         1 RES1   0.0000
    72 C31      2.6883  10.9842   1.1696   C.ar      1 RES1   0.0000
    73 H29      1.9319  11.1337   0.6492   H         1 RES1   0.0000
    74 C32      4.9300  11.4934   1.6967   C.ar      1 RES1   0.0000
    75 H30      5.6984  11.9955   1.5458   H         1 RES1   0.0000
@<TRIPOS>BOND
     1     1     2    1
     2     2    23    1
     3     3     1    1
     4     4    18    1
     5     5    27    1
     6     6     1    1
     7     7     1    1
     8     8    43    1
     9     9    22    1
    10    10    44    1
    11    11    40    1
    12    12     1    1
    13    13    30    1
    14    14     1    1
    15    15    16    1
    16    17    39    1
    17    18    14   ar
    18    19     6    1
    19    20     7    2
    20    21    20    1
    21    22    18   ar
    22    23    24    1
    23    25    23    1
    24    26    23    1
    25    27    12   ar
    26    28     6    2
    27    29    28    1
    28    30    40   ar
    29    31     7    1
    30    32    14   ar
    31    33     2    1
    32    34    33    1
    33    35    33    1
    34    36    33    1
    35    37    19   ar
    36    38    37    1
    37    39    22   ar
    38    40    45   ar
    39    41    31   ar
    40    42    41    1
    41    43    32   ar
    42    44    27   ar
    43    45    12   ar
    44    46    15   ar
    45    47    46    1
    46    48     2    1
    47    49    48    1
    48    50    48    1
    49    51    48    1
    50    52     3    1
    51    53    52    1
    52    54    52    1
    53    55    52    1
    54    56    31   ar
    55    57    56    1
    56    58     3    1
    57    59    58    1
    58    60    58    1
    59    61    58    1
    60    62    46   ar
    61    63    62    1
    62    64     3    1
    63    65    64    1
    64    66    64    1
    65    67    64    1
    66    68    69    1
    67    70    37   ar
    68    71    70    1
    69    72    41   ar
    70    73    72    1
    71    74    56   ar
    72    75    74    1
    73    15    19   ar
    74    20    32    1
    75    28    45    1
    76    30    44   ar
    77    39    43   ar
    78    62    70   ar
    79    68    72   ar
    80    68    74   ar
@<TRIPOS>SUBSTRUCTURE
     1 RES1        1 GROUP             0 ****  ****    0  
@<TRIPOS>CRYSIN
    9.6956    9.9219   16.9550   90.2430   91.2420  106.0880     2     1
