@<TRIPOS>MOLECULE
OVORAV01
    81    87     4     0     0
SMALL
USER_CHARGES
****
Generated from the CSD

@<TRIPOS>ATOM
     1 Fe1      9.3572  10.7655  12.3554   Fe        1 RES1   2.0000
     2 N1       9.4998   9.0474  11.5535   N.ar      1 RES1   0.0000
     3 C1       9.0545   8.8301  10.3236   C.ar      1 RES1   0.0000
     4 C2       9.0212   7.5973   9.7247   C.ar      1 RES1   0.0000
     5 H1       8.7157   7.4870   8.8328   H         1 RES1   0.0000
     6 C3       9.4595   6.5060  10.4923   C.ar      1 RES1   0.0000
     7 C4       9.8930   6.6993  11.8167   C.ar      1 RES1   0.0000
     8 H2      10.1687   5.9692  12.3583   H         1 RES1   0.0000
     9 C5       9.8998   7.9849  12.2925   C.ar      1 RES1   0.0000
    10 N2       8.5884  10.0280   9.7416   N.pl3     1 RES1   0.0000
    11 N3       8.6540  11.1560  10.5379   N.2       1 RES1   0.0000
    12 C6       8.1403  12.1099   9.8175   C.2       1 RES1   0.0000
    13 H3       8.0513  13.0105  10.1084   H         1 RES1   0.0000
    14 C7       7.7327  11.6376   8.5487   C.2       1 RES1   0.0000
    15 H4       7.3346  12.1385   7.8461   H         1 RES1   0.0000
    16 C8       8.0341  10.2993   8.5504   C.2       1 RES1   0.0000
    17 H5       7.8809   9.6832   7.8447   H         1 RES1   0.0000
    18 N4      10.2482   8.4103  13.5815   N.pl3     1 RES1   0.0000
    19 N5      10.1067   9.7448  13.8565   N.2       1 RES1   0.0000
    20 C9      10.3828   9.9021  15.1218   C.2       1 RES1   0.0000
    21 H6      10.3733  10.7308  15.5872   H         1 RES1   0.0000
    22 C10     10.6932   8.6655  15.6870   C.2       1 RES1   0.0000
    23 H7      10.9090   8.5034  16.5972   H         1 RES1   0.0000
    24 C11     10.6310   7.7285  14.6950   C.2       1 RES1   0.0000
    25 H8      10.8152   6.7997  14.7669   H         1 RES1   0.0000
    26 N6       9.3744   5.2682   9.8816   N.am      1 RES1   0.0000
    27 H9       9.0099   5.2604   9.0805   H         1 RES1   0.0000
    28 C12      9.7879   4.0413  10.3675   C.2       1 RES1   0.0000
    29 O1      10.3678   3.9225  11.4152   O.2       1 RES1   0.0000
    30 C13      9.4145   2.8910   9.4699   C.3       1 RES1   0.0000
    31 H10      9.9885   2.1223   9.6690   H         1 RES1   0.0000
    32 H11      9.5338   3.1553   8.5344   H         1 RES1   0.0000
    33 H12      8.4775   2.6478   9.6243   H         1 RES1   0.0000
    34 N7       9.1298  12.4010  13.2896   N.ar      1 RES1   0.0000
    35 C14     10.1074  13.3216  13.3115   C.ar      1 RES1   0.0000
    36 C15     10.0211  14.5114  13.9999   C.ar      1 RES1   0.0000
    37 H13     10.7226  15.1517  13.9803   H         1 RES1   0.0000
    38 C16      8.8459  14.7285  14.7287   C.ar      1 RES1   0.0000
    39 C17      7.8339  13.7525  14.7726   C.ar      1 RES1   0.0000
    40 H14      7.0475  13.8734  15.2914   H         1 RES1   0.0000
    41 C18      8.0356  12.6210  14.0336   C.ar      1 RES1   0.0000
    42 N8      11.2011  12.8820  12.5608   N.pl3     1 RES1   0.0000
    43 N9      11.0977  11.6392  11.9601   N.2       1 RES1   0.0000
    44 C19     12.2443  11.4558  11.3359   C.2       1 RES1   0.0000
    45 H15     12.4617  10.6881  10.8208   H         1 RES1   0.0000
    46 C20     13.1087  12.5574  11.5384   C.2       1 RES1   0.0000
    47 H16     13.9926  12.6599  11.2049   H         1 RES1   0.0000
    48 C21     12.4175  13.4406  12.3111   C.2       1 RES1   0.0000
    49 H17     12.7248  14.2862  12.6153   H         1 RES1   0.0000
    50 N10      7.1633  11.5097  13.9324   N.pl3     1 RES1   0.0000
    51 N11      7.5651  10.4889  13.1057   N.2       1 RES1   0.0000
    52 C22      6.6179   9.5729  13.2137   C.2       1 RES1   0.0000
    53 H18      6.6104   8.7433  12.7506   H         1 RES1   0.0000
    54 C23      5.6309   9.9946  14.1028   C.2       1 RES1   0.0000
    55 H19      4.8596   9.5050  14.3621   H         1 RES1   0.0000
    56 C24      5.9779  11.2364  14.5280   C.2       1 RES1   0.0000
    57 H20      5.4910  11.7968  15.1214   H         1 RES1   0.0000
    58 N12      8.6112  15.8921  15.4576   N.am      1 RES1   0.0000
    59 H21      8.0149  15.8428  16.1024   H         1 RES1   0.0000
    60 C25      9.2220  17.1163  15.2686   C.2       1 RES1   0.0000
    61 O2      10.0807  17.3024  14.4183   O.2       1 RES1   0.0000
    62 C26      8.6817  18.2172  16.1308   C.3       1 RES1   0.0000
    63 H22      8.7061  17.9373  17.0698   H         1 RES1   0.0000
    64 H23      7.7563  18.4101  15.8717   H         1 RES1   0.0000
    65 H24      9.2283  19.0215  16.0148   H         1 RES1   0.0000
    66 B1       7.5181   6.2793   6.4246   B         2 RES2  -1.0000
    67 F1       7.6783   7.5804   6.8414   F         2 RES2   0.0000
    68 F2       6.2488   5.8491   6.5799   F         2 RES2   0.0000
    69 F3       7.8836   6.1601   5.1036   F         2 RES2   0.0000
    70 F4       8.3800   5.5023   7.2108   F         2 RES2   0.0000
    71 B2       4.9857  16.1650  15.9907   B         3 RES3  -1.0000
    72 F5       4.9700  15.3886  14.8401   F         3 RES3   0.0000
    73 F6       3.8232  16.0231  16.6740   F         3 RES3   0.0000
    74 F7       5.2104  17.4995  15.6550   F         3 RES3   0.0000
    75 F8       6.0775  15.7372  16.8006   F         3 RES3   0.0000
    76 C27      6.5867   9.2140   4.2988   C.3       4 RES4   0.0000
    77 H25      7.4562   8.8842   4.6201   H         4 RES4   0.0000
    78 H26      6.6384   9.3693   3.3328   H         4 RES4   0.0000
    79 H27      5.8968   8.5489   4.4896   H         4 RES4   0.0000
    80 C28      6.2661  10.4615   4.9754   C.1       4 RES4   0.0000
    81 N13      6.0101  11.4231   5.5119   N.1       4 RES4   0.0000
@<TRIPOS>BOND
     1     1     2    1
     2     2     3   ar
     3     3     4   ar
     4     4     5    1
     5     6     4   ar
     6     7     6   ar
     7     8     7    1
     8     9     2   ar
     9    10     3    1
    10    11     1    1
    11    12    11    2
    12    13    12    1
    13    14    12    1
    14    15    14    1
    15    16    10    1
    16    17    16    1
    17    18     9    1
    18    19     1    1
    19    20    19    2
    20    21    20    1
    21    22    20    1
    22    23    22    1
    23    24    18    1
    24    25    24    1
    25    26     6    1
    26    27    26    1
    27    28    26   am
    28    29    28    2
    29    30    28    1
    30    31    30    1
    31    32    30    1
    32    33    30    1
    33    34     1    1
    34    35    34   ar
    35    36    35   ar
    36    37    36    1
    37    38    36   ar
    38    39    38   ar
    39    40    39    1
    40    41    34   ar
    41    42    35    1
    42    43     1    1
    43    44    43    2
    44    45    44    1
    45    46    44    1
    46    47    46    1
    47    48    42    1
    48    49    48    1
    49    50    41    1
    50    51     1    1
    51    52    51    2
    52    53    52    1
    53    54    52    1
    54    55    54    1
    55    56    50    1
    56    57    56    1
    57    58    38    1
    58    59    58    1
    59    60    58   am
    60    61    60    2
    61    62    60    1
    62    63    62    1
    63    64    62    1
    64    65    62    1
    65     7     9   ar
    66    10    11    1
    67    14    16    2
    68    18    19    1
    69    22    24    2
    70    39    41   ar
    71    42    43    1
    72    46    48    2
    73    50    51    1
    74    54    56    2
    75    66    67    1
    76    68    66    1
    77    69    66    1
    78    70    66    1
    79    71    72    1
    80    73    71    1
    81    74    71    1
    82    75    71    1
    83    76    77    1
    84    78    76    1
    85    79    76    1
    86    80    76    1
    87    81    80    3
@<TRIPOS>SUBSTRUCTURE
     1 RES1        1 GROUP             0 ****  ****    0  
     2 RES2       66 GROUP             0 ****  ****    0  
     3 RES3       71 GROUP             0 ****  ****    0  
     4 RES4       76 GROUP             0 ****  ****    0  
@<TRIPOS>CRYSIN
    8.2204   12.3298   17.2739   82.9690   79.3170   85.4810     2     1
