@<TRIPOS>MOLECULE
OVORUP02
    84    90     4     0     0
SMALL
USER_CHARGES
****
Generated from the CSD

@<TRIPOS>ATOM
     1 Fe1      9.6926  10.6856  12.5226   Fe        1 RES1   2.0000
     2 N1       9.7928   8.9435  11.7484   N.ar      1 RES1   0.0000
     3 C1       9.3300   8.7238  10.5163   C.ar      1 RES1   0.0000
     4 C2       9.2839   7.4807   9.9379   C.ar      1 RES1   0.0000
     5 H1       8.9815   7.3634   9.0458   H         1 RES1   0.0000
     6 C3       9.6985   6.3913  10.7136   C.ar      1 RES1   0.0000
     7 C4      10.1463   6.5953  12.0385   C.ar      1 RES1   0.0000
     8 H2      10.4194   5.8749  12.5947   H         1 RES1   0.0000
     9 C5      10.1619   7.8961  12.4743   C.ar      1 RES1   0.0000
    10 N2       8.8928   9.9214   9.9191   N.pl3     1 RES1   0.0000
    11 N3       8.9858  11.0692  10.6947   N.2       1 RES1   0.0000
    12 C6       8.4763  12.0129   9.9397   C.2       1 RES1   0.0000
    13 H3       8.4114  12.9244  10.2000   H         1 RES1   0.0000
    14 C7       8.0364  11.5146   8.7024   C.2       1 RES1   0.0000
    15 H4       7.6351  12.0031   7.9927   H         1 RES1   0.0000
    16 C8       8.3104  10.1777   8.7350   C.2       1 RES1   0.0000
    17 H5       8.1248   9.5462   8.0504   H         1 RES1   0.0000
    18 N4      10.5438   8.3206  13.7769   N.pl3     1 RES1   0.0000
    19 N5      10.4076   9.6642  14.0308   N.2       1 RES1   0.0000
    20 C9      10.7383   9.8094  15.3076   C.2       1 RES1   0.0000
    21 H6      10.7318  10.6371  15.7744   H         1 RES1   0.0000
    22 C10     11.0958   8.5888  15.8705   C.2       1 RES1   0.0000
    23 H7      11.3798   8.4346  16.7644   H         1 RES1   0.0000
    24 C11     10.9560   7.6545  14.8837   C.2       1 RES1   0.0000
    25 H8      11.1162   6.7212  14.9570   H         1 RES1   0.0000
    26 N6       9.5903   5.1410  10.1250   N.am      1 RES1   0.0000
    27 H9       9.2176   5.1215   9.3281   H         1 RES1   0.0000
    28 C12      9.9920   3.9262  10.6330   C.2       1 RES1   0.0000
    29 O1      10.5955   3.8106  11.6678   O.2       1 RES1   0.0000
    30 C13      9.5842   2.7553   9.7578   C.3       1 RES1   0.0000
    31 H10     10.1317   1.9744   9.9821   H         1 RES1   0.0000
    32 H11      9.7179   2.9894   8.8161   H         1 RES1   0.0000
    33 H12      8.6390   2.5471   9.9121   H         1 RES1   0.0000
    34 N7       9.5155  12.3367  13.4662   N.ar      1 RES1   0.0000
    35 C14      8.4423  12.5684  14.2110   C.ar      1 RES1   0.0000
    36 C15      8.2742  13.6928  14.9867   C.ar      1 RES1   0.0000
    37 H13      7.4848  13.8337  15.4967   H         1 RES1   0.0000
    38 C16      9.3269  14.6231  14.9867   C.ar      1 RES1   0.0000
    39 C17     10.4958  14.3831  14.2454   C.ar      1 RES1   0.0000
    40 H14     11.2273  14.9897  14.2488   H         1 RES1   0.0000
    41 C18     10.5175  13.2190  13.5177   C.ar      1 RES1   0.0000
    42 N8       7.5113  11.5130  14.0995   N.pl3     1 RES1   0.0000
    43 N9       7.8783  10.4754  13.2672   N.2       1 RES1   0.0000
    44 C19      6.8772   9.6097  13.3375   C.2       1 RES1   0.0000
    45 H15      6.8407   8.7916  12.8563   H         1 RES1   0.0000
    46 C20      5.8779  10.0562  14.2162   C.2       1 RES1   0.0000
    47 H16      5.0733   9.6056  14.4435   H         1 RES1   0.0000
    48 C21      6.2962  11.2618  14.6727   C.2       1 RES1   0.0000
    49 H17      5.8316  11.8262  15.2792   H         1 RES1   0.0000
    50 N10     11.6075  12.7581  12.7438   N.pl3     1 RES1   0.0000
    51 N11     11.4421  11.5333  12.1140   N.2       1 RES1   0.0000
    52 C22     12.5723  11.3625  11.4395   C.2       1 RES1   0.0000
    53 H18     12.7627  10.6057  10.8964   H         1 RES1   0.0000
    54 C23     13.4392  12.4291  11.6283   C.2       1 RES1   0.0000
    55 H19     14.3057  12.5290  11.2517   H         1 RES1   0.0000
    56 C24     12.8039  13.3103  12.4606   C.2       1 RES1   0.0000
    57 H20     13.1388  14.1426  12.7747   H         1 RES1   0.0000
    58 N12      9.1583  15.7691  15.7572   N.am      1 RES1   0.0000
    59 H21      8.5288  15.7384  16.3705   H         1 RES1   0.0000
    60 C25      9.8715  16.9514  15.6646   C.2       1 RES1   0.0000
    61 O2      10.7681  17.1212  14.8735   O.2       1 RES1   0.0000
    62 C26      9.3836  18.0140  16.6170   C.3       1 RES1   0.0000
    63 H22     10.0294  18.7511  16.6425   H         1 RES1   0.0000
    64 H23      9.2908  17.6303  17.5140   H         1 RES1   0.0000
    65 H24      8.5149  18.3512  16.3143   H         1 RES1   0.0000
    66 B1       7.7309   6.0986   6.6671   B         2 RES2  -1.0000
    67 F1       7.9326   7.4417   7.0051   F         2 RES2   0.0000
    68 F2       6.4368   5.7369   6.8078   F         2 RES2   0.0000
    69 F3       8.1067   5.9163   5.3369   F         2 RES2   0.0000
    70 F4       8.5662   5.3297   7.4736   F         2 RES2   0.0000
    71 B2       5.4845  15.9747  16.3579   B         3 RES3  -1.0000
    72 F5       5.3375  15.1694  15.2412   F         3 RES3   0.0000
    73 F6       4.3792  15.9447  17.1576   F         3 RES3   0.0000
    74 F7       5.7571  17.2778  15.9494   F         3 RES3   0.0000
    75 F8       6.6073  15.5312  17.0934   F         3 RES3   0.0000
    76 C27      6.1319   8.2867   4.2302   C.3       4 RES4   0.0000
    77 H25      5.8615   7.9330   5.1039   H         4 RES4   0.0000
    78 H26      6.4466   7.5519   3.6639   H         4 RES4   0.0000
    79 H27      5.3660   8.7240   3.8039   H         4 RES4   0.0000
    80 C28      7.2390   9.2855   4.4172   C.3       4 RES4   0.0000
    81 H28      7.9819   8.8694   4.9215   H         4 RES4   0.0000
    82 H29      7.5851   9.5673   3.5331   H         4 RES4   0.0000
    83 C29      6.7286  10.4679   5.1569   C.1       4 RES4   0.0000
    84 N13      6.3459  11.3813   5.6837   N.1       4 RES4   0.0000
@<TRIPOS>BOND
     1     1     2    1
     2     2     3   ar
     3     3     4   ar
     4     4     5    1
     5     6     4   ar
     6     7     6   ar
     7     8     7    1
     8     9     2   ar
     9    10     3    1
    10    11     1    1
    11    12    11    2
    12    13    12    1
    13    14    12    1
    14    15    14    1
    15    16    10    1
    16    17    16    1
    17    18     9    1
    18    19     1    1
    19    20    19    2
    20    21    20    1
    21    22    20    1
    22    23    22    1
    23    24    18    1
    24    25    24    1
    25    26     6    1
    26    27    26    1
    27    28    26   am
    28    29    28    2
    29    30    28    1
    30    31    30    1
    31    32    30    1
    32    33    30    1
    33    34     1    1
    34    35    34   ar
    35    36    35   ar
    36    37    36    1
    37    38    36   ar
    38    39    38   ar
    39    40    39    1
    40    41    34   ar
    41    42    35    1
    42    43     1    1
    43    44    43    2
    44    45    44    1
    45    46    44    1
    46    47    46    1
    47    48    42    1
    48    49    48    1
    49    50    41    1
    50    51     1    1
    51    52    51    2
    52    53    52    1
    53    54    52    1
    54    55    54    1
    55    56    50    1
    56    57    56    1
    57    58    38    1
    58    59    58    1
    59    60    58   am
    60    61    60    2
    61    62    60    1
    62    63    62    1
    63    64    62    1
    64    65    62    1
    65     7     9   ar
    66    10    11    1
    67    14    16    2
    68    18    19    1
    69    22    24    2
    70    39    41   ar
    71    42    43    1
    72    46    48    2
    73    50    51    1
    74    54    56    2
    75    66    67    1
    76    68    66    1
    77    69    66    1
    78    70    66    1
    79    71    72    1
    80    73    71    1
    81    74    71    1
    82    75    71    1
    83    76    77    1
    84    78    76    1
    85    79    76    1
    86    80    76    1
    87    81    80    1
    88    82    80    1
    89    83    80    1
    90    84    83    3
@<TRIPOS>SUBSTRUCTURE
     1 RES1        1 GROUP             0 ****  ****    0  
     2 RES2       66 GROUP             0 ****  ****    0  
     3 RES3       71 GROUP             0 ****  ****    0  
     4 RES4       76 GROUP             0 ****  ****    0  
@<TRIPOS>CRYSIN
    8.2658   12.3645   17.5585   83.5550   79.0790   84.3900     2     1
