@<TRIPOS>MOLECULE
OVOSIE02
    84    90     4     0     0
SMALL
USER_CHARGES
****
Generated from the CSD

@<TRIPOS>ATOM
     1 Fe1      9.7365  11.0334  12.5721   Fe        1 RES1   2.0000
     2 N1       9.8621   9.2931  11.8035   N.ar      1 RES1   0.0000
     3 C1       9.4111   9.0601  10.5711   C.ar      1 RES1   0.0000
     4 C2       9.3733   7.8103  10.0014   C.ar      1 RES1   0.0000
     5 H1       9.0713   7.6809   9.1105   H         1 RES1   0.0000
     6 C3       9.8034   6.7308  10.7966   C.ar      1 RES1   0.0000
     7 C4      10.2522   6.9428  12.1184   C.ar      1 RES1   0.0000
     8 H2      10.5365   6.2278  12.6745   H         1 RES1   0.0000
     9 C5      10.2539   8.2512  12.5521   C.ar      1 RES1   0.0000
    10 N2       8.9553  10.2487   9.9808   N.pl3     1 RES1   0.0000
    11 N3       9.0255  11.3992  10.7467   N.2       1 RES1   0.0000
    12 C6       8.4884  12.3482   9.9946   C.2       1 RES1   0.0000
    13 H3       8.4023  13.2572  10.2579   H         1 RES1   0.0000
    14 C7       8.0630  11.8358   8.7588   C.2       1 RES1   0.0000
    15 H4       7.6567  12.3178   8.0491   H         1 RES1   0.0000
    16 C8       8.3541  10.4991   8.7863   C.2       1 RES1   0.0000
    17 H5       8.1712   9.8662   8.1019   H         1 RES1   0.0000
    18 N4      10.6259   8.6890  13.8344   N.pl3     1 RES1   0.0000
    19 N5      10.4697  10.0375  14.0925   N.2       1 RES1   0.0000
    20 C9      10.8040  10.1997  15.3610   C.2       1 RES1   0.0000
    21 H6      10.8082  11.0327  15.8166   H         1 RES1   0.0000
    22 C10     11.1521   8.9690  15.9393   C.2       1 RES1   0.0000
    23 H7      11.4145   8.8202  16.8399   H         1 RES1   0.0000
    24 C11     11.0416   8.0287  14.9566   C.2       1 RES1   0.0000
    25 H8      11.2186   7.0988  15.0376   H         1 RES1   0.0000
    26 N6       9.7013   5.4754  10.2114   N.am      1 RES1   0.0000
    27 H9       9.3139   5.4489   9.4212   H         1 RES1   0.0000
    28 C12     10.1298   4.2659  10.7123   C.2       1 RES1   0.0000
    29 O1      10.7717   4.1606  11.7415   O.2       1 RES1   0.0000
    30 C13      9.7354   3.0855   9.8741   C.3       1 RES1   0.0000
    31 H10     10.3222   2.3277  10.0810   H         1 RES1   0.0000
    32 H11      9.8200   3.3145   8.9255   H         1 RES1   0.0000
    33 H12      8.8066   2.8414  10.0702   H         1 RES1   0.0000
    34 N7       9.5428  12.6886  13.4936   N.ar      1 RES1   0.0000
    35 C14      8.4373  12.9168  14.2354   C.ar      1 RES1   0.0000
    36 C15      8.2762  14.0417  15.0030   C.ar      1 RES1   0.0000
    37 H13      7.4889  14.1771  15.5169   H         1 RES1   0.0000
    38 C16      9.3172  14.9880  15.0013   C.ar      1 RES1   0.0000
    39 C17     10.4898  14.7534  14.2681   C.ar      1 RES1   0.0000
    40 H14     11.2153  15.3669  14.2693   H         1 RES1   0.0000
    41 C18     10.5292  13.5785  13.5452   C.ar      1 RES1   0.0000
    42 N8       7.5338  11.8502  14.1115   N.pl3     1 RES1   0.0000
    43 N9       7.9213  10.8005  13.3129   N.2       1 RES1   0.0000
    44 C19      6.9395   9.9227  13.3800   C.2       1 RES1   0.0000
    45 H15      6.9284   9.0882  12.9254   H         1 RES1   0.0000
    46 C20      5.9142  10.3880  14.2130   C.2       1 RES1   0.0000
    47 H16      5.1013   9.9415  14.4175   H         1 RES1   0.0000
    48 C21      6.3117  11.6092  14.6708   C.2       1 RES1   0.0000
    49 H17      5.8338  12.1788  15.2627   H         1 RES1   0.0000
    50 N10     11.6222  13.1264  12.7897   N.pl3     1 RES1   0.0000
    51 N11     11.4818  11.8974  12.1580   N.2       1 RES1   0.0000
    52 C22     12.6086  11.7245  11.4850   C.2       1 RES1   0.0000
    53 H18     12.8018  10.9681  10.9440   H         1 RES1   0.0000
    54 C23     13.4773  12.8058  11.6778   C.2       1 RES1   0.0000
    55 H19     14.3451  12.9122  11.3061   H         1 RES1   0.0000
    56 C24     12.8316  13.6731  12.4988   C.2       1 RES1   0.0000
    57 H20     13.1640  14.5067  12.8132   H         1 RES1   0.0000
    58 N12      9.1309  16.1235  15.7758   N.am      1 RES1   0.0000
    59 H21      8.4911  16.0844  16.3793   H         1 RES1   0.0000
    60 C25      9.8390  17.3084  15.7070   C.2       1 RES1   0.0000
    61 O2      10.7441  17.4917  14.9204   O.2       1 RES1   0.0000
    62 C26      9.3298  18.3635  16.6605   C.3       1 RES1   0.0000
    63 H22      9.8678  19.1774  16.5642   H         1 RES1   0.0000
    64 H23      9.3989  18.0338  17.5808   H         1 RES1   0.0000
    65 H24      8.3932  18.5653  16.4551   H         1 RES1   0.0000
    66 Cl1      7.7664   6.3261   6.6990   Cl        2 RES2   0.0000
    67 O3       7.9715   7.6901   7.0686   O.2       2 RES2   0.0000
    68 O4       6.4255   5.9456   6.8914   O.2       2 RES2   0.0000
    69 O5       8.1100   6.1342   5.3252   O.2       2 RES2   0.0000
    70 O6       8.6412   5.5192   7.5179   O.3       2 RES2  -1.0000
    71 Cl2      5.4171  16.3693  16.4300   Cl        3 RES3   0.0000
    72 O7       5.3205  15.5231  15.2787   O.2       3 RES3   0.0000
    73 O8       4.2437  16.2699  17.2164   O.2       3 RES3   0.0000
    74 O9       5.6355  17.7264  16.0150   O.2       3 RES3   0.0000
    75 O10      6.5658  15.9471  17.2203   O.3       3 RES3  -1.0000
    76 C27      6.0279   8.5083   4.2701   C.3       4 RES4   0.0000
    77 H25      5.8073   8.1012   5.1338   H         4 RES4   0.0000
    78 H26      6.3052   7.8107   3.6409   H         4 RES4   0.0000
    79 H27      5.2409   8.9733   3.9174   H         4 RES4   0.0000
    80 C28      7.1566   9.4984   4.4543   C.3       4 RES4   0.0000
    81 H28      7.9049   9.0598   4.9321   H         4 RES4   0.0000
    82 H29      7.4878   9.7890   3.5677   H         4 RES4   0.0000
    83 C29      6.7120  10.6630   5.2133   C.1       4 RES4   0.0000
    84 N13      6.3547  11.5753   5.7778   N.1       4 RES4   0.0000
@<TRIPOS>BOND
     1     1     2    1
     2     2     3   ar
     3     3     4   ar
     4     4     5    1
     5     6     4   ar
     6     7     6   ar
     7     8     7    1
     8     9     2   ar
     9    10     3    1
    10    11     1    1
    11    12    11    2
    12    13    12    1
    13    14    12    1
    14    15    14    1
    15    16    10    1
    16    17    16    1
    17    18     9    1
    18    19     1    1
    19    20    19    2
    20    21    20    1
    21    22    20    1
    22    23    22    1
    23    24    18    1
    24    25    24    1
    25    26     6    1
    26    27    26    1
    27    28    26   am
    28    29    28    2
    29    30    28    1
    30    31    30    1
    31    32    30    1
    32    33    30    1
    33    34     1    1
    34    35    34   ar
    35    36    35   ar
    36    37    36    1
    37    38    36   ar
    38    39    38   ar
    39    40    39    1
    40    41    34   ar
    41    42    35    1
    42    43     1    1
    43    44    43    2
    44    45    44    1
    45    46    44    1
    46    47    46    1
    47    48    42    1
    48    49    48    1
    49    50    41    1
    50    51     1    1
    51    52    51    2
    52    53    52    1
    53    54    52    1
    54    55    54    1
    55    56    50    1
    56    57    56    1
    57    58    38    1
    58    59    58    1
    59    60    58   am
    60    61    60    2
    61    62    60    1
    62    63    62    1
    63    64    62    1
    64    65    62    1
    65     7     9   ar
    66    10    11    1
    67    14    16    2
    68    18    19    1
    69    22    24    2
    70    39    41   ar
    71    42    43    1
    72    46    48    2
    73    50    51    1
    74    54    56    2
    75    66    67    2
    76    68    66    2
    77    69    66    2
    78    70    66    1
    79    71    72    2
    80    73    71    2
    81    74    71    2
    82    75    71    1
    83    76    77    1
    84    78    76    1
    85    79    76    1
    86    80    76    1
    87    81    80    1
    88    82    80    1
    89    83    80    1
    90    84    83    3
@<TRIPOS>SUBSTRUCTURE
     1 RES1        1 GROUP             0 ****  ****    0  
     2 RES2       66 GROUP             0 ****  ****    0  
     3 RES3       71 GROUP             0 ****  ****    0  
     4 RES4       76 GROUP             0 ****  ****    0  
@<TRIPOS>CRYSIN
    8.3410   12.3849   17.6860   82.1870   78.6640   85.1400     2     1
