@<TRIPOS>MOLECULE
OVOTOL
    77    84     3     0     0
SMALL
USER_CHARGES
****
Generated from the CSD

@<TRIPOS>ATOM
     1 Fe1     10.3689   6.2310   4.9224   Fe        1 RES1   2.0000
     2 N1       8.2534   6.1659   4.9062   N.ar      1 RES1   0.0000
     3 C1       7.5894   5.4209   4.0157   C.ar      1 RES1   0.0000
     4 C2       6.2190   5.3711   3.9288   C.ar      1 RES1   0.0000
     5 H1       5.7851   4.8238   3.2851   H         1 RES1   0.0000
     6 C3       5.4853   6.1601   4.8277   C.ar      1 RES1   0.0000
     7 C4       6.1547   6.9731   5.7539   C.ar      1 RES1   0.0000
     8 H2       5.6845   7.5359   6.3575   H         1 RES1   0.0000
     9 C5       7.5334   6.9118   5.7411   C.ar      1 RES1   0.0000
    10 N2       8.4402   4.6729   3.1714   N.pl3     1 RES1   0.0000
    11 N3       9.7952   4.8196   3.3267   N.2       1 RES1   0.0000
    12 C6      10.3274   4.0454   2.3879   C.2       1 RES1   0.0000
    13 H3      11.2612   3.9456   2.2450   H         1 RES1   0.0000
    14 C7       9.3434   3.3968   1.6356   C.2       1 RES1   0.0000
    15 H4       9.4747   2.7940   0.9129   H         1 RES1   0.0000
    16 C8       8.1518   3.8135   2.1619   C.2       1 RES1   0.0000
    17 H5       7.2852   3.5515   1.8747   H         1 RES1   0.0000
    18 N4       8.3403   7.6590   6.6326   N.pl3     1 RES1   0.0000
    19 N5       9.6967   7.6354   6.4448   N.2       1 RES1   0.0000
    20 C9      10.1913   8.3539   7.4470   C.2       1 RES1   0.0000
    21 H6      11.1169   8.5214   7.5798   H         1 RES1   0.0000
    22 C10      9.1739   8.8319   8.2826   C.2       1 RES1   0.0000
    23 H7       9.2730   9.3680   9.0607   H         1 RES1   0.0000
    24 C11      8.0077   8.3645   7.7417   C.2       1 RES1   0.0000
    25 H8       7.1311   8.5075   8.0789   H         1 RES1   0.0000
    26 N6       4.1052   6.0691   4.7328   N.am      1 RES1   0.0000
    27 H9       3.8043   5.5067   4.1266   H         1 RES1   0.0000
    28 C12      3.1397   6.7341   5.4530   C.2       1 RES1   0.0000
    29 O1       3.3813   7.5825   6.2855   O.2       1 RES1   0.0000
    30 C13      1.7306   6.3200   5.0966   C.3       1 RES1   0.0000
    31 H10      1.3321   5.8356   5.8499   H         1 RES1   0.0000
    32 H11      1.7506   5.7378   4.3084   H         1 RES1   0.0000
    33 H12      1.1951   7.1168   4.9007   H         1 RES1   0.0000
    34 N1C     12.4843   6.1659   4.9385   N.ar      1 RES1   0.0000
    35 C1C     13.1483   5.4209   5.8291   C.ar      1 RES1   0.0000
    36 C2C     14.5187   5.3711   5.9159   C.ar      1 RES1   0.0000
    37 H1C     14.9526   4.8238   6.5597   H         1 RES1   0.0000
    38 C3C     15.2524   6.1601   5.0171   C.ar      1 RES1   0.0000
    39 C4C     14.5830   6.9731   4.0909   C.ar      1 RES1   0.0000
    40 H2C     15.0532   7.5359   3.4872   H         1 RES1   0.0000
    41 C5C     13.2043   6.9118   4.1037   C.ar      1 RES1   0.0000
    42 N2C     12.2975   4.6729   6.6734   N.pl3     1 RES1   0.0000
    43 N3C     10.9425   4.8196   6.5180   N.2       1 RES1   0.0000
    44 C6C     10.4103   4.0454   7.4568   C.2       1 RES1   0.0000
    45 H3C      9.4765   3.9456   7.5997   H         1 RES1   0.0000
    46 C7C     11.3943   3.3968   8.2091   C.2       1 RES1   0.0000
    47 H4C     11.2630   2.7940   8.9319   H         1 RES1   0.0000
    48 C8C     12.5859   3.8135   7.6828   C.2       1 RES1   0.0000
    49 H5C     13.4525   3.5515   7.9701   H         1 RES1   0.0000
    50 N4C     12.3974   7.6590   3.2121   N.pl3     1 RES1   0.0000
    51 N5C     11.0410   7.6354   3.4000   N.2       1 RES1   0.0000
    52 C9C     10.5464   8.3539   2.3978   C.2       1 RES1   0.0000
    53 H6C      9.6208   8.5214   2.2650   H         1 RES1   0.0000
    54 C10C    11.5638   8.8319   1.5622   C.2       1 RES1   0.0000
    55 H7C     11.4647   9.3680   0.7840   H         1 RES1   0.0000
    56 C11C    12.7300   8.3645   2.1030   C.2       1 RES1   0.0000
    57 H8C     13.6066   8.5075   1.7659   H         1 RES1   0.0000
    58 N6C     16.6325   6.0691   5.1120   N.am      1 RES1   0.0000
    59 H9C     16.9334   5.5067   5.7182   H         1 RES1   0.0000
    60 C12C    17.5980   6.7341   4.3917   C.2       1 RES1   0.0000
    61 O1C     17.3564   7.5825   3.5593   O.2       1 RES1   0.0000
    62 C13C    19.0071   6.3200   4.7481   C.3       1 RES1   0.0000
    63 H10C    19.4056   5.8356   3.9948   H         1 RES1   0.0000
    64 H11C    18.9871   5.7378   5.5364   H         1 RES1   0.0000
    65 H12C    19.5426   7.1168   4.9440   H         1 RES1   0.0000
    66 B1       3.5088   3.9433   1.6624   B         2 RES2  -1.0000
    67 F1       3.1509   4.0510   3.0217   F         2 RES2   0.0000
    68 F2       3.4078   5.1760   1.0849   F         2 RES2   0.0000
    69 F3       4.8107   3.4665   1.5797   F         2 RES2   0.0000
    70 F4       2.6306   3.0610   1.0707   F         2 RES2   0.0000
    71 C14      3.9765   7.8687   9.3021   C.3       3 RES3   0.0000
    72 H13      3.0939   7.7487   9.7106   H         3 RES3   0.0000
    73 H14      4.6655   7.8394   9.9984   H         3 RES3   0.0000
    74 H15      4.1367   7.1525   8.6532   H         3 RES3   0.0000
    75 N7       4.0268   9.1733   8.6163   N.pl3     3 RES3   0.0000
    76 O2       3.0277   9.8698   8.6187   O.2       3 RES3   0.0000
    77 O3       5.0745   9.4922   8.0662   O.2       3 RES3   0.0000
@<TRIPOS>BOND
     1     1     2    1
     2     2     3   ar
     3     3     4   ar
     4     4     5    1
     5     6     4   ar
     6     7     6   ar
     7     8     7    1
     8     9     2   ar
     9    10     3    1
    10    11     1    1
    11    12    11    2
    12    13    12    1
    13    14    12    1
    14    15    14    1
    15    16    10    1
    16    17    16    1
    17    18     9    1
    18    19     1    1
    19    20    19    2
    20    21    20    1
    21    22    20    1
    22    23    22    1
    23    24    18    1
    24    25    24    1
    25    26     6    1
    26    27    26    1
    27    28    26   am
    28    29    28    2
    29    30    28    1
    30    31    30    1
    31    32    30    1
    32    33    30    1
    33    34     1    1
    34    35    34   ar
    35    36    35   ar
    36    37    36    1
    37    38    36   ar
    38    39    38   ar
    39    40    39    1
    40    41    34   ar
    41    42    35    1
    42    43     1    1
    43    44    43    2
    44    45    44    1
    45    46    44    1
    46    47    46    1
    47    48    42    1
    48    49    48    1
    49    50    41    1
    50    51     1    1
    51    52    51    2
    52    53    52    1
    53    54    52    1
    54    55    54    1
    55    56    50    1
    56    57    56    1
    57    58    38    1
    58    59    58    1
    59    60    58   am
    60    61    60    2
    61    62    60    1
    62    63    62    1
    63    64    62    1
    64    65    62    1
    65     7     9   ar
    66    10    11    1
    67    14    16    2
    68    18    19    1
    69    22    24    2
    70    39    41   ar
    71    42    43    1
    72    46    48    2
    73    50    51    1
    74    54    56    2
    75    66    67    1
    76    68    66    1
    77    69    66    1
    78    70    66    1
    79    71    72    1
    80    73    71    1
    81    74    71    1
    82    75    71    1
    83    76    75    2
    84    77    75    2
@<TRIPOS>SUBSTRUCTURE
     1 RES1        1 GROUP             0 ****  ****    0  
     2 RES2       66 GROUP             0 ****  ****    0  
     3 RES3       71 GROUP             0 ****  ****    0  
@<TRIPOS>CRYSIN
   20.7377    8.8852   19.6895   90.0000   90.0000   90.0000    60     1
