@<TRIPOS>MOLECULE
OVOTUR
    77    84     3     0     0
SMALL
USER_CHARGES
****
Generated from the CSD

@<TRIPOS>ATOM
     1 Fe1     10.3963   6.3613   5.0138   Fe        1 RES1   2.0000
     2 N1       8.2734   6.2743   4.9980   N.ar      1 RES1   0.0000
     3 C1       7.6184   5.5337   4.1071   C.ar      1 RES1   0.0000
     4 C2       6.2492   5.4789   4.0159   C.ar      1 RES1   0.0000
     5 H1       5.8174   4.9289   3.3730   H         1 RES1   0.0000
     6 C3       5.5169   6.2690   4.9111   C.ar      1 RES1   0.0000
     7 C4       6.1739   7.0776   5.8453   C.ar      1 RES1   0.0000
     8 H2       5.6985   7.6346   6.4506   H         1 RES1   0.0000
     9 C5       7.5550   7.0192   5.8361   C.ar      1 RES1   0.0000
    10 N2       8.4751   4.7958   3.2596   N.pl3     1 RES1   0.0000
    11 N3       9.8268   4.9408   3.4246   N.2       1 RES1   0.0000
    12 C6      10.3682   4.1799   2.4760   C.2       1 RES1   0.0000
    13 H3      11.3030   4.0862   2.3339   H         1 RES1   0.0000
    14 C7       9.3856   3.5339   1.7135   C.2       1 RES1   0.0000
    15 H4       9.5194   2.9367   0.9867   H         1 RES1   0.0000
    16 C8       8.1896   3.9475   2.2412   C.2       1 RES1   0.0000
    17 H5       7.3237   3.6886   1.9484   H         1 RES1   0.0000
    18 N4       8.3559   7.7642   6.7312   N.pl3     1 RES1   0.0000
    19 N5       9.7114   7.7607   6.5340   N.2       1 RES1   0.0000
    20 C9      10.1998   8.4818   7.5398   C.2       1 RES1   0.0000
    21 H6      11.1238   8.6609   7.6691   H         1 RES1   0.0000
    22 C10      9.1822   8.9430   8.3841   C.2       1 RES1   0.0000
    23 H7       9.2772   9.4758   9.1647   H         1 RES1   0.0000
    24 C11      8.0212   8.4605   7.8424   C.2       1 RES1   0.0000
    25 H8       7.1439   8.5896   8.1833   H         1 RES1   0.0000
    26 N6       4.1309   6.1815   4.8020   N.am      1 RES1   0.0000
    27 H9       3.8342   5.6300   4.1834   H         1 RES1   0.0000
    28 C12      3.1607   6.8354   5.5260   C.2       1 RES1   0.0000
    29 O1       3.4019   7.6767   6.3706   O.2       1 RES1   0.0000
    30 C13      1.7541   6.4263   5.1620   C.3       1 RES1   0.0000
    31 H10      1.3365   5.9768   5.9265   H         1 RES1   0.0000
    32 H11      1.7799   5.8133   4.3975   H         1 RES1   0.0000
    33 H12      1.2328   7.2214   4.9258   H         1 RES1   0.0000
    34 N1C     12.5192   6.2743   5.0297   N.ar      1 RES1   0.0000
    35 C1C     13.1742   5.5337   5.9205   C.ar      1 RES1   0.0000
    36 C2C     14.5434   5.4789   6.0118   C.ar      1 RES1   0.0000
    37 H1C     14.9752   4.9289   6.6546   H         1 RES1   0.0000
    38 C3C     15.2757   6.2690   5.1165   C.ar      1 RES1   0.0000
    39 C4C     14.6187   7.0776   4.1823   C.ar      1 RES1   0.0000
    40 H2C     15.0941   7.6346   3.5770   H         1 RES1   0.0000
    41 C5C     13.2376   7.0192   4.1916   C.ar      1 RES1   0.0000
    42 N2C     12.3175   4.7958   6.7681   N.pl3     1 RES1   0.0000
    43 N3C     10.9658   4.9408   6.6030   N.2       1 RES1   0.0000
    44 C6C     10.4244   4.1799   7.5516   C.2       1 RES1   0.0000
    45 H3C      9.4896   4.0862   7.6937   H         1 RES1   0.0000
    46 C7C     11.4070   3.5339   8.3141   C.2       1 RES1   0.0000
    47 H4C     11.2732   2.9367   9.0410   H         1 RES1   0.0000
    48 C8C     12.6030   3.9475   7.7865   C.2       1 RES1   0.0000
    49 H5C     13.4689   3.6886   8.0792   H         1 RES1   0.0000
    50 N4C     12.4367   7.7642   3.2965   N.pl3     1 RES1   0.0000
    51 N5C     11.0812   7.7607   3.4936   N.2       1 RES1   0.0000
    52 C9C     10.5928   8.4818   2.4879   C.2       1 RES1   0.0000
    53 H6C      9.6688   8.6609   2.3585   H         1 RES1   0.0000
    54 C10C    11.6104   8.9430   1.6435   C.2       1 RES1   0.0000
    55 H7C     11.5154   9.4758   0.8630   H         1 RES1   0.0000
    56 C11C    12.7714   8.4605   2.1852   C.2       1 RES1   0.0000
    57 H8C     13.6487   8.5896   1.8443   H         1 RES1   0.0000
    58 N6C     16.6617   6.1815   5.2256   N.am      1 RES1   0.0000
    59 H9C     16.9584   5.6300   5.8443   H         1 RES1   0.0000
    60 C12C    17.6319   6.8354   4.5016   C.2       1 RES1   0.0000
    61 O1C     17.3907   7.6767   3.6571   O.2       1 RES1   0.0000
    62 C13C    19.0385   6.4263   4.8656   C.3       1 RES1   0.0000
    63 H10C    19.4561   5.9768   4.1012   H         1 RES1   0.0000
    64 H11C    19.0127   5.8133   5.6301   H         1 RES1   0.0000
    65 H12C    19.5598   7.2214   5.1018   H         1 RES1   0.0000
    66 Cl1      3.5183   3.9208   1.6696   Cl        2 RES2   0.0000
    67 O2       3.1497   4.1560   3.0556   O.3       2 RES2  -1.0000
    68 O3       3.3983   5.1387   0.9370   O.2       2 RES2   0.0000
    69 O4       4.8721   3.4394   1.6235   O.2       2 RES2   0.0000
    70 O5       2.6265   2.9330   1.1419   O.2       2 RES2   0.0000
    71 C14      3.9259   7.9268   9.3801   C.3       3 RES3   0.0000
    72 H13      3.0468   7.8198   9.8002   H         3 RES3   0.0000
    73 H14      4.6248   7.8599  10.0638   H         3 RES3   0.0000
    74 H15      4.0555   7.2227   8.7107   H         3 RES3   0.0000
    75 N7       4.0011   9.2426   8.7289   N.pl3     3 RES3   0.0000
    76 O6       3.0104   9.9487   8.7327   O.2       3 RES3   0.0000
    77 O7       5.0615   9.5616   8.2046   O.2       3 RES3   0.0000
@<TRIPOS>BOND
     1     1     2    1
     2     2     3   ar
     3     3     4   ar
     4     4     5    1
     5     6     4   ar
     6     7     6   ar
     7     8     7    1
     8     9     2   ar
     9    10     3    1
    10    11     1    1
    11    12    11    2
    12    13    12    1
    13    14    12    1
    14    15    14    1
    15    16    10    1
    16    17    16    1
    17    18     9    1
    18    19     1    1
    19    20    19    2
    20    21    20    1
    21    22    20    1
    22    23    22    1
    23    24    18    1
    24    25    24    1
    25    26     6    1
    26    27    26    1
    27    28    26   am
    28    29    28    2
    29    30    28    1
    30    31    30    1
    31    32    30    1
    32    33    30    1
    33    34     1    1
    34    35    34   ar
    35    36    35   ar
    36    37    36    1
    37    38    36   ar
    38    39    38   ar
    39    40    39    1
    40    41    34   ar
    41    42    35    1
    42    43     1    1
    43    44    43    2
    44    45    44    1
    45    46    44    1
    46    47    46    1
    47    48    42    1
    48    49    48    1
    49    50    41    1
    50    51     1    1
    51    52    51    2
    52    53    52    1
    53    54    52    1
    54    55    54    1
    55    56    50    1
    56    57    56    1
    57    58    38    1
    58    59    58    1
    59    60    58   am
    60    61    60    2
    61    62    60    1
    62    63    62    1
    63    64    62    1
    64    65    62    1
    65     7     9   ar
    66    10    11    1
    67    14    16    2
    68    18    19    1
    69    22    24    2
    70    39    41   ar
    71    42    43    1
    72    46    48    2
    73    50    51    1
    74    54    56    2
    75    66    67    1
    76    68    66    2
    77    69    66    2
    78    70    66    2
    79    71    72    1
    80    73    71    1
    81    74    71    1
    82    75    71    1
    83    76    75    2
    84    77    75    2
@<TRIPOS>SUBSTRUCTURE
     1 RES1        1 GROUP             0 ****  ****    0  
     2 RES2       66 GROUP             0 ****  ****    0  
     3 RES3       71 GROUP             0 ****  ****    0  
@<TRIPOS>CRYSIN
   20.7926    8.8370   20.0553   90.0000   90.0000   90.0000    60     1
