@<TRIPOS>MOLECULE
OVOVAZ
    81    87     4     0     0
SMALL
USER_CHARGES
****
Generated from the CSD

@<TRIPOS>ATOM
     1 Fe1      1.4555  24.1035   7.2193   Fe        1 RES1   2.0000
     2 N1       1.5354  26.2392   7.0903   N.ar      1 RES1   0.0000
     3 C1       2.6146  26.9129   7.5003   C.ar      1 RES1   0.0000
     4 C2       2.7278  28.2751   7.4626   C.ar      1 RES1   0.0000
     5 H1       3.5054  28.7148   7.7847   H         1 RES1   0.0000
     6 C3       1.6518  28.9967   6.9303   C.ar      1 RES1   0.0000
     7 C4       0.5264  28.3148   6.4482   C.ar      1 RES1   0.0000
     8 H2      -0.2105  28.7753   6.0637   H         1 RES1   0.0000
     9 C5       0.5431  26.9476   6.5612   C.ar      1 RES1   0.0000
    10 N2       3.6419  26.0611   7.9604   N.pl3     1 RES1   0.0000
    11 N3       3.4550  24.7090   7.8924   N.2       1 RES1   0.0000
    12 C6       4.5630  24.1822   8.3954   C.2       1 RES1   0.0000
    13 H3       4.7268  23.2501   8.4769   H         1 RES1   0.0000
    14 C7       5.4640  25.1879   8.7939   C.2       1 RES1   0.0000
    15 H4       6.3210  25.0691   9.1858   H         1 RES1   0.0000
    16 C8       4.8469  26.3697   8.4979   C.2       1 RES1   0.0000
    17 H5       5.1965  27.2415   8.6411   H         1 RES1   0.0000
    18 N4      -0.5279  26.1406   6.1219   N.pl3     1 RES1   0.0000
    19 N5      -0.3988  24.7865   6.2265   N.2       1 RES1   0.0000
    20 C9      -1.5124  24.3010   5.7110   C.2       1 RES1   0.0000
    21 H6      -1.7196  23.3755   5.6570   H         1 RES1   0.0000
    22 C10     -2.3498  25.3258   5.2529   C.2       1 RES1   0.0000
    23 H7      -3.1980  25.2294   4.8355   H         1 RES1   0.0000
    24 C11     -1.6982  26.4901   5.5311   C.2       1 RES1   0.0000
    25 H8      -2.0024  27.3709   5.3470   H         1 RES1   0.0000
    26 N6       1.7481  30.3808   6.9293   N.am      1 RES1   0.0000
    27 H9       2.4178  30.7248   7.3849   H         1 RES1   0.0000
    28 C12      0.9159  31.2801   6.2945   C.2       1 RES1   0.0000
    29 O1       0.0371  30.9524   5.5279   O.2       1 RES1   0.0000
    30 C13      1.1772  32.7128   6.6678   C.3       1 RES1   0.0000
    31 H10      0.8460  33.3009   5.9570   H         1 RES1   0.0000
    32 H11      2.1410  32.8497   6.7820   H         1 RES1   0.0000
    33 H12      0.7158  32.9214   7.5063   H         1 RES1   0.0000
    34 N7       0.6226  22.1693   7.5431   N.ar      1 RES1   0.0000
    35 C14     -0.0763  21.8961   8.6433   C.ar      1 RES1   0.0000
    36 C15     -0.7464  20.7194   8.8577   C.ar      1 RES1   0.0000
    37 H13     -1.2427  20.5700   9.6539   H         1 RES1   0.0000
    38 C16     -0.6666  19.7460   7.8516   C.ar      1 RES1   0.0000
    39 C17      0.0673  19.9993   6.7002   C.ar      1 RES1   0.0000
    40 H14      0.1325  19.3576   6.0024   H         1 RES1   0.0000
    41 C18      0.6975  21.2232   6.6134   C.ar      1 RES1   0.0000
    42 N8      -0.0348  22.9310   9.6002   N.pl3     1 RES1   0.0000
    43 N9       0.6682  24.0630   9.2948   N.2       1 RES1   0.0000
    44 C19      0.5966  24.8076  10.4002   C.2       1 RES1   0.0000
    45 H15      0.9978  25.6632  10.4956   H         1 RES1   0.0000
    46 C20     -0.1434  24.1709  11.3978   C.2       1 RES1   0.0000
    47 H16     -0.3433  24.5004  12.2659   H         1 RES1   0.0000
    48 C21     -0.5193  22.9688  10.8572   C.2       1 RES1   0.0000
    49 H17     -1.0259  22.2900  11.2878   H         1 RES1   0.0000
    50 N10      1.5166  21.5918   5.5269   N.pl3     1 RES1   0.0000
    51 N11      2.1114  22.8235   5.5541   N.2       1 RES1   0.0000
    52 C22      2.8940  22.8539   4.4864   C.2       1 RES1   0.0000
    53 H18      3.4360  23.5938   4.2392   H         1 RES1   0.0000
    54 C23      2.8171  21.6502   3.7669   C.2       1 RES1   0.0000
    55 H19      3.2847  21.4238   2.9718   H         1 RES1   0.0000
    56 C24      1.9263  20.8740   4.4539   C.2       1 RES1   0.0000
    57 H20      1.6477  19.9960   4.2223   H         1 RES1   0.0000
    58 N12     -1.3185  18.5474   8.1152   N.am      1 RES1   0.0000
    59 H21     -1.6275  18.4413   8.9317   H         1 RES1   0.0000
    60 C25     -1.5323  17.5141   7.2430   C.2       1 RES1   0.0000
    61 O2      -1.1619  17.5297   6.0937   O.2       1 RES1   0.0000
    62 C26     -2.3017  16.3666   7.8516   C.3       1 RES1   0.0000
    63 H22     -3.2620  16.5560   7.8053   H         1 RES1   0.0000
    64 H23     -2.0354  16.2546   8.7880   H         1 RES1   0.0000
    65 H24     -2.1068  15.5438   7.3560   H         1 RES1   0.0000
    66 H25      5.8916  30.2136   6.4942   H         2 RES2   0.0000
    67 C27      5.0777  30.0628   4.7896   C.3       2 RES2   0.0000
    68 H26      4.4568  30.7873   5.0125   H         2 RES2   0.0000
    69 H27      4.6197  29.3994   4.2325   H         2 RES2   0.0000
    70 H28      5.8435  30.4286   4.2986   H         2 RES2   0.0000
    71 O3       5.5293  29.4507   5.9724   O.3       2 RES2   0.0000
    72 B1       5.1661  31.4208   8.6768   B         3 RES3  -1.0000
    73 F1       5.0448  30.1065   9.0940   F         3 RES3   0.0000
    74 F2       5.4389  32.2647   9.7246   F         3 RES3   0.0000
    75 F3       6.2024  31.5341   7.7638   F         3 RES3   0.0000
    76 F4       3.9841  31.7878   8.0807   F         3 RES3   0.0000
    77 B2      -1.2789  18.5778  11.8810   B         4 RES4  -1.0000
    78 F5      -2.0847  17.9298  10.9597   F         4 RES4   0.0000
    79 F6      -1.6871  19.9198  11.9197   F         4 RES4   0.0000
    80 F7       0.0064  18.5100  11.4752   F         4 RES4   0.0000
    81 F8      -1.4511  18.0202  13.1338   F         4 RES4   0.0000
@<TRIPOS>BOND
     1     1     2    1
     2     2     3   ar
     3     3     4   ar
     4     4     5    1
     5     6     4   ar
     6     7     6   ar
     7     8     7    1
     8     9     2   ar
     9    10     3    1
    10    11     1    1
    11    12    11    2
    12    13    12    1
    13    14    12    1
    14    15    14    1
    15    16    10    1
    16    17    16    1
    17    18     9    1
    18    19     1    1
    19    20    19    2
    20    21    20    1
    21    22    20    1
    22    23    22    1
    23    24    18    1
    24    25    24    1
    25    26     6    1
    26    27    26    1
    27    28    26   am
    28    29    28    2
    29    30    28    1
    30    31    30    1
    31    32    30    1
    32    33    30    1
    33    34     1    1
    34    35    34   ar
    35    36    35   ar
    36    37    36    1
    37    38    36   ar
    38    39    38   ar
    39    40    39    1
    40    41    34   ar
    41    42    35    1
    42    43     1    1
    43    44    43    2
    44    45    44    1
    45    46    44    1
    46    47    46    1
    47    48    42    1
    48    49    48    1
    49    50    41    1
    50    51     1    1
    51    52    51    2
    52    53    52    1
    53    54    52    1
    54    55    54    1
    55    56    50    1
    56    57    56    1
    57    58    38    1
    58    59    58    1
    59    60    58   am
    60    61    60    2
    61    62    60    1
    62    63    62    1
    63    64    62    1
    64    65    62    1
    65     7     9   ar
    66    10    11    1
    67    14    16    2
    68    18    19    1
    69    22    24    2
    70    39    41   ar
    71    42    43    1
    72    46    48    2
    73    50    51    1
    74    54    56    2
    75    66    71    1
    76    67    68    1
    77    69    67    1
    78    70    67    1
    79    71    67    1
    80    72    73    1
    81    74    72    1
    82    75    72    1
    83    76    72    1
    84    77    78    1
    85    79    77    1
    86    80    77    1
    87    81    77    1
@<TRIPOS>SUBSTRUCTURE
     1 RES1        1 GROUP             0 ****  ****    0  
     2 RES2       66 GROUP             0 ****  ****    0  
     3 RES3       72 GROUP             0 ****  ****    0  
     4 RES4       77 GROUP             0 ****  ****    0  
@<TRIPOS>CRYSIN
    8.2085   38.9652   10.8625   90.0000  105.6910   90.0000   231     1
