@<TRIPOS>MOLECULE
OWUFAP
   105   120     4     0     0
SMALL
USER_CHARGES
****
Generated from the CSD

@<TRIPOS>ATOM
     1 Eu1     -1.6113   3.2146   3.4780   Eu        1 RES1   0.0000
     2 O1       0.1854   4.2729   2.2439   O.co2     1 RES1  -1.0000
     3 O2       1.1376   6.0585   1.3082   O.co2     1 RES1   0.0000
     4 O3      -0.5258   3.7793   5.5572   O.co2     1 RES1   0.0000
     5 O4      -0.9259   1.3970   1.8939   O.co2     1 RES1   0.0000
     6 O5       1.0209   3.4414   7.1287   O.co2     1 RES1   0.0000
     7 O6       0.6616   0.0783   1.0372   O.co2     1 RES1   0.0000
     8 N1      -1.6113   5.7281   3.4780   N.ar      1 RES1   0.0000
     9 N2       0.5543   1.9765   3.9826   N.ar      1 RES1   0.0000
    10 C1       0.2859   5.5131   2.0253   C.2       1 RES1   0.0000
    11 C2      -0.7078   6.3982   2.7550   C.ar      1 RES1   0.0000
    12 C3      -0.6900   7.7803   2.7132   C.ar      1 RES1   0.0000
    13 H1      -0.0734   8.2320   2.1828   H         1 RES1   0.0000
    14 C4      -1.6113   8.4770   3.4780   C.ar      1 RES1   0.0000
    15 H2      -1.6113   9.4077   3.4780   H         1 RES1   0.0000
    16 C5       0.5337   3.2522   6.0105   C.2       1 RES1   0.0000
    17 C6       1.2645   2.3322   5.0583   C.ar      1 RES1   0.0000
    18 C7       2.5741   1.9084   5.2329   C.ar      1 RES1   0.0000
    19 H3       3.0544   2.1609   5.9892   H         1 RES1   0.0000
    20 C8       3.1546   1.1091   4.2751   C.ar      1 RES1   0.0000
    21 H4       4.0378   0.8295   4.3684   H         1 RES1   0.0000
    22 C9       2.4111   0.7253   3.1688   C.ar      1 RES1   0.0000
    23 H5       2.7761   0.1757   2.5139   H         1 RES1   0.0000
    24 C10      1.1077   1.1825   3.0674   C.ar      1 RES1   0.0000
    25 C11      0.1965   0.8722   1.9177   C.2       1 RES1   0.0000
    26 O1A     -3.4080   4.2729   4.7122   O.co2     1 RES1   0.0000
    27 O2A     -4.3602   6.0585   5.6479   O.co2     1 RES1   0.0000
    28 C1A     -3.5085   5.5131   4.9308   C.2       1 RES1   0.0000
    29 C2A     -2.5147   6.3982   4.2011   C.ar      1 RES1   0.0000
    30 C3A     -2.5326   7.7803   4.2429   C.ar      1 RES1   0.0000
    31 H1A     -3.1491   8.2320   4.7733   H         1 RES1   0.0000
    32 O3A     -2.6968   3.7793   1.3989   O.co2     1 RES1  -1.0000
    33 O4A     -2.2967   1.3970   5.0622   O.co2     1 RES1   0.0000
    34 O5A     -4.2435   3.4414  -0.1727   O.co2     1 RES1   0.0000
    35 O6A     -3.8841   0.0783   5.9189   O.co2     1 RES1   0.0000
    36 N2A     -3.7769   1.9765   2.9735   N.ar      1 RES1   0.0000
    37 C5A     -3.7563   3.2522   0.9456   C.2       1 RES1   0.0000
    38 C6A     -4.4870   2.3322   1.8978   C.ar      1 RES1   0.0000
    39 C7A     -5.7967   1.9084   1.7232   C.ar      1 RES1   0.0000
    40 H3A     -6.2769   2.1609   0.9669   H         1 RES1   0.0000
    41 C8A     -6.3772   1.1091   2.6810   C.ar      1 RES1   0.0000
    42 H4A     -7.2603   0.8295   2.5877   H         1 RES1   0.0000
    43 C9A     -5.6336   0.7253   3.7873   C.ar      1 RES1   0.0000
    44 H5A     -5.9987   0.1757   4.4422   H         1 RES1   0.0000
    45 C10A    -4.3303   1.1825   3.8887   C.ar      1 RES1   0.0000
    46 C11A    -3.4191   0.8722   5.0384   C.2       1 RES1   0.0000
    47 Fe1      6.3194   3.3285   0.0000   Fe        2 RES2   2.0000
    48 N3       5.5273   3.8391   1.7266   N.2       2 RES2   0.0000
    49 N4       4.2655   4.3522   1.7177   N.pl3     2 RES2   0.0000
    50 N5       5.6053   5.0214  -0.7268   N.2       2 RES2   0.0000
    51 N6       4.3370   5.3775  -0.3947   N.pl3     2 RES2   0.0000
    52 N7       4.5863   2.5158  -0.4588   N.2       2 RES2   0.0000
    53 N8       3.4489   3.2108  -0.1720   N.pl3     2 RES2   0.0000
    54 C12      3.5806   4.5000   0.4523   C.3       2 RES2   0.0000
    55 H6       2.6897   4.8809   0.6052   H         2 RES2   0.0000
    56 C13      5.8713   3.8145   3.0080   C.2       2 RES2   0.0000
    57 H7       6.6874   3.5056   3.3306   H         2 RES2   0.0000
    58 C14      4.8456   4.3124   3.8037   C.2       2 RES2   0.0000
    59 H8       4.8484   4.3989   4.7301   H         2 RES2   0.0000
    60 C15      3.8419   4.6466   2.9563   C.2       2 RES2   0.0000
    61 H9       3.0171   5.0087   3.1887   H         2 RES2   0.0000
    62 C16      6.0493   6.0166  -1.4762   C.2       2 RES2   0.0000
    63 H10      6.8942   6.0525  -1.8628   H         2 RES2   0.0000
    64 C17      5.0738   7.0058  -1.6055   C.2       2 RES2   0.0000
    65 H11      5.1489   7.8020  -2.0785   H         2 RES2   0.0000
    66 C18      3.9949   6.5775  -0.9092   C.2       2 RES2   0.0000
    67 H12      3.1847   7.0205  -0.8069   H         2 RES2   0.0000
    68 C19      4.1668   1.4033  -1.0281   C.2       2 RES2   0.0000
    69 H13      4.7270   0.7269  -1.3370   H         2 RES2   0.0000
    70 C20      2.7774   1.3713  -1.1046   C.2       2 RES2   0.0000
    71 H14      2.2502   0.6923  -1.4580   H         2 RES2   0.0000
    72 C21      2.3510   2.5363  -0.5565   C.2       2 RES2   0.0000
    73 H15      1.4690   2.8146  -0.4647   H         2 RES2   0.0000
    74 N3F      7.1114   2.8179  -1.7266   N.2       2 RES2   0.0000
    75 N4F      8.3732   2.3048  -1.7177   N.pl3     2 RES2   0.0000
    76 N5F      7.0335   1.6356   0.7268   N.2       2 RES2   0.0000
    77 N6F      8.3018   1.2795   0.3947   N.pl3     2 RES2   0.0000
    78 N7F      8.0524   4.1412   0.4588   N.2       2 RES2   0.0000
    79 N8F      9.1899   3.4462   0.1720   N.pl3     2 RES2   0.0000
    80 C12F     9.0582   2.1570  -0.4523   C.3       2 RES2   0.0000
    81 H6F      9.9490   1.7761  -0.6052   H         2 RES2   0.0000
    82 C13F     6.7675   2.8425  -3.0080   C.2       2 RES2   0.0000
    83 H7F      5.9514   3.1514  -3.3306   H         2 RES2   0.0000
    84 C14F     7.7931   2.3446  -3.8037   C.2       2 RES2   0.0000
    85 H8F      7.7903   2.2581  -4.7301   H         2 RES2   0.0000
    86 C15F     8.7969   2.0104  -2.9563   C.2       2 RES2   0.0000
    87 H9F      9.6216   1.6483  -3.1887   H         2 RES2   0.0000
    88 C16F     6.5895   0.6404   1.4762   C.2       2 RES2   0.0000
    89 H10F     5.7445   0.6045   1.8628   H         2 RES2   0.0000
    90 C17F     7.5649  -0.3488   1.6055   C.2       2 RES2   0.0000
    91 H11F     7.4899  -1.1450   2.0785   H         2 RES2   0.0000
    92 C18F     8.6438   0.0795   0.9092   C.2       2 RES2   0.0000
    93 H12F     9.4541  -0.3635   0.8069   H         2 RES2   0.0000
    94 C19F     8.4719   5.2537   1.0281   C.2       2 RES2   0.0000
    95 H13F     7.9118   5.9301   1.3370   H         2 RES2   0.0000
    96 C20F     9.8614   5.2857   1.1046   C.2       2 RES2   0.0000
    97 H14F    10.3885   5.9647   1.4580   H         2 RES2   0.0000
    98 C21F    10.2877   4.1207   0.5565   C.2       2 RES2   0.0000
    99 H15F    11.1697   3.8424   0.4647   H         2 RES2   0.0000
   100 O7       3.1252   7.9240   1.9983   O.3       3 RES3   0.0000
   101 H16      2.1980   7.7621   1.8086   H         3 RES3   0.0000
   102 H17      3.5134   8.5875   1.4190   H         3 RES3   0.0000
   103 O8       0.8821  -3.0156   1.0031   O.3       4 RES4   0.0000
   104 H18      0.9246  -2.6229   1.8781   H         4 RES4   0.0000
   105 H19      1.7322  -3.1820   0.6260   H         4 RES4   0.0000
@<TRIPOS>BOND
     1     1     2    1
     2     2    10    1
     3     3    10    2
     4     4     1    1
     5     5     1    1
     6     6    16    2
     7     7    25    2
     8     8     1    1
     9     9     1    1
    10    10    11    1
    11    11     8   ar
    12    12    11   ar
    13    13    12    1
    14    14    12   ar
    15    15    14    1
    16    16     4    1
    17    17     9   ar
    18    18    17   ar
    19    19    18    1
    20    20    18   ar
    21    21    20    1
    22    22    20   ar
    23    23    22    1
    24    24     9   ar
    25    25     5    1
    26    26     1    1
    27    27    28    2
    28    28    26    1
    29    29     8   ar
    30    30    14   ar
    31    31    30    1
    32    32     1    1
    33    33     1    1
    34    34    37    2
    35    35    46    1
    36    36     1    1
    37    37    32    1
    38    38    36   ar
    39    39    38   ar
    40    40    39    1
    41    41    39   ar
    42    42    41    1
    43    43    41   ar
    44    44    43    1
    45    45    36   ar
    46    46    33    2
    47    16    17    1
    48    22    24   ar
    49    24    25    1
    50    28    29    1
    51    29    30   ar
    52    37    38    1
    53    43    45   ar
    54    45    46    1
    55    47    48    1
    56    48    49    1
    57    49    54    1
    58    50    47    1
    59    51    50    1
    60    52    47    1
    61    53    52    1
    62    54    51    1
    63    55    54    1
    64    56    48    2
    65    57    56    1
    66    58    56    1
    67    59    58    1
    68    60    49    1
    69    61    60    1
    70    62    50    2
    71    63    62    1
    72    64    62    1
    73    65    64    1
    74    66    51    1
    75    67    66    1
    76    68    52    2
    77    69    68    1
    78    70    68    1
    79    71    70    1
    80    72    53    1
    81    73    72    1
    82    74    47    1
    83    75    74    1
    84    76    47    1
    85    77    76    1
    86    78    47    1
    87    79    78    1
    88    80    75    1
    89    81    80    1
    90    82    74    2
    91    83    82    1
    92    84    82    1
    93    85    84    1
    94    86    75    1
    95    87    86    1
    96    88    76    2
    97    89    88    1
    98    90    88    1
    99    91    90    1
   100    92    77    1
   101    93    92    1
   102    94    78    2
   103    95    94    1
   104    96    94    1
   105    97    96    1
   106    98    79    1
   107    99    98    1
   108    53    54    1
   109    58    60    2
   110    64    66    2
   111    70    72    2
   112    77    80    1
   113    79    80    1
   114    84    86    2
   115    90    92    2
   116    96    98    2
   117   100   101    1
   118   102   100    1
   119   103   104    1
   120   105   103    1
@<TRIPOS>SUBSTRUCTURE
     1 RES1        1 GROUP             0 ****  ****    0  
     2 RES2       47 GROUP             0 ****  ****    0  
     3 RES3      100 GROUP             0 ****  ****    0  
     4 RES4      103 GROUP             0 ****  ****    0  
@<TRIPOS>CRYSIN
   25.2775   13.3140   15.3326   90.0000  114.8570   90.0000    15     1
