@<TRIPOS>MOLECULE
OXIXOL
    90    99     2     0     0
SMALL
USER_CHARGES
****
Generated from the CSD

@<TRIPOS>ATOM
     1 B1       7.4389  13.2910  13.0386   B         1 RES1  -1.0000
     2 C1       5.8590  13.5387  12.9543   C.ar      1 RES1   0.0000
     3 C2       5.1837  14.4266  13.7787   C.ar      1 RES1   0.0000
     4 H1       5.6695  14.9336  14.3898   H         1 RES1   0.0000
     5 C3       3.8055  14.5820  13.7193   C.ar      1 RES1   0.0000
     6 H2       3.3772  15.1735  14.2963   H         1 RES1   0.0000
     7 C4       3.0858  13.8706  12.8221   C.ar      1 RES1   0.0000
     8 H3       2.1659  13.9909  12.7608   H         1 RES1   0.0000
     9 C5       3.7181  12.9722  12.0043   C.ar      1 RES1   0.0000
    10 H4       3.2256  12.4648  11.4005   H         1 RES1   0.0000
    11 C6       5.0689  12.8250  12.0770   C.ar      1 RES1   0.0000
    12 H5       5.4791  12.2136  11.5095   H         1 RES1   0.0000
    13 F1       8.0405  13.9818  14.1059   F         1 RES1   0.0000
    14 F2       8.0873  13.7242  11.8755   F         1 RES1   0.0000
    15 F3       7.7203  11.9429  13.2616   F         1 RES1   0.0000
    16 C7      14.5155   8.6939  13.0914   C.ar      2 RES2   0.0000
    17 C8      15.7287   9.1373  13.6499   C.ar      2 RES2   0.0000
    18 H6      15.8086  10.0160  13.9449   H         2 RES2   0.0000
    19 C9      16.7916   8.2821  13.7606   C.ar      2 RES2   0.0000
    20 H7      17.5883   8.5838  14.1347   H         2 RES2   0.0000
    21 C10     16.6924   6.9744  13.3211   C.ar      2 RES2   0.0000
    22 C11     15.5387   6.5128  12.7544   C.ar      2 RES2   0.0000
    23 H8      15.4849   5.6322  12.4593   H         2 RES2   0.0000
    24 C12     14.4339   7.3674  12.6176   C.ar      2 RES2   0.0000
    25 C13     13.2646   6.8428  11.9708   C.2       2 RES2   0.0000
    26 H9      13.3007   5.9549  11.6954   H         2 RES2   0.0000
    27 C14     11.1011   6.7204  11.0345   C.3       2 RES2   0.0000
    28 H10     10.9390   5.8898  11.5283   H         2 RES2   0.0000
    29 C15     11.4554   6.3598   9.5989   C.ar      2 RES2   0.0000
    30 C16     11.2800   5.0793   9.1396   C.ar      2 RES2   0.0000
    31 H11     10.9982   4.4169   9.7287   H         2 RES2   0.0000
    32 C17     11.5164   4.7594   7.8162   C.ar      2 RES2   0.0000
    33 H12     11.3869   3.8881   7.5182   H         2 RES2   0.0000
    34 C18     11.9360   5.7157   6.9555   C.ar      2 RES2   0.0000
    35 H13     12.0966   5.5016   6.0648   H         2 RES2   0.0000
    36 C19     12.1226   6.9979   7.3966   C.ar      2 RES2   0.0000
    37 H14     12.4177   7.6504   6.8030   H         2 RES2   0.0000
    38 C20     11.8776   7.3334   8.7199   C.ar      2 RES2   0.0000
    39 H15     11.9982   8.2083   9.0125   H         2 RES2   0.0000
    40 C21      9.8265   7.5397  11.0511   C.ar      2 RES2   0.0000
    41 C22      8.6422   7.0161  10.5637   C.ar      2 RES2   0.0000
    42 H16      8.6085   6.1480  10.2326   H         2 RES2   0.0000
    43 C23      7.5096   7.8142  10.5786   C.ar      2 RES2   0.0000
    44 H17      6.7048   7.4853  10.2459   H         2 RES2   0.0000
    45 C24      7.5750   9.0932  11.0841   C.ar      2 RES2   0.0000
    46 H18      6.8227   9.6391  11.1081   H         2 RES2   0.0000
    47 C25      8.7874   9.5400  11.5550   C.ar      2 RES2   0.0000
    48 H19      8.8391  10.4001  11.9049   H         2 RES2   0.0000
    49 C26     12.0503  11.5239  10.1374   C.ar      2 RES2   0.0000
    50 C27     12.4681  11.7982   8.8157   C.ar      2 RES2   0.0000
    51 H20     12.8650  11.1264   8.3107   H         2 RES2   0.0000
    52 C28     12.2923  13.0551   8.2639   C.ar      2 RES2   0.0000
    53 H21     12.5732  13.2203   7.3930   H         2 RES2   0.0000
    54 C29     11.7084  14.0618   8.9942   C.ar      2 RES2   0.0000
    55 C30     11.3024  13.8391  10.2878   C.ar      2 RES2   0.0000
    56 H22     10.9170  14.5298  10.7762   H         2 RES2   0.0000
    57 C31     11.4696  12.5637  10.8809   C.ar      2 RES2   0.0000
    58 C32     11.0577  12.4201  12.2423   C.2       2 RES2   0.0000
    59 H23     10.6838  13.1690  12.6489   H         2 RES2   0.0000
    60 C33     10.6915  11.4883  14.3652   C.3       2 RES2   0.0000
    61 H24      9.8422  11.9776  14.3679   H         2 RES2   0.0000
    62 C34     11.6758  12.2432  15.2343   C.ar      2 RES2   0.0000
    63 C35     11.3252  13.4505  15.8042   C.ar      2 RES2   0.0000
    64 H25     10.4839  13.8121  15.6404   H         2 RES2   0.0000
    65 C36     12.2244  14.1309  16.6237   C.ar      2 RES2   0.0000
    66 H26     11.9815  14.9441  17.0035   H         2 RES2   0.0000
    67 C37     13.4310  13.6198  16.8632   C.ar      2 RES2   0.0000
    68 H27     14.0219  14.0776  17.4180   H         2 RES2   0.0000
    69 C38     13.8148  12.4234  16.3015   C.ar      2 RES2   0.0000
    70 H28     14.6643  12.0830  16.4651   H         2 RES2   0.0000
    71 C39     12.9361  11.7314  15.4986   C.ar      2 RES2   0.0000
    72 H29     13.1900  10.9163  15.1305   H         2 RES2   0.0000
    73 C40     10.4398  10.1062  14.9121   C.ar      2 RES2   0.0000
    74 C41      9.8068   9.9356  16.1413   C.ar      2 RES2   0.0000
    75 H30      9.5541  10.6730  16.6493   H         2 RES2   0.0000
    76 C42      9.5605   8.6594  16.5923   C.ar      2 RES2   0.0000
    77 H31      9.1226   8.5218  17.4014   H         2 RES2   0.0000
    78 C43      9.9703   7.5895  15.8323   C.ar      2 RES2   0.0000
    79 H32      9.8179   6.7194  16.1249   H         2 RES2   0.0000
    80 C44     10.6004   7.8169  14.6494   C.ar      2 RES2   0.0000
    81 H33     10.8756   7.0883  14.1421   H         2 RES2   0.0000
    82 Cl1     18.1059   5.8913  13.5611   Cl        2 RES2   0.0000
    83 Cl2     11.4655  15.6541   8.2537   Cl        2 RES2   0.0000
    84 Fe1     11.7762   9.4863  12.2698   Fe        2 RES2   1.0000
    85 N1      12.1739   7.4766  11.7346   N.2       2 RES2   0.0000
    86 N2       9.9010   8.7906  11.5294   N.ar      2 RES2   0.0000
    87 N3      11.1520  11.3668  12.9561   N.2       2 RES2   0.0000
    88 N4      10.8406   9.0592  14.1860   N.ar      2 RES2   0.0000
    89 O1      13.5143   9.5231  13.0280   O.3       2 RES2   0.0000
    90 O2      12.2122  10.3161  10.6185   O.3       2 RES2   0.0000
@<TRIPOS>BOND
     1     1     2    1
     2     2     3   ar
     3     3     4    1
     4     5     3   ar
     5     6     5    1
     6     7     5   ar
     7     8     7    1
     8     9     7   ar
     9    10     9    1
    10    11     2   ar
    11    12    11    1
    12    13     1    1
    13    14     1    1
    14    15     1    1
    15     9    11   ar
    16    16    17   ar
    17    17    18    1
    18    19    17   ar
    19    20    19    1
    20    21    19   ar
    21    22    21   ar
    22    23    22    1
    23    24    16   ar
    24    25    24    1
    25    26    25    1
    26    27    28    1
    27    29    27    1
    28    30    29   ar
    29    31    30    1
    30    32    30   ar
    31    33    32    1
    32    34    32   ar
    33    35    34    1
    34    36    34   ar
    35    37    36    1
    36    38    29   ar
    37    39    38    1
    38    40    27    1
    39    41    40   ar
    40    42    41    1
    41    43    41   ar
    42    44    43    1
    43    45    43   ar
    44    46    45    1
    45    47    45   ar
    46    48    47    1
    47    49    50   ar
    48    50    51    1
    49    52    50   ar
    50    53    52    1
    51    54    52   ar
    52    55    54   ar
    53    56    55    1
    54    57    49   ar
    55    58    57    1
    56    59    58    1
    57    60    61    1
    58    62    60    1
    59    63    62   ar
    60    64    63    1
    61    65    63   ar
    62    66    65    1
    63    67    65   ar
    64    68    67    1
    65    69    67   ar
    66    70    69    1
    67    71    62   ar
    68    72    71    1
    69    73    60    1
    70    74    73   ar
    71    75    74    1
    72    76    74   ar
    73    77    76    1
    74    78    76   ar
    75    79    78    1
    76    80    78   ar
    77    81    80    1
    78    82    21    1
    79    83    54    1
    80    84    85    1
    81    85    25    2
    82    86    40   ar
    83    87    58    2
    84    88    73   ar
    85    89    16    1
    86    90    49    1
    87    22    24   ar
    88    27    85    1
    89    36    38   ar
    90    47    86   ar
    91    55    57   ar
    92    60    87    1
    93    69    71   ar
    94    80    88   ar
    95    84    86    1
    96    84    87    1
    97    84    88    1
    98    84    89    1
    99    84    90    1
@<TRIPOS>SUBSTRUCTURE
     1 RES1        1 GROUP             0 ****  ****    0  
     2 RES2       16 GROUP             0 ****  ****    0  
@<TRIPOS>CRYSIN
   11.3021   11.4463   17.2785   74.5410   89.9280   65.3080     2     1
