@<TRIPOS>MOLECULE
OXIXUR01
    90    99     2     0     0
SMALL
USER_CHARGES
****
Generated from the CSD

@<TRIPOS>ATOM
     1 B1      -3.5662   0.5496  13.0706   B         1 RES1  -1.0000
     2 C1      -3.1243  -0.9925  12.9321   C.ar      1 RES1   0.0000
     3 C2      -3.5888  -1.9980  13.7882   C.ar      1 RES1   0.0000
     4 H1      -4.1947  -1.7762  14.4578   H         1 RES1   0.0000
     5 C3      -3.1697  -3.3223  13.6664   C.ar      1 RES1   0.0000
     6 H2      -3.4923  -3.9668  14.2542   H         1 RES1   0.0000
     7 C4      -2.2782  -3.6787  12.6767   C.ar      1 RES1   0.0000
     8 H3      -2.0055  -4.5634  12.5870   H         1 RES1   0.0000
     9 C5      -1.7911  -2.7042  11.8146   C.ar      1 RES1   0.0000
    10 H4      -1.1847  -2.9327  11.1475   H         1 RES1   0.0000
    11 C6      -2.2116  -1.3876  11.9515   C.ar      1 RES1   0.0000
    12 H5      -1.8733  -0.7461  11.3694   H         1 RES1   0.0000
    13 F1      -4.5332   0.7313  14.0888   F         1 RES1   0.0000
    14 F2      -4.1054   1.0580  11.8631   F         1 RES1   0.0000
    15 F3      -2.4494   1.3635  13.4063   F         1 RES1   0.0000
    16 C7      -3.0879   8.7945  13.0187   C.ar      2 RES2   0.0000
    17 C8      -4.0485   9.6940  13.5406   C.ar      2 RES2   0.0000
    18 H6      -4.8594   9.3671  13.8576   H         2 RES2   0.0000
    19 C9      -3.7965  11.0491  13.5846   C.ar      2 RES2   0.0000
    20 H7      -4.4372  11.6364  13.9155   H         2 RES2   0.0000
    21 C10     -2.5750  11.5260  13.1291   C.ar      2 RES2   0.0000
    22 C11     -1.6122  10.7083  12.6149   C.ar      2 RES2   0.0000
    23 H8      -0.8024  11.0592  12.3217   H         2 RES2   0.0000
    24 C12     -1.8636   9.3161  12.5337   C.ar      2 RES2   0.0000
    25 C13     -0.8644   8.5030  11.8948   C.2       2 RES2   0.0000
    26 H9      -0.0773   8.9264  11.6379   H         2 RES2   0.0000
    27 C14      0.1778   6.6470  10.8942   C.3       2 RES2   0.0000
    28 H10      1.0085   6.8577  11.3696   H         2 RES2   0.0000
    29 C15      0.2835   7.1835   9.4712   C.ar      2 RES2   0.0000
    30 C16      1.4911   7.6945   9.0115   C.ar      2 RES2   0.0000
    31 H11      2.2238   7.7416   9.5824   H         2 RES2   0.0000
    32 C17      1.6039   8.1364   7.6946   C.ar      2 RES2   0.0000
    33 H12      2.4146   8.4727   7.3871   H         2 RES2   0.0000
    34 C18      0.5243   8.0774   6.8500   C.ar      2 RES2   0.0000
    35 H13      0.6020   8.3762   5.9726   H         2 RES2   0.0000
    36 C19     -0.6846   7.5702   7.3088   C.ar      2 RES2   0.0000
    37 H14     -1.4163   7.5324   6.7360   H         2 RES2   0.0000
    38 C20     -0.8089   7.1194   8.6152   C.ar      2 RES2   0.0000
    39 H15     -1.6192   6.7763   8.9162   H         2 RES2   0.0000
    40 C21      0.0132   5.1388  10.8548   C.ar      2 RES2   0.0000
    41 C22      1.0010   4.3296  10.3081   C.ar      2 RES2   0.0000
    42 H16      1.7828   4.7027   9.9696   H         2 RES2   0.0000
    43 C23      0.8047   2.9591  10.2744   C.ar      2 RES2   0.0000
    44 H17      1.4488   2.3997   9.9042   H         2 RES2   0.0000
    45 C24     -0.3615   2.4334  10.7984   C.ar      2 RES2   0.0000
    46 H18     -0.5037   1.5143  10.8038   H         2 RES2   0.0000
    47 C25     -1.3101   3.2896  11.3126   C.ar      2 RES2   0.0000
    48 H19     -2.0994   2.9352  11.6535   H         2 RES2   0.0000
    49 C26     -4.5217   5.3859   9.9643   C.ar      2 RES2   0.0000
    50 C27     -4.9210   5.6703   8.6374   C.ar      2 RES2   0.0000
    51 H20     -4.4613   6.3161   8.1510   H         2 RES2   0.0000
    52 C28     -5.9801   5.0072   8.0509   C.ar      2 RES2   0.0000
    53 H21     -6.2359   5.2044   7.1787   H         2 RES2   0.0000
    54 C29     -6.6568   4.0425   8.7816   C.ar      2 RES2   0.0000
    55 C30     -6.3234   3.7314  10.0667   C.ar      2 RES2   0.0000
    56 H22     -6.8013   3.0826  10.5310   H         2 RES2   0.0000
    57 C31     -5.2457   4.4025  10.6874   C.ar      2 RES2   0.0000
    58 C32     -4.9661   4.0681  12.0577   C.2       2 RES2   0.0000
    59 H23     -5.4975   3.4127  12.4488   H         2 RES2   0.0000
    60 C33     -3.9850   4.0930  14.1915   C.3       2 RES2   0.0000
    61 H24     -4.1000   3.1199  14.1739   H         2 RES2   0.0000
    62 C34     -5.0672   4.6840  15.0851   C.ar      2 RES2   0.0000
    63 C35     -6.0155   3.8502  15.6633   C.ar      2 RES2   0.0000
    64 H25     -6.0163   2.9417  15.4646   H         2 RES2   0.0000
    65 C36     -6.9679   4.3709  16.5422   C.ar      2 RES2   0.0000
    66 H26     -7.5978   3.8084  16.9317   H         2 RES2   0.0000
    67 C37     -6.9744   5.7167  16.8319   C.ar      2 RES2   0.0000
    68 H27     -7.6027   6.0619  17.4244   H         2 RES2   0.0000
    69 C38     -6.0451   6.5568  16.2408   C.ar      2 RES2   0.0000
    70 H28     -6.0601   7.4676  16.4281   H         2 RES2   0.0000
    71 C39     -5.0922   6.0473  15.3710   C.ar      2 RES2   0.0000
    72 H29     -4.4697   6.6159  14.9787   H         2 RES2   0.0000
    73 C40     -2.6121   4.3965  14.7431   C.ar      2 RES2   0.0000
    74 C41     -2.1922   3.8390  15.9485   C.ar      2 RES2   0.0000
    75 H30     -2.7644   3.2943  16.4390   H         2 RES2   0.0000
    76 C42     -0.9181   4.1040  16.4068   C.ar      2 RES2   0.0000
    77 H31     -0.6191   3.7413  17.2093   H         2 RES2   0.0000
    78 C43     -0.0897   4.9213  15.6492   C.ar      2 RES2   0.0000
    79 H32      0.7787   5.1029  15.9279   H         2 RES2   0.0000
    80 C44     -0.5765   5.4585  14.4781   C.ar      2 RES2   0.0000
    81 H33     -0.0248   6.0156  13.9777   H         2 RES2   0.0000
    82 F4      -2.3426  12.8745  13.1884   F         2 RES2   0.0000
    83 F5      -7.6825   3.3687   8.1858   F         2 RES2   0.0000
    84 Fe1     -2.5934   5.9832  12.1525   Fe        2 RES2   1.0000
    85 N1      -0.9587   7.2378  11.6444   N.2       2 RES2   0.0000
    86 N2      -1.1296   4.6275  11.3371   N.ar      2 RES2   0.0000
    87 N3      -4.0470   4.5928  12.7949   N.2       2 RES2   0.0000
    88 N4      -1.8222   5.2068  14.0303   N.ar      2 RES2   0.0000
    89 O1      -3.3691   7.5130  12.9746   O.3       2 RES2   0.0000
    90 O2      -3.5159   6.0474  10.4857   O.3       2 RES2   0.0000
@<TRIPOS>BOND
     1     1     2    1
     2     2     3   ar
     3     3     4    1
     4     5     3   ar
     5     6     5    1
     6     7     5   ar
     7     8     7    1
     8     9     7   ar
     9    10     9    1
    10    11     2   ar
    11    12    11    1
    12    13     1    1
    13    14     1    1
    14    15     1    1
    15     9    11   ar
    16    16    17   ar
    17    17    18    1
    18    19    17   ar
    19    20    19    1
    20    21    19   ar
    21    22    21   ar
    22    23    22    1
    23    24    16   ar
    24    25    24    1
    25    26    25    1
    26    27    28    1
    27    29    27    1
    28    30    29   ar
    29    31    30    1
    30    32    30   ar
    31    33    32    1
    32    34    32   ar
    33    35    34    1
    34    36    34   ar
    35    37    36    1
    36    38    29   ar
    37    39    38    1
    38    40    27    1
    39    41    40   ar
    40    42    41    1
    41    43    41   ar
    42    44    43    1
    43    45    43   ar
    44    46    45    1
    45    47    45   ar
    46    48    47    1
    47    49    50   ar
    48    50    51    1
    49    52    50   ar
    50    53    52    1
    51    54    52   ar
    52    55    54   ar
    53    56    55    1
    54    57    49   ar
    55    58    57    1
    56    59    58    1
    57    60    61    1
    58    62    60    1
    59    63    62   ar
    60    64    63    1
    61    65    63   ar
    62    66    65    1
    63    67    65   ar
    64    68    67    1
    65    69    67   ar
    66    70    69    1
    67    71    62   ar
    68    72    71    1
    69    73    60    1
    70    74    73   ar
    71    75    74    1
    72    76    74   ar
    73    77    76    1
    74    78    76   ar
    75    79    78    1
    76    80    78   ar
    77    81    80    1
    78    82    21    1
    79    83    54    1
    80    84    85    1
    81    85    25    2
    82    86    40   ar
    83    87    58    2
    84    88    73   ar
    85    89    16    1
    86    90    49    1
    87    22    24   ar
    88    27    85    1
    89    36    38   ar
    90    47    86   ar
    91    55    57   ar
    92    60    87    1
    93    69    71   ar
    94    80    88   ar
    95    84    86    1
    96    84    87    1
    97    84    88    1
    98    84    89    1
    99    84    90    1
@<TRIPOS>SUBSTRUCTURE
     1 RES1        1 GROUP             0 ****  ****    0  
     2 RES2       16 GROUP             0 ****  ****    0  
@<TRIPOS>CRYSIN
   11.0086   11.3189   17.2563   91.6380  104.8850  117.3220     2     1
