@<TRIPOS>MOLECULE
OXIXUR
    90    99     2     0     0
SMALL
USER_CHARGES
****
Generated from the CSD

@<TRIPOS>ATOM
     1 B1       5.1010   6.7631   3.4163   B         1 RES1  -1.0000
     2 C1       4.6777   8.2968   3.5344   C.ar      1 RES1   0.0000
     3 C2       5.1644   9.2918   2.6970   C.ar      1 RES1   0.0000
     4 H1       5.7930   9.0664   2.0493   H         1 RES1   0.0000
     5 C3       4.7439  10.6171   2.7947   C.ar      1 RES1   0.0000
     6 H2       5.0807  11.2579   2.2110   H         1 RES1   0.0000
     7 C4       3.8356  10.9718   3.7479   C.ar      1 RES1   0.0000
     8 H3       3.5567  11.8560   3.8270   H         1 RES1   0.0000
     9 C5       3.3417  10.0170   4.5824   C.ar      1 RES1   0.0000
    10 H4       2.7199  10.2515   5.2318   H         1 RES1   0.0000
    11 C6       3.7496   8.7228   4.4758   C.ar      1 RES1   0.0000
    12 H5       3.3893   8.0952   5.0602   H         1 RES1   0.0000
    13 F1       6.0539   6.5486   2.3983   F         1 RES1   0.0000
    14 F2       5.6426   6.2664   4.6062   F         1 RES1   0.0000
    15 F3       3.9895   5.9548   3.0808   F         1 RES1   0.0000
    16 C7       4.5283  -1.5459   3.4285   C.ar      2 RES2   0.0000
    17 C8       5.4725  -2.4463   2.8966   C.ar      2 RES2   0.0000
    18 H6       6.2810  -2.1222   2.5698   H         2 RES2   0.0000
    19 C9       5.2196  -3.7944   2.8537   C.ar      2 RES2   0.0000
    20 H7       5.8545  -4.3813   2.5122   H         2 RES2   0.0000
    21 C10      4.0151  -4.2673   3.3209   C.ar      2 RES2   0.0000
    22 C11      3.0665  -3.4521   3.8425   C.ar      2 RES2   0.0000
    23 H8       2.2590  -3.8023   4.1419   H         2 RES2   0.0000
    24 C12      3.3186  -2.0674   3.9261   C.ar      2 RES2   0.0000
    25 C13      2.3312  -1.2523   4.5687   C.2       2 RES2   0.0000
    26 H9       1.5473  -1.6760   4.8336   H         2 RES2   0.0000
    27 C14      1.2880   0.6014   5.5655   C.3       2 RES2   0.0000
    28 H10      0.4570   0.3923   5.0894   H         2 RES2   0.0000
    29 C15      1.1753   0.0630   6.9921   C.ar      2 RES2   0.0000
    30 C16     -0.0234  -0.4404   7.4398   C.ar      2 RES2   0.0000
    31 H11     -0.7547  -0.4793   6.8668   H         2 RES2   0.0000
    32 C17     -0.1411  -0.8925   8.7490   C.ar      2 RES2   0.0000
    33 H12     -0.9537  -1.2296   9.0513   H         2 RES2   0.0000
    34 C18      0.9192  -0.8430   9.5833   C.ar      2 RES2   0.0000
    35 H13      0.8386  -1.1507  10.4572   H         2 RES2   0.0000
    36 C19      2.1170  -0.3386   9.1397   C.ar      2 RES2   0.0000
    37 H14      2.8439  -0.3051   9.7183   H         2 RES2   0.0000
    38 C20      2.2538   0.1221   7.8402   C.ar      2 RES2   0.0000
    39 H15      3.0655   0.4667   7.5461   H         2 RES2   0.0000
    40 C21      1.4547   2.1024   5.5982   C.ar      2 RES2   0.0000
    41 C22      0.4753   2.9188   6.1419   C.ar      2 RES2   0.0000
    42 H16     -0.3066   2.5502   6.4838   H         2 RES2   0.0000
    43 C23      0.6707   4.2754   6.1716   C.ar      2 RES2   0.0000
    44 H17      0.0274   4.8346   6.5443   H         2 RES2   0.0000
    45 C24      1.8239   4.8003   5.6461   C.ar      2 RES2   0.0000
    46 H18      1.9632   5.7198   5.6341   H         2 RES2   0.0000
    47 C25      2.7628   3.9485   5.1411   C.ar      2 RES2   0.0000
    48 H19      3.5517   4.3030   4.7990   H         2 RES2   0.0000
    49 C26      6.0004   1.8409   6.4688   C.ar      2 RES2   0.0000
    50 C27      6.4152   1.5511   7.7818   C.ar      2 RES2   0.0000
    51 H20      5.9596   0.9028   8.2691   H         2 RES2   0.0000
    52 C28      7.4764   2.2045   8.3612   C.ar      2 RES2   0.0000
    53 H21      7.7374   2.0024   9.2309   H         2 RES2   0.0000
    54 C29      8.1483   3.1594   7.6363   C.ar      2 RES2   0.0000
    55 C30      7.8037   3.4818   6.3644   C.ar      2 RES2   0.0000
    56 H22      8.2785   4.1330   5.9011   H         2 RES2   0.0000
    57 C31      6.7203   2.8223   5.7499   C.ar      2 RES2   0.0000
    58 C32      6.4217   3.1667   4.3867   C.2       2 RES2   0.0000
    59 H23      6.9479   3.8260   3.9958   H         2 RES2   0.0000
    60 C33      5.4225   3.1641   2.2631   C.3       2 RES2   0.0000
    61 H24      5.5216   4.1388   2.2881   H         2 RES2   0.0000
    62 C34      6.5182   2.5993   1.3680   C.ar      2 RES2   0.0000
    63 C35      7.4687   3.4366   0.8379   C.ar      2 RES2   0.0000
    64 H25      7.4649   4.3409   1.0527   H         2 RES2   0.0000
    65 C36      8.4475   2.9250  -0.0274   C.ar      2 RES2   0.0000
    66 H26      9.0926   3.4918  -0.3839   H         2 RES2   0.0000
    67 C37      8.4541   1.6165  -0.3439   C.ar      2 RES2   0.0000
    68 H27      9.0945   1.2856  -0.9318   H         2 RES2   0.0000
    69 C38      7.5246   0.7724   0.1962   C.ar      2 RES2   0.0000
    70 H28      7.5453  -0.1337  -0.0111   H         2 RES2   0.0000
    71 C39      6.5535   1.2609   1.0477   C.ar      2 RES2   0.0000
    72 H29      5.9205   0.6819   1.4072   H         2 RES2   0.0000
    73 C40      4.0604   2.8467   1.7084   C.ar      2 RES2   0.0000
    74 C41      3.6332   3.3910   0.5046   C.ar      2 RES2   0.0000
    75 H30      4.1973   3.9455   0.0153   H         2 RES2   0.0000
    76 C42      2.3769   3.1073   0.0424   C.ar      2 RES2   0.0000
    77 H31      2.0778   3.4618  -0.7636   H         2 RES2   0.0000
    78 C43      1.5664   2.2905   0.7871   C.ar      2 RES2   0.0000
    79 H32      0.7017   2.0984   0.5024   H         2 RES2   0.0000
    80 C44      2.0439   1.7635   1.9534   C.ar      2 RES2   0.0000
    81 H33      1.4946   1.1971   2.4465   H         2 RES2   0.0000
    82 F4       3.7833  -5.6109   3.2595   F         2 RES2   0.0000
    83 F5       9.1834   3.8214   8.2270   F         2 RES2   0.0000
    84 Fe1      4.0543   1.2581   4.2977   Fe        2 RES2   1.0000
    85 N1       2.4211   0.0047   4.8154   N.2       2 RES2   0.0000
    86 N2       2.5900   2.6175   5.1203   N.ar      2 RES2   0.0000
    87 N3       5.5019   2.6554   3.6582   N.2       2 RES2   0.0000
    88 N4       3.2780   2.0310   2.4155   N.ar      2 RES2   0.0000
    89 O1       4.8115  -0.2708   3.4636   O.3       2 RES2   0.0000
    90 O2       4.9898   1.1877   5.9505   O.3       2 RES2   0.0000
@<TRIPOS>BOND
     1     1     2    1
     2     2     3   ar
     3     3     4    1
     4     5     3   ar
     5     6     5    1
     6     7     5   ar
     7     8     7    1
     8     9     7   ar
     9    10     9    1
    10    11     2   ar
    11    12    11    1
    12    13     1    1
    13    14     1    1
    14    15     1    1
    15     9    11   ar
    16    16    17   ar
    17    17    18    1
    18    19    17   ar
    19    20    19    1
    20    21    19   ar
    21    22    21   ar
    22    23    22    1
    23    24    16   ar
    24    25    24    1
    25    26    25    1
    26    27    28    1
    27    29    27    1
    28    30    29   ar
    29    31    30    1
    30    32    30   ar
    31    33    32    1
    32    34    32   ar
    33    35    34    1
    34    36    34   ar
    35    37    36    1
    36    38    29   ar
    37    39    38    1
    38    40    27    1
    39    41    40   ar
    40    42    41    1
    41    43    41   ar
    42    44    43    1
    43    45    43   ar
    44    46    45    1
    45    47    45   ar
    46    48    47    1
    47    49    50   ar
    48    50    51    1
    49    52    50   ar
    50    53    52    1
    51    54    52   ar
    52    55    54   ar
    53    56    55    1
    54    57    49   ar
    55    58    57    1
    56    59    58    1
    57    60    61    1
    58    62    60    1
    59    63    62   ar
    60    64    63    1
    61    65    63   ar
    62    66    65    1
    63    67    65   ar
    64    68    67    1
    65    69    67   ar
    66    70    69    1
    67    71    62   ar
    68    72    71    1
    69    73    60    1
    70    74    73   ar
    71    75    74    1
    72    76    74   ar
    73    77    76    1
    74    78    76   ar
    75    79    78    1
    76    80    78   ar
    77    81    80    1
    78    82    21    1
    79    83    54    1
    80    84    85    1
    81    85    25    2
    82    86    40   ar
    83    87    58    2
    84    88    73   ar
    85    89    16    1
    86    90    49    1
    87    22    24   ar
    88    27    85    1
    89    36    38   ar
    90    47    86   ar
    91    55    57   ar
    92    60    87    1
    93    69    71   ar
    94    80    88   ar
    95    84    86    1
    96    84    87    1
    97    84    88    1
    98    84    89    1
    99    84    90    1
@<TRIPOS>SUBSTRUCTURE
     1 RES1        1 GROUP             0 ****  ****    0  
     2 RES2       16 GROUP             0 ****  ****    0  
@<TRIPOS>CRYSIN
   11.1459   11.4238   17.3313   91.8610  104.8550  116.9250     2     1
