@<TRIPOS>MOLECULE
OXIYOM01
    90    99     2     0     0
SMALL
USER_CHARGES
****
Generated from the CSD

@<TRIPOS>ATOM
     1 B1       5.8751  12.8464  14.2035   B         1 RES1  -1.0000
     2 C1       6.4257  14.3398  13.9505   C.ar      1 RES1   0.0000
     3 C2       6.2310  15.3871  14.8538   C.ar      1 RES1   0.0000
     4 H1       5.7345  15.2291  15.6240   H         1 RES1   0.0000
     5 C3       6.7545  16.6598  14.6382   C.ar      1 RES1   0.0000
     6 H2       6.6208  17.3312  15.2689   H         1 RES1   0.0000
     7 C4       7.4737  16.9248  13.4855   C.ar      1 RES1   0.0000
     8 H3       7.8114  17.7772  13.3268   H         1 RES1   0.0000
     9 C5       7.6863  15.9108  12.5715   C.ar      1 RES1   0.0000
    10 H4       8.1818  16.0764  11.8017   H         1 RES1   0.0000
    11 C6       7.1617  14.6415  12.7978   C.ar      1 RES1   0.0000
    12 H5       7.3045  13.9742  12.1660   H         1 RES1   0.0000
    13 F1       4.9130  12.8030  15.2493   F         1 RES1   0.0000
    14 F2       5.2436  12.3535  13.0668   F         1 RES1   0.0000
    15 F3       6.8950  11.9794  14.6097   F         1 RES1   0.0000
    16 C7       5.9662   4.3902  14.2748   C.ar      2 RES2   0.0000
    17 C8       4.9383   3.5829  14.8253   C.ar      2 RES2   0.0000
    18 H6       4.1285   3.9729  15.0653   H         2 RES2   0.0000
    19 C9       5.1186   2.2372  15.0124   C.ar      2 RES2   0.0000
    20 H7       4.4322   1.7173  15.3630   H         2 RES2   0.0000
    21 C10      6.3399   1.6495  14.6721   C.ar      2 RES2   0.0000
    22 C11      7.3402   2.3887  14.0984   C.ar      2 RES2   0.0000
    23 H8       8.1409   1.9782  13.8624   H         2 RES2   0.0000
    24 C12      7.1649   3.7569  13.8668   C.ar      2 RES2   0.0000
    25 C13      8.2190   4.4748  13.1808   C.2       2 RES2   0.0000
    26 H9       8.9643   3.9831  12.9196   H         2 RES2   0.0000
    27 C14      9.3675   6.2269  12.0869   C.3       2 RES2   0.0000
    28 H10     10.1971   5.8431  12.4411   H         2 RES2   0.0000
    29 C15      9.2109   5.8134  10.6277   C.ar      2 RES2   0.0000
    30 C16     10.0416   4.8496  10.0807   C.ar      2 RES2   0.0000
    31 H11     10.6966   4.4467  10.6036   H         2 RES2   0.0000
    32 C17      9.8943   4.4863   8.7427   C.ar      2 RES2   0.0000
    33 H12     10.4553   3.8410   8.3761   H         2 RES2   0.0000
    34 C18      8.9339   5.0677   7.9641   C.ar      2 RES2   0.0000
    35 H13      8.8343   4.8138   7.0744   H         2 RES2   0.0000
    36 C19      8.1068   6.0389   8.5110   C.ar      2 RES2   0.0000
    37 H14      7.4522   6.4412   7.9864   H         2 RES2   0.0000
    38 C20      8.2571   6.4055   9.8330   C.ar      2 RES2   0.0000
    39 H15      7.7055   7.0635  10.1923   H         2 RES2   0.0000
    40 C21      9.4314   7.7387  12.2098   C.ar      2 RES2   0.0000
    41 C22     10.5340   8.4517  11.7644   C.ar      2 RES2   0.0000
    42 H16     11.2711   8.0089  11.4084   H         2 RES2   0.0000
    43 C23     10.5198   9.8333  11.8570   C.ar      2 RES2   0.0000
    44 H17     11.2516  10.3283  11.5665   H         2 RES2   0.0000
    45 C24      9.4147  10.4691  12.3808   C.ar      2 RES2   0.0000
    46 H18      9.3830  11.3971  12.4375   H         2 RES2   0.0000
    47 C25      8.3617   9.7040  12.8173   C.ar      2 RES2   0.0000
    48 H19      7.6214  10.1289  13.1867   H         2 RES2   0.0000
    49 C26      4.9690   8.2502  11.3760   C.ar      2 RES2   0.0000
    50 C27      4.5797   8.2021  10.0077   C.ar      2 RES2   0.0000
    51 H20      4.8876   7.5088   9.4704   H         2 RES2   0.0000
    52 C28      3.7568   9.1637   9.4678   C.ar      2 RES2   0.0000
    53 H21      3.5219   9.1165   8.5686   H         2 RES2   0.0000
    54 C29      3.2698  10.2092  10.2571   C.ar      2 RES2   0.0000
    55 C30      3.6128  10.2611  11.5916   C.ar      2 RES2   0.0000
    56 H22      3.2788  10.9509  12.1170   H         2 RES2   0.0000
    57 C31      4.4484   9.3000  12.1759   C.ar      2 RES2   0.0000
    58 C32      4.7657   9.4376  13.5817   C.2       2 RES2   0.0000
    59 H23      4.3551  10.1373  14.0357   H         2 RES2   0.0000
    60 C33      5.7370   9.0506  15.6948   C.3       2 RES2   0.0000
    61 H24      5.7096  10.0261  15.7773   H         2 RES2   0.0000
    62 C34      4.6612   8.4535  16.6016   C.ar      2 RES2   0.0000
    63 C35      3.8568   9.2980  17.3428   C.ar      2 RES2   0.0000
    64 H25      3.9598  10.2188  17.2687   H         2 RES2   0.0000
    65 C36      2.8844   8.7674  18.2051   C.ar      2 RES2   0.0000
    66 H26      2.3437   9.3377  18.7030   H         2 RES2   0.0000
    67 C37      2.7356   7.4103  18.3138   C.ar      2 RES2   0.0000
    68 H27      2.0806   7.0604  18.8746   H         2 RES2   0.0000
    69 C38      3.5542   6.5579  17.5940   C.ar      2 RES2   0.0000
    70 H28      3.4602   5.6367  17.6861   H         2 RES2   0.0000
    71 C39      4.5179   7.0722  16.7299   C.ar      2 RES2   0.0000
    72 H29      5.0634   6.4988  16.2432   H         2 RES2   0.0000
    73 C40      7.0976   8.5667  16.1455   C.ar      2 RES2   0.0000
    74 C41      7.6776   9.0599  17.3125   C.ar      2 RES2   0.0000
    75 H30      7.2434   9.7139  17.8114   H         2 RES2   0.0000
    76 C42      8.9027   8.5714  17.7259   C.ar      2 RES2   0.0000
    77 H31      9.3041   8.8844  18.5038   H         2 RES2   0.0000
    78 C43      9.5213   7.5970  16.9455   C.ar      2 RES2   0.0000
    79 H32     10.3431   7.2415  17.1983   H         2 RES2   0.0000
    80 C44      8.9001   7.1660  15.7927   C.ar      2 RES2   0.0000
    81 H33      9.3242   6.5275  15.2673   H         2 RES2   0.0000
    82 Fe1      6.7464   7.1358  13.4780   Fe        2 RES2   1.0000
    83 I1       6.6653  -0.3638  15.1722   I         2 RES2   0.0000
    84 I2       2.1273  11.7282   9.3728   I         2 RES2   0.0000
    85 N1       8.2190   5.7338  12.8993   N.2       2 RES2   0.0000
    86 N2       8.3630   8.3587  12.7300   N.ar      2 RES2   0.0000
    87 N3       5.5571   8.6923  14.2641   N.2       2 RES2   0.0000
    88 N4       7.7007   7.6372  15.4008   N.ar      2 RES2   0.0000
    89 O1       5.7616   5.6757  14.1518   O.3       2 RES2   0.0000
    90 O2       5.7661   7.3345  11.8463   O.3       2 RES2   0.0000
@<TRIPOS>BOND
     1     1     2    1
     2     2     3   ar
     3     3     4    1
     4     5     3   ar
     5     6     5    1
     6     7     5   ar
     7     8     7    1
     8     9     7   ar
     9    10     9    1
    10    11     2   ar
    11    12    11    1
    12    13     1    1
    13    14     1    1
    14    15     1    1
    15     9    11   ar
    16    16    17   ar
    17    17    18    1
    18    19    17   ar
    19    20    19    1
    20    21    19   ar
    21    22    21   ar
    22    23    22    1
    23    24    16   ar
    24    25    24    1
    25    26    25    1
    26    27    28    1
    27    29    27    1
    28    30    29   ar
    29    31    30    1
    30    32    30   ar
    31    33    32    1
    32    34    32   ar
    33    35    34    1
    34    36    34   ar
    35    37    36    1
    36    38    29   ar
    37    39    38    1
    38    40    27    1
    39    41    40   ar
    40    42    41    1
    41    43    41   ar
    42    44    43    1
    43    45    43   ar
    44    46    45    1
    45    47    45   ar
    46    48    47    1
    47    49    50   ar
    48    50    51    1
    49    52    50   ar
    50    53    52    1
    51    54    52   ar
    52    55    54   ar
    53    56    55    1
    54    57    49   ar
    55    58    57    1
    56    59    58    1
    57    60    61    1
    58    62    60    1
    59    63    62   ar
    60    64    63    1
    61    65    63   ar
    62    66    65    1
    63    67    65   ar
    64    68    67    1
    65    69    67   ar
    66    70    69    1
    67    71    62   ar
    68    72    71    1
    69    73    60    1
    70    74    73   ar
    71    75    74    1
    72    76    74   ar
    73    77    76    1
    74    78    76   ar
    75    79    78    1
    76    80    78   ar
    77    81    80    1
    78    82    85    1
    79    83    21    1
    80    84    54    1
    81    85    25    2
    82    86    40   ar
    83    87    58    2
    84    88    73   ar
    85    89    16    1
    86    90    49    1
    87    22    24   ar
    88    27    85    1
    89    36    38   ar
    90    47    86   ar
    91    55    57   ar
    92    60    87    1
    93    69    71   ar
    94    80    88   ar
    95    82    86    1
    96    82    87    1
    97    82    88    1
    98    82    89    1
    99    82    90    1
@<TRIPOS>SUBSTRUCTURE
     1 RES1        1 GROUP             0 ****  ****    0  
     2 RES2       16 GROUP             0 ****  ****    0  
@<TRIPOS>CRYSIN
   10.6862   11.6656   18.7030   74.0590   89.8210   63.9530     2     1
