@<TRIPOS>MOLECULE
OXIYIG
    96   104     3     0     0
SMALL
USER_CHARGES
****
Generated from the CSD

@<TRIPOS>ATOM
     1 I1       7.6021  11.2439   9.5573   I         1 RES1   0.0000
     2 I2      12.6384  -0.6321  15.3617   I         1 RES1   0.0000
     3 Fe1     12.3413   6.8733  13.7229   Fe        1 RES1   1.0000
     4 O1      11.3545   7.0004  12.1040   O.3       1 RES1   0.0000
     5 O2      11.4437   5.3696  14.4255   O.3       1 RES1   0.0000
     6 N1      13.8631   5.5356  13.1219   N.2       1 RES1   0.0000
     7 N2      11.0989   8.3900  14.4990   N.2       1 RES1   0.0000
     8 N3      13.8918   8.1645  12.9528   N.ar      1 RES1   0.0000
     9 N4      13.2664   7.4167  15.6389   N.ar      1 RES1   0.0000
    10 C1      10.2821   9.1036  13.8030   C.2       1 RES1   0.0000
    11 H1       9.8405   9.7911  14.2475   H         1 RES1   0.0000
    12 C2      10.5382   7.9025  11.6130   C.ar      1 RES1   0.0000
    13 C3       9.9873   8.9388  12.4006   C.ar      1 RES1   0.0000
    14 C4      11.7080   4.0951  14.5538   C.ar      1 RES1   0.0000
    15 C5      13.9384   4.2879  13.4289   C.2       1 RES1   0.0000
    16 H2      14.7073   3.8323  13.1716   H         1 RES1   0.0000
    17 C6      12.9314   3.5374  14.1388   C.ar      1 RES1   0.0000
    18 C7      12.6219   8.3133  16.3889   C.ar      1 RES1   0.0000
    19 C8      12.2212   1.3788  14.9285   C.ar      1 RES1   0.0000
    20 C9      14.9685   7.5928  12.4093   C.ar      1 RES1   0.0000
    21 C10      8.8031   9.7944  10.4763   C.ar      1 RES1   0.0000
    22 C11     13.1828   2.1600  14.3532   C.ar      1 RES1   0.0000
    23 H3      13.9985   1.7893  14.1029   H         1 RES1   0.0000
    24 C12     14.7954   5.6639  10.8215   C.ar      1 RES1   0.0000
    25 C13     14.9691   6.0822  12.2827   C.3       1 RES1   0.0000
    26 H4      15.8231   5.7344  12.6145   H         1 RES1   0.0000
    27 C14      9.1267   9.8790  11.8006   C.ar      1 RES1   0.0000
    28 H5       8.7739  10.5688  12.3145   H         1 RES1   0.0000
    29 C15     11.2579   8.7665  15.9188   C.3       1 RES1   0.0000
    30 H6      11.2154   9.7435  15.9865   H         1 RES1   0.0000
    31 C16     10.7272   3.2480  15.1058   C.ar      1 RES1   0.0000
    32 H7       9.9014   3.5961  15.3541   H         1 RES1   0.0000
    33 C17     10.1770   8.1724  16.8213   C.ar      1 RES1   0.0000
    34 C18     10.1677   7.8327  10.2538   C.ar      1 RES1   0.0000
    35 H8      10.4985   7.1428   9.7252   H         1 RES1   0.0000
    36 C19     10.9876   1.9101  15.2794   C.ar      1 RES1   0.0000
    37 H9      10.3313   1.3561  15.6359   H         1 RES1   0.0000
    38 C20      9.3309   8.7636   9.7002   C.ar      1 RES1   0.0000
    39 H10      9.1128   8.7071   8.7975   H         1 RES1   0.0000
    40 C21     14.4780   6.9803  16.0555   C.ar      1 RES1   0.0000
    41 H11     14.9324   6.3602  15.5325   H         1 RES1   0.0000
    42 C22     13.8331   9.5110  13.0307   C.ar      1 RES1   0.0000
    43 H12     13.0807   9.9064  13.4085   H         1 RES1   0.0000
    44 C23     15.5838   4.6816  10.2791   C.ar      1 RES1   0.0000
    45 H13     16.2296   4.2626  10.8007   H         1 RES1   0.0000
    46 C24     15.4198   4.3109   8.9422   C.ar      1 RES1   0.0000
    47 H14     15.9630   3.6500   8.5785   H         1 RES1   0.0000
    48 C25     14.8454  10.3161  12.5712   C.ar      1 RES1   0.0000
    49 H15     14.7810  11.2421  12.6282   H         1 RES1   0.0000
    50 C26     15.0626   7.4147  17.2169   C.ar      1 RES1   0.0000
    51 H16     15.8922   7.0884  17.4813   H         1 RES1   0.0000
    52 C27     14.4757   4.9084   8.1716   C.ar      1 RES1   0.0000
    53 H17     14.3586   4.6443   7.2867   H         1 RES1   0.0000
    54 C28      9.3288   9.0006  17.4973   C.ar      1 RES1   0.0000
    55 H18      9.3985   9.9220  17.3947   H         1 RES1   0.0000
    56 C29     13.1630   8.8062  17.5733   C.ar      1 RES1   0.0000
    57 H19     12.7036   9.4364  18.0790   H         1 RES1   0.0000
    58 C30     16.0317   8.3464  11.9363   C.ar      1 RES1   0.0000
    59 H20     16.7787   7.9340  11.5683   H         1 RES1   0.0000
    60 C31     13.8465   6.2830  10.0277   C.ar      1 RES1   0.0000
    61 H21     13.3111   6.9550  10.3845   H         1 RES1   0.0000
    62 C32      8.3457   8.4610  18.3530   C.ar      1 RES1   0.0000
    63 H22      7.7664   9.0256  18.8123   H         1 RES1   0.0000
    64 C33      8.2470   7.1234  18.5032   C.ar      1 RES1   0.0000
    65 H23      7.5884   6.7667  19.0542   H         1 RES1   0.0000
    66 C34     14.3978   8.3406  17.9804   C.ar      1 RES1   0.0000
    67 H24     14.7775   8.6537  18.7689   H         1 RES1   0.0000
    68 C35     10.0791   6.8074  16.9962   C.ar      1 RES1   0.0000
    69 H25     10.6587   6.2371  16.5445   H         1 RES1   0.0000
    70 C36     13.6921   5.9060   8.7053   C.ar      1 RES1   0.0000
    71 H26     13.0549   6.3280   8.1744   H         1 RES1   0.0000
    72 C37     15.9585   9.7172  12.0249   C.ar      1 RES1   0.0000
    73 H27     16.6621  10.2405  11.7135   H         1 RES1   0.0000
    74 C38      9.1149   6.2857  17.8447   C.ar      1 RES1   0.0000
    75 H28      9.0559   5.3657  17.9689   H         1 RES1   0.0000
    76 F1      12.1710  11.8244  14.8127   F         2 RES2   0.0000
    77 F2      10.2817  12.5079  15.5761   F         2 RES2   0.0000
    78 C39     11.5936  14.1504  14.2139   C.ar      2 RES2   0.0000
    79 F3      10.3745  12.1820  13.4450   F         2 RES2   0.0000
    80 C40     11.3544  15.1731  15.1148   C.ar      2 RES2   0.0000
    81 H29     10.8927  14.9786  15.8981   H         2 RES2   0.0000
    82 C41     12.2468  14.5341  13.0470   C.ar      2 RES2   0.0000
    83 H30     12.4060  13.8949  12.3910   H         2 RES2   0.0000
    84 C42     12.4339  16.7881  13.7381   C.ar      2 RES2   0.0000
    85 H31     12.7165  17.6603  13.5838   H         2 RES2   0.0000
    86 C43     12.6704  15.8349  12.8299   C.ar      2 RES2   0.0000
    87 H32     13.1221  16.0477  12.0452   H         2 RES2   0.0000
    88 C44     11.7760  16.4770  14.8977   C.ar      2 RES2   0.0000
    89 H33     11.6116  17.1342  15.5336   H         2 RES2   0.0000
    90 B1      11.1163  12.6501  14.4617   B         2 RES2  -1.0000
    91 O3       5.4885  13.1263   7.5276   O.3       3 RES3   0.0000
    92 H34      6.1555  12.8823   7.9375   H         3 RES3   0.0000
    93 C45      4.6094  12.1192   7.4679   C.3       3 RES3   0.0000
    94 H35      5.0001  11.3806   6.9937   H         3 RES3   0.0000
    95 H36      3.8186  12.4109   7.0068   H         3 RES3   0.0000
    96 H37      4.3771  11.8416   8.3564   H         3 RES3   0.0000
@<TRIPOS>BOND
     1     1    21    1
     2     2    19    1
     3     3     4    1
     4     4    12    1
     5     5     3    1
     6     6     3    1
     7     7     3    1
     8     8     3    1
     9     9     3    1
    10    10     7    2
    11    11    10    1
    12    12    13   ar
    13    13    10    1
    14    14     5    1
    15    15     6    2
    16    16    15    1
    17    17    14   ar
    18    18     9   ar
    19    19    22   ar
    20    20     8   ar
    21    21    27   ar
    22    22    17   ar
    23    23    22    1
    24    24    25    1
    25    25     6    1
    26    26    25    1
    27    27    13   ar
    28    28    27    1
    29    29     7    1
    30    30    29    1
    31    31    14   ar
    32    32    31    1
    33    33    29    1
    34    34    12   ar
    35    35    34    1
    36    36    19   ar
    37    37    36    1
    38    38    21   ar
    39    39    38    1
    40    40     9   ar
    41    41    40    1
    42    42     8   ar
    43    43    42    1
    44    44    24   ar
    45    45    44    1
    46    46    44   ar
    47    47    46    1
    48    48    42   ar
    49    49    48    1
    50    50    40   ar
    51    51    50    1
    52    52    46   ar
    53    53    52    1
    54    54    33   ar
    55    55    54    1
    56    56    18   ar
    57    57    56    1
    58    58    20   ar
    59    59    58    1
    60    60    24   ar
    61    61    60    1
    62    62    54   ar
    63    63    62    1
    64    64    62   ar
    65    65    64    1
    66    66    50   ar
    67    67    66    1
    68    68    33   ar
    69    69    68    1
    70    70    52   ar
    71    71    70    1
    72    72    48   ar
    73    73    72    1
    74    74    64   ar
    75    75    74    1
    76    15    17    1
    77    18    29    1
    78    20    25    1
    79    31    36   ar
    80    34    38   ar
    81    56    66   ar
    82    58    72   ar
    83    60    70   ar
    84    68    74   ar
    85    76    90    1
    86    77    90    1
    87    78    80   ar
    88    79    90    1
    89    80    81    1
    90    82    78   ar
    91    83    82    1
    92    84    85    1
    93    86    82   ar
    94    87    86    1
    95    88    80   ar
    96    89    88    1
    97    90    78    1
    98    84    86   ar
    99    84    88   ar
   100    91    92    1
   101    93    91    1
   102    94    93    1
   103    95    93    1
   104    96    93    1
@<TRIPOS>SUBSTRUCTURE
     1 RES1        1 GROUP             0 ****  ****    0  
     2 RES2       76 GROUP             0 ****  ****    0  
     3 RES3       91 GROUP             0 ****  ****    0  
@<TRIPOS>CRYSIN
   10.9807   11.5675   18.8761   74.8240   89.7470   65.6180     2     1
