@<TRIPOS>MOLECULE
OXIYAY
    90    99     2     0     0
SMALL
USER_CHARGES
****
Generated from the CSD

@<TRIPOS>ATOM
     1 Fe1      4.3889   6.0184   4.2377   Fe        1 RES1   1.0000
     2 Br1     -1.9872   9.7208   2.9203   Br        1 RES1   0.0000
     3 Br2      4.6896  -0.2615   8.2661   Br        1 RES1   0.0000
     4 O1       2.6461   5.9812   3.4972   O.3       1 RES1   0.0000
     5 N1       4.0013   8.0234   4.7844   N.2       1 RES1   0.0000
     6 O2       3.9659   5.1867   5.8940   O.3       1 RES1   0.0000
     7 N2       5.0110   4.1524   3.5391   N.2       1 RES1   0.0000
     8 N3       6.2760   6.7088   4.9489   N.ar      1 RES1   0.0000
     9 N4       5.3052   6.4609   2.3164   N.ar      1 RES1   0.0000
    10 C1       2.9088   8.6594   4.5524   C.2       1 RES1   0.0000
    11 H1       2.8767   9.5483   4.8235   H         1 RES1   0.0000
    12 C2       1.7265   8.1351   3.9125   C.ar      1 RES1   0.0000
    13 C3       1.6478   6.8160   3.4362   C.ar      1 RES1   0.0000
    14 C4       5.7104   5.4138   1.5891   C.ar      1 RES1   0.0000
    15 C5       6.3522   7.9468   5.4404   C.ar      1 RES1   0.0000
    16 C6       5.4569   4.0393   2.1315   C.3       1 RES1   0.0000
    17 H2       6.3049   3.5475   2.1202   H         1 RES1   0.0000
    18 C7       4.4679   3.2836   1.2749   C.ar      1 RES1   0.0000
    19 C8       5.0805   8.7668   5.4751   C.3       1 RES1   0.0000
    20 H3       5.2420   9.5960   4.9783   H         1 RES1   0.0000
    21 C9       4.1122   3.9749   6.3582   C.ar      1 RES1   0.0000
    22 C10      0.6259   8.9971   3.7686   C.ar      1 RES1   0.0000
    23 H4       0.6806   9.8776   4.0639   H         1 RES1   0.0000
    24 C11     -0.5175   8.5395   3.1964   C.ar      1 RES1   0.0000
    25 C12      5.0860   3.0848   4.2531   C.2       1 RES1   0.0000
    26 H5       5.4422   2.3316   3.8409   H         1 RES1   0.0000
    27 C13     -0.6237   7.2333   2.7599   C.ar      1 RES1   0.0000
    28 H6      -1.4210   6.9339   2.3852   H         1 RES1   0.0000
    29 C14      6.3358   5.6050   0.3621   C.ar      1 RES1   0.0000
    30 H7       6.6027   4.8698  -0.1412   H         1 RES1   0.0000
    31 C15      4.8284   2.0756   0.6995   C.ar      1 RES1   0.0000
    32 H8       5.6738   1.7173   0.8494   H         1 RES1   0.0000
    33 C16      0.4305   6.3845   2.8773   C.ar      1 RES1   0.0000
    34 H9       0.3459   5.5058   2.5828   H         1 RES1   0.0000
    35 C17      4.7450   9.1392   6.9088   C.ar      1 RES1   0.0000
    36 C18      3.2105   3.7823   1.0252   C.ar      1 RES1   0.0000
    37 H10      2.9542   4.5924   1.4013   H         1 RES1   0.0000
    38 C19      4.6820   2.9382   5.6157   C.ar      1 RES1   0.0000
    39 C20      7.3884   5.9613   4.9162   C.ar      1 RES1   0.0000
    40 H11      7.3330   5.0998   4.5702   H         1 RES1   0.0000
    41 C21      3.6982   3.6944   7.6860   C.ar      1 RES1   0.0000
    42 H12      3.3115   4.3662   8.1994   H         1 RES1   0.0000
    43 C22      4.8380   1.6668   6.2027   C.ar      1 RES1   0.0000
    44 H13      5.2149   0.9760   5.7065   H         1 RES1   0.0000
    45 C23      4.3253   8.1705   7.7852   C.ar      1 RES1   0.0000
    46 H14      4.1943   7.2990   7.4905   H         1 RES1   0.0000
    47 C24      5.5345   7.6975   1.8471   C.ar      1 RES1   0.0000
    48 H15      5.2536   8.4250   2.3539   H         1 RES1   0.0000
    49 C25      6.1629   7.9349   0.6548   C.ar      1 RES1   0.0000
    50 H16      6.3178   8.8053   0.3666   H         1 RES1   0.0000
    51 C26      6.5598   6.8657  -0.1042   C.ar      1 RES1   0.0000
    52 H17      6.9749   6.9978  -0.9256   H         1 RES1   0.0000
    53 C27      4.0986   8.4966   9.1164   C.ar      1 RES1   0.0000
    54 H18      3.7979   7.8459   9.7090   H         1 RES1   0.0000
    55 C28      7.5466   8.4420   5.9150   C.ar      1 RES1   0.0000
    56 H19      7.5924   9.3085   6.2488   H         1 RES1   0.0000
    57 C29      3.9087   1.4024  -0.1108   C.ar      1 RES1   0.0000
    58 H20      4.1485   0.5933  -0.5021   H         1 RES1   0.0000
    59 C30      8.6043   6.4079   5.3693   C.ar      1 RES1   0.0000
    60 H21      9.3615   5.8702   5.3190   H         1 RES1   0.0000
    61 C31      2.3303   3.0961   0.2249   C.ar      1 RES1   0.0000
    62 H22      1.4853   3.4484   0.0622   H         1 RES1   0.0000
    63 C32      2.6796   1.9088  -0.3307   C.ar      1 RES1   0.0000
    64 H23      2.0736   1.4466  -0.8622   H         1 RES1   0.0000
    65 C33      4.3150   9.7626   9.5529   C.ar      1 RES1   0.0000
    66 H24      4.1754   9.9717  10.4488   H         1 RES1   0.0000
    67 C34      3.8614   2.4438   8.2185   C.ar      1 RES1   0.0000
    68 H25      3.5745   2.2707   9.0855   H         1 RES1   0.0000
    69 C35      4.9488  10.4201   7.3636   C.ar      1 RES1   0.0000
    70 H26      5.2321  11.0819   6.7752   H         1 RES1   0.0000
    71 C36      8.6702   7.6519   5.8918   C.ar      1 RES1   0.0000
    72 H27      9.4731   7.9721   6.2360   H         1 RES1   0.0000
    73 C37      4.4488   1.4356   7.4760   C.ar      1 RES1   0.0000
    74 C38      4.7318  10.7255   8.6964   C.ar      1 RES1   0.0000
    75 H28      4.8718  11.5918   9.0035   H         1 RES1   0.0000
    76 F1       8.1070   1.4607   2.4027   F         2 RES2   0.0000
    77 F2       8.4136   3.4629   3.2890   F         2 RES2   0.0000
    78 C39     10.2802   1.8855   3.5685   C.ar      2 RES2   0.0000
    79 C40     10.9536   1.0032   2.7516   C.ar      2 RES2   0.0000
    80 H29     10.4669   0.4950   2.1433   H         2 RES2   0.0000
    81 F3       8.0622   1.6270   4.6186   F         2 RES2   0.0000
    82 C41     12.3510   0.8419   2.8029   C.ar      2 RES2   0.0000
    83 H30     12.7777   0.2418   2.2352   H         2 RES2   0.0000
    84 C42     11.0804   2.5899   4.4300   C.ar      2 RES2   0.0000
    85 H31     10.6801   3.2081   4.9980   H         2 RES2   0.0000
    86 C43     13.0605   1.5648   3.6843   C.ar      2 RES2   0.0000
    87 H32     13.9844   1.4646   3.7291   H         2 RES2   0.0000
    88 C44     12.4442   2.4293   4.4978   C.ar      2 RES2   0.0000
    89 H33     12.9391   2.9237   5.1099   H         2 RES2   0.0000
    90 B1       8.6981   2.1101   3.4991   B         2 RES2  -1.0000
@<TRIPOS>BOND
     1     1     4    1
     2     2    24    1
     3     3    73    1
     4     4    13    1
     5     5     1    1
     6     6     1    1
     7     7     1    1
     8     8     1    1
     9     9     1    1
    10    10     5    2
    11    11    10    1
    12    12    10    1
    13    13    12   ar
    14    14     9   ar
    15    15     8   ar
    16    16     7    1
    17    17    16    1
    18    18    16    1
    19    19     5    1
    20    20    19    1
    21    21     6    1
    22    22    12   ar
    23    23    22    1
    24    24    22   ar
    25    25     7    2
    26    26    25    1
    27    27    24   ar
    28    28    27    1
    29    29    14   ar
    30    30    29    1
    31    31    18   ar
    32    32    31    1
    33    33    13   ar
    34    34    33    1
    35    35    19    1
    36    36    18   ar
    37    37    36    1
    38    38    21   ar
    39    39     8   ar
    40    40    39    1
    41    41    21   ar
    42    42    41    1
    43    43    38   ar
    44    44    43    1
    45    45    35   ar
    46    46    45    1
    47    47     9   ar
    48    48    47    1
    49    49    47   ar
    50    50    49    1
    51    51    29   ar
    52    52    51    1
    53    53    45   ar
    54    54    53    1
    55    55    15   ar
    56    56    55    1
    57    57    31   ar
    58    58    57    1
    59    59    39   ar
    60    60    59    1
    61    61    36   ar
    62    62    61    1
    63    63    57   ar
    64    64    63    1
    65    65    53   ar
    66    66    65    1
    67    67    41   ar
    68    68    67    1
    69    69    35   ar
    70    70    69    1
    71    71    55   ar
    72    72    71    1
    73    73    43   ar
    74    74    65   ar
    75    75    74    1
    76    14    16    1
    77    15    19    1
    78    25    38    1
    79    27    33   ar
    80    49    51   ar
    81    59    71   ar
    82    61    63   ar
    83    67    73   ar
    84    69    74   ar
    85    76    90    1
    86    77    90    1
    87    78    79   ar
    88    79    80    1
    89    81    90    1
    90    82    79   ar
    91    83    82    1
    92    84    78   ar
    93    85    84    1
    94    86    82   ar
    95    87    86    1
    96    88    84   ar
    97    89    88    1
    98    90    78    1
    99    86    88   ar
@<TRIPOS>SUBSTRUCTURE
     1 RES1        1 GROUP             0 ****  ****    0  
     2 RES2       76 GROUP             0 ****  ****    0  
@<TRIPOS>CRYSIN
   11.3639   11.6152   17.2525   74.7370   89.4610   65.5030     2     1
