@<TRIPOS>MOLECULE
OXIYIG01
    96   104     3     0     0
SMALL
USER_CHARGES
****
Generated from the CSD

@<TRIPOS>ATOM
     1 B1      -0.1318   7.2652   3.5760   B         1 RES1  -1.0000
     2 C1      -0.6105   8.7859   3.8335   C.ar      1 RES1   0.0000
     3 C2      -0.3921   9.8108   2.8984   C.ar      1 RES1   0.0000
     4 H1       0.0537   9.6137   2.1069   H         1 RES1   0.0000
     5 C3      -0.8265  11.1150   3.1290   C.ar      1 RES1   0.0000
     6 H2      -0.6665  11.7780   2.4966   H         1 RES1   0.0000
     7 C4      -1.4940  11.4195   4.2948   C.ar      1 RES1   0.0000
     8 H3      -1.7942  12.2868   4.4430   H         1 RES1   0.0000
     9 C5      -1.7202  10.4451   5.2478   C.ar      1 RES1   0.0000
    10 H4      -2.1658  10.6544   6.0358   H         1 RES1   0.0000
    11 C6      -1.2742   9.1466   5.0154   C.ar      1 RES1   0.0000
    12 H5      -1.4222   8.4979   5.6653   H         1 RES1   0.0000
    13 F1       0.7666   7.1506   2.4996   F         1 RES1   0.0000
    14 F2       0.5448   6.7782   4.7061   F         1 RES1   0.0000
    15 F3      -1.2142   6.4250   3.2560   F         1 RES1   0.0000
    16 C7      -0.6497  -1.2604   3.5331   C.ar      2 RES2   0.0000
    17 C8       0.3434  -2.1070   2.9896   C.ar      2 RES2   0.0000
    18 H6       1.1733  -1.7574   2.7590   H         2 RES2   0.0000
    19 C9       0.0892  -3.4399   2.8000   C.ar      2 RES2   0.0000
    20 H7       0.7498  -3.9899   2.4441   H         2 RES2   0.0000
    21 C10     -1.1600  -3.9813   3.1380   C.ar      2 RES2   0.0000
    22 C11     -2.1308  -3.2006   3.7066   C.ar      2 RES2   0.0000
    23 H8      -2.9490  -3.5727   3.9439   H         2 RES2   0.0000
    24 C12     -1.8821  -1.8168   3.9336   C.ar      2 RES2   0.0000
    25 C13     -2.8999  -1.0656   4.6327   C.2       2 RES2   0.0000
    26 H9      -3.6706  -1.5197   4.8876   H         2 RES2   0.0000
    27 C14     -3.9306   0.7493   5.7556   C.3       2 RES2   0.0000
    28 H10     -4.7826   0.3944   5.4249   H         2 RES2   0.0000
    29 C15     -3.7607   0.3572   7.2164   C.ar      2 RES2   0.0000
    30 C16     -4.5517  -0.6405   7.7761   C.ar      2 RES2   0.0000
    31 H11     -5.1944  -1.0674   7.2569   H         2 RES2   0.0000
    32 C17     -4.3826  -1.0037   9.1189   C.ar      2 RES2   0.0000
    33 H12     -4.9168  -1.6695   9.4895   H         2 RES2   0.0000
    34 C18     -3.4320  -0.3807   9.8913   C.ar      2 RES2   0.0000
    35 H13     -3.3192  -0.6294  10.7806   H         2 RES2   0.0000
    36 C19     -2.6390   0.6186   9.3442   C.ar      2 RES2   0.0000
    37 H14     -1.9984   1.0417   9.8692   H         2 RES2   0.0000
    38 C20     -2.7994   0.9923   8.0049   C.ar      2 RES2   0.0000
    39 H15     -2.2667   1.6620   7.6406   H         2 RES2   0.0000
    40 C21     -3.9331   2.2584   5.6126   C.ar      2 RES2   0.0000
    41 C22     -5.0115   3.0145   6.0596   C.ar      2 RES2   0.0000
    42 H16     -5.7683   2.6020   6.4079   H         2 RES2   0.0000
    43 C23     -4.9312   4.3995   5.9755   C.ar      2 RES2   0.0000
    44 H17     -5.6364   4.9272   6.2737   H         2 RES2   0.0000
    45 C24     -3.7986   4.9906   5.4445   C.ar      2 RES2   0.0000
    46 H18     -3.7291   5.9165   5.3886   H         2 RES2   0.0000
    47 C25     -2.7722   4.1768   5.0011   C.ar      2 RES2   0.0000
    48 H19     -2.0127   4.5673   4.6339   H         2 RES2   0.0000
    49 C26      0.4876   2.5907   6.4476   C.ar      2 RES2   0.0000
    50 C27      0.8374   2.5447   7.8172   C.ar      2 RES2   0.0000
    51 H20      0.5017   1.8622   8.3532   H         2 RES2   0.0000
    52 C28      1.6696   3.4982   8.3715   C.ar      2 RES2   0.0000
    53 H21      1.8767   3.4600   9.2770   H         2 RES2   0.0000
    54 C29      2.2038   4.5188   7.5812   C.ar      2 RES2   0.0000
    55 C30      1.8994   4.5775   6.2402   C.ar      2 RES2   0.0000
    56 H22      2.2607   5.2539   5.7143   H         2 RES2   0.0000
    57 C31      1.0461   3.6223   5.6555   C.ar      2 RES2   0.0000
    58 C32      0.7584   3.7614   4.2394   C.2       2 RES2   0.0000
    59 H23      1.1980   4.4439   3.7859   H         2 RES2   0.0000
    60 C33     -0.2057   3.3894   2.1206   C.3       2 RES2   0.0000
    61 H24     -0.1485   4.3633   2.0322   H         2 RES2   0.0000
    62 C34      0.8597   2.7534   1.2302   C.ar      2 RES2   0.0000
    63 C35      1.7291   3.5709   0.5221   C.ar      2 RES2   0.0000
    64 H25      1.6677   4.4957   0.6059   H         2 RES2   0.0000
    65 C36      2.6993   3.0122  -0.3201   C.ar      2 RES2   0.0000
    66 H26      3.2923   3.5627  -0.7784   H         2 RES2   0.0000
    67 C37      2.7720   1.6469  -0.4667   C.ar      2 RES2   0.0000
    68 H27      3.4145   1.2734  -1.0260   H         2 RES2   0.0000
    69 C38      1.8898   0.8288   0.2181   C.ar      2 RES2   0.0000
    70 H28      1.9358  -0.0925   0.1022   H         2 RES2   0.0000
    71 C39      0.9353   1.3672   1.0764   C.ar      2 RES2   0.0000
    72 H29      0.3538   0.8102   1.5409   H         2 RES2   0.0000
    73 C40     -1.5803   2.9393   1.6664   C.ar      2 RES2   0.0000
    74 C41     -2.1170   3.4245   0.4702   C.ar      2 RES2   0.0000
    75 H30     -1.6493   4.0456  -0.0397   H         2 RES2   0.0000
    76 C42     -3.3611   2.9646   0.0572   C.ar      2 RES2   0.0000
    77 H31     -3.7411   3.2714  -0.7340   H         2 RES2   0.0000
    78 C43     -4.0230   2.0415   0.8439   C.ar      2 RES2   0.0000
    79 H32     -4.8567   1.7168   0.5897   H         2 RES2   0.0000
    80 C44     -3.4319   1.6055   2.0151   C.ar      2 RES2   0.0000
    81 H33     -3.8831   0.9886   2.5453   H         2 RES2   0.0000
    82 Fe1     -1.2913   1.5260   4.3400   Fe        2 RES2   1.0000
    83 I1      -1.5694  -5.9766   2.6661   I         2 RES2   0.0000
    84 I2       3.3730   5.9997   8.4911   I         2 RES2   0.0000
    85 N1      -2.8207   0.1950   4.9342   N.2       2 RES2   0.0000
    86 N2      -2.8439   2.8245   5.0882   N.ar      2 RES2   0.0000
    87 N3      -0.0482   3.0304   3.5539   N.2       2 RES2   0.0000
    88 N4      -2.2182   2.0478   2.4163   N.ar      2 RES2   0.0000
    89 O1      -0.3771   0.0106   3.6724   O.3       2 RES2   0.0000
    90 O2      -0.3078   1.6715   5.9698   O.3       2 RES2   0.0000
    91 O3       5.1797   8.0458  10.1237   O.3       3 RES3   0.0000
    92 H34      4.8409   7.5832   9.5383   H         3 RES3   0.0000
    93 C45      5.9514   7.3018  10.8747   C.3       3 RES3   0.0000
    94 H35      6.3145   6.5847  10.3500   H         3 RES3   0.0000
    95 H36      5.4376   6.9379  11.6005   H         3 RES3   0.0000
    96 H37      6.6675   7.8353  11.2269   H         3 RES3   0.0000
@<TRIPOS>BOND
     1     1     2    1
     2     2     3   ar
     3     3     4    1
     4     5     3   ar
     5     6     5    1
     6     7     5   ar
     7     8     7    1
     8     9     7   ar
     9    10     9    1
    10    11     2   ar
    11    12    11    1
    12    13     1    1
    13    14     1    1
    14    15     1    1
    15     9    11   ar
    16    16    17   ar
    17    17    18    1
    18    19    17   ar
    19    20    19    1
    20    21    19   ar
    21    22    21   ar
    22    23    22    1
    23    24    16   ar
    24    25    24    1
    25    26    25    1
    26    27    28    1
    27    29    27    1
    28    30    29   ar
    29    31    30    1
    30    32    30   ar
    31    33    32    1
    32    34    32   ar
    33    35    34    1
    34    36    34   ar
    35    37    36    1
    36    38    29   ar
    37    39    38    1
    38    40    27    1
    39    41    40   ar
    40    42    41    1
    41    43    41   ar
    42    44    43    1
    43    45    43   ar
    44    46    45    1
    45    47    45   ar
    46    48    47    1
    47    49    50   ar
    48    50    51    1
    49    52    50   ar
    50    53    52    1
    51    54    52   ar
    52    55    54   ar
    53    56    55    1
    54    57    49   ar
    55    58    57    1
    56    59    58    1
    57    60    61    1
    58    62    60    1
    59    63    62   ar
    60    64    63    1
    61    65    63   ar
    62    66    65    1
    63    67    65   ar
    64    68    67    1
    65    69    67   ar
    66    70    69    1
    67    71    62   ar
    68    72    71    1
    69    73    60    1
    70    74    73   ar
    71    75    74    1
    72    76    74   ar
    73    77    76    1
    74    78    76   ar
    75    79    78    1
    76    80    78   ar
    77    81    80    1
    78    82    85    1
    79    83    21    1
    80    84    54    1
    81    85    25    2
    82    86    40   ar
    83    87    58    2
    84    88    73   ar
    85    89    16    1
    86    90    49    1
    87    22    24   ar
    88    27    85    1
    89    36    38   ar
    90    47    86   ar
    91    55    57   ar
    92    60    87    1
    93    69    71   ar
    94    80    88   ar
    95    82    86    1
    96    82    87    1
    97    82    88    1
    98    82    89    1
    99    82    90    1
   100    91    92    1
   101    93    91    1
   102    94    93    1
   103    95    93    1
   104    96    93    1
@<TRIPOS>SUBSTRUCTURE
     1 RES1        1 GROUP             0 ****  ****    0  
     2 RES2       16 GROUP             0 ****  ****    0  
     3 RES3       91 GROUP             0 ****  ****    0  
@<TRIPOS>CRYSIN
   10.7756   11.5030   18.6167  104.6820   90.0470  114.3170     2     1
