@<TRIPOS>MOLECULE
OXIYOM
    90    99     2     0     0
SMALL
USER_CHARGES
****
Generated from the CSD

@<TRIPOS>ATOM
     1 B1      10.1662   3.3674   3.6299   B         1 RES1  -1.0000
     2 C1       9.5978   1.8833   3.9309   C.ar      1 RES1   0.0000
     3 C2       9.7824   0.8455   3.0676   C.ar      1 RES1   0.0000
     4 H1      10.2789   0.9948   2.2967   H         1 RES1   0.0000
     5 C3       9.2688  -0.4125   3.2821   C.ar      1 RES1   0.0000
     6 H2       9.4092  -1.0978   2.6691   H         1 RES1   0.0000
     7 C4       8.5464  -0.6269   4.4229   C.ar      1 RES1   0.0000
     8 H3       8.2026  -1.4749   4.5876   H         1 RES1   0.0000
     9 C5       8.3210   0.3406   5.3025   C.ar      1 RES1   0.0000
    10 H4       7.8106   0.1839   6.0633   H         1 RES1   0.0000
    11 C6       8.8684   1.5939   5.0574   C.ar      1 RES1   0.0000
    12 H5       8.7341   2.2678   5.6855   H         1 RES1   0.0000
    13 F1      11.0829   3.4065   2.6188   F         1 RES1   0.0000
    14 F2      10.8523   3.8359   4.6807   F         1 RES1   0.0000
    15 F3       9.1956   4.2094   3.1793   F         1 RES1   0.0000
    16 C7      10.1342  11.8359   3.5632   C.ar      2 RES2   0.0000
    17 C8      11.1598  12.6173   2.9973   C.ar      2 RES2   0.0000
    18 H6      11.9604  12.2134   2.7500   H         2 RES2   0.0000
    19 C9      10.9942  13.9617   2.8062   C.ar      2 RES2   0.0000
    20 H7      11.6848  14.4684   2.4434   H         2 RES2   0.0000
    21 C10      9.7928  14.5709   3.1523   C.ar      2 RES2   0.0000
    22 C11      8.7869  13.8592   3.7453   C.ar      2 RES2   0.0000
    23 H8       7.9971  14.2828   3.9948   H         2 RES2   0.0000
    24 C12      8.9546  12.4752   3.9760   C.ar      2 RES2   0.0000
    25 C13      7.8899  11.7852   4.6681   C.2       2 RES2   0.0000
    26 H9       7.1489  12.2879   4.9191   H         2 RES2   0.0000
    27 C14      6.7262  10.0686   5.7855   C.3       2 RES2   0.0000
    28 H10      5.9027  10.4554   5.4201   H         2 RES2   0.0000
    29 C15      6.8602  10.4904   7.2359   C.ar      2 RES2   0.0000
    30 C16      5.9783  11.4124   7.7879   C.ar      2 RES2   0.0000
    31 H11      5.3014  11.7780   7.2658   H         2 RES2   0.0000
    32 C17      6.1085  11.7874   9.1198   C.ar      2 RES2   0.0000
    33 H12      5.5187  12.4040   9.4892   H         2 RES2   0.0000
    34 C18      7.1206  11.2405   9.8999   C.ar      2 RES2   0.0000
    35 H13      7.2083  11.4918  10.7912   H         2 RES2   0.0000
    36 C19      8.0030  10.3199   9.3487   C.ar      2 RES2   0.0000
    37 H14      8.6806   9.9536   9.8700   H         2 RES2   0.0000
    38 C20      7.8728   9.9449   8.0168   C.ar      2 RES2   0.0000
    39 H15      8.4632   9.3276   7.6466   H         2 RES2   0.0000
    40 C21      6.6406   8.5715   5.6846   C.ar      2 RES2   0.0000
    41 C22      5.5347   7.8870   6.1316   C.ar      2 RES2   0.0000
    42 H16      4.8042   8.3470   6.4788   H         2 RES2   0.0000
    43 C23      5.5209   6.5176   6.0613   C.ar      2 RES2   0.0000
    44 H17      4.7844   6.0437   6.3755   H         2 RES2   0.0000
    45 C24      6.5860   5.8459   5.5296   C.ar      2 RES2   0.0000
    46 H18      6.5873   4.9183   5.4649   H         2 RES2   0.0000
    47 C25      7.6553   6.5934   5.0952   C.ar      2 RES2   0.0000
    48 H19      8.3893   6.1485   4.7373   H         2 RES2   0.0000
    49 C26     11.1004   7.9890   6.4812   C.ar      2 RES2   0.0000
    50 C27     11.5016   8.0541   7.8258   C.ar      2 RES2   0.0000
    51 H20     11.2082   8.7569   8.3605   H         2 RES2   0.0000
    52 C28     12.3247   7.0884   8.3611   C.ar      2 RES2   0.0000
    53 H21     12.5710   7.1377   9.2557   H         2 RES2   0.0000
    54 C29     12.7922   6.0389   7.5752   C.ar      2 RES2   0.0000
    55 C30     12.4347   5.9731   6.2541   C.ar      2 RES2   0.0000
    56 H22     12.7538   5.2762   5.7280   H         2 RES2   0.0000
    57 C31     11.5998   6.9356   5.6864   C.ar      2 RES2   0.0000
    58 C32     11.2714   6.7905   4.2860   C.2       2 RES2   0.0000
    59 H23     11.6715   6.0860   3.8296   H         2 RES2   0.0000
    60 C33     10.2918   7.1719   2.1754   C.3       2 RES2   0.0000
    61 H24     10.2940   6.1949   2.1077   H         2 RES2   0.0000
    62 C34     11.3766   7.7146   1.2725   C.ar      2 RES2   0.0000
    63 C35     12.1339   6.8711   0.5353   C.ar      2 RES2   0.0000
    64 H25     11.9949   5.9544   0.6028   H         2 RES2   0.0000
    65 C36     13.1218   7.3523  -0.3244   C.ar      2 RES2   0.0000
    66 H26     13.6398   6.7594  -0.8204   H         2 RES2   0.0000
    67 C37     13.3189   8.6747  -0.4344   C.ar      2 RES2   0.0000
    68 H27     13.9936   8.9950  -0.9890   H         2 RES2   0.0000
    69 C38     12.5399   9.5599   0.2631   C.ar      2 RES2   0.0000
    70 H28     12.6507  10.4773   0.1534   H         2 RES2   0.0000
    71 C39     11.5700   9.0596   1.1481   C.ar      2 RES2   0.0000
    72 H29     11.0565   9.6486   1.6534   H         2 RES2   0.0000
    73 C40      8.9374   7.6756   1.7375   C.ar      2 RES2   0.0000
    74 C41      8.3538   7.1850   0.5767   C.ar      2 RES2   0.0000
    75 H30      8.7672   6.5182   0.0777   H         2 RES2   0.0000
    76 C42      7.1390   7.7174   0.1820   C.ar      2 RES2   0.0000
    77 H31      6.7344   7.4223  -0.6010   H         2 RES2   0.0000
    78 C43      6.5408   8.6627   0.9318   C.ar      2 RES2   0.0000
    79 H32      5.7159   9.0143   0.6855   H         2 RES2   0.0000
    80 C44      7.1862   9.0992   2.0781   C.ar      2 RES2   0.0000
    81 H33      6.7832   9.7621   2.5910   H         2 RES2   0.0000
    82 Fe1      9.3236   9.1140   4.3921   Fe        2 RES2   1.0000
    83 I1       9.4858  16.5888   2.6772   I         2 RES2   0.0000
    84 I2      13.9466   4.5282   8.4494   I         2 RES2   0.0000
    85 N1       7.8803  10.5395   4.9654   N.2       2 RES2   0.0000
    86 N2       7.6892   7.9259   5.1619   N.ar      2 RES2   0.0000
    87 N3      10.4816   7.5442   3.6155   N.2       2 RES2   0.0000
    88 N4       8.3599   8.6068   2.4764   N.ar      2 RES2   0.0000
    89 O1      10.3214  10.5533   3.7020   O.3       2 RES2   0.0000
    90 O2      10.3026   8.9065   6.0108   O.3       2 RES2   0.0000
@<TRIPOS>BOND
     1     1     2    1
     2     2     3   ar
     3     3     4    1
     4     5     3   ar
     5     6     5    1
     6     7     5   ar
     7     8     7    1
     8     9     7   ar
     9    10     9    1
    10    11     2   ar
    11    12    11    1
    12    13     1    1
    13    14     1    1
    14    15     1    1
    15     9    11   ar
    16    16    17   ar
    17    17    18    1
    18    19    17   ar
    19    20    19    1
    20    21    19   ar
    21    22    21   ar
    22    23    22    1
    23    24    16   ar
    24    25    24    1
    25    26    25    1
    26    27    28    1
    27    29    27    1
    28    30    29   ar
    29    31    30    1
    30    32    30   ar
    31    33    32    1
    32    34    32   ar
    33    35    34    1
    34    36    34   ar
    35    37    36    1
    36    38    29   ar
    37    39    38    1
    38    40    27    1
    39    41    40   ar
    40    42    41    1
    41    43    41   ar
    42    44    43    1
    43    45    43   ar
    44    46    45    1
    45    47    45   ar
    46    48    47    1
    47    49    50   ar
    48    50    51    1
    49    52    50   ar
    50    53    52    1
    51    54    52   ar
    52    55    54   ar
    53    56    55    1
    54    57    49   ar
    55    58    57    1
    56    59    58    1
    57    60    61    1
    58    62    60    1
    59    63    62   ar
    60    64    63    1
    61    65    63   ar
    62    66    65    1
    63    67    65   ar
    64    68    67    1
    65    69    67   ar
    66    70    69    1
    67    71    62   ar
    68    72    71    1
    69    73    60    1
    70    74    73   ar
    71    75    74    1
    72    76    74   ar
    73    77    76    1
    74    78    76   ar
    75    79    78    1
    76    80    78   ar
    77    81    80    1
    78    82    85    1
    79    83    21    1
    80    84    54    1
    81    85    25    2
    82    86    40   ar
    83    87    58    2
    84    88    73   ar
    85    89    16    1
    86    90    49    1
    87    22    24   ar
    88    27    85    1
    89    36    38   ar
    90    47    86   ar
    91    55    57   ar
    92    60    87    1
    93    69    71   ar
    94    80    88   ar
    95    82    86    1
    96    82    87    1
    97    82    88    1
    98    82    89    1
    99    82    90    1
@<TRIPOS>SUBSTRUCTURE
     1 RES1        1 GROUP             0 ****  ****    0  
     2 RES2       16 GROUP             0 ****  ****    0  
@<TRIPOS>CRYSIN
   10.8209   11.7368   18.9512   73.8030   89.6930   63.5010     2     1
