@<TRIPOS>MOLECULE
OYIBUW
    79    81     2     0     0
SMALL
USER_CHARGES
****
Generated from the CSD

@<TRIPOS>ATOM
     1 Br1     10.7851   1.6448   6.6551   Br        1 RES1   0.0000
     2 Fe1      9.8280  -0.4407   5.8044   Fe        1 RES1   1.0000
     3 P1       8.2048  -0.2632   7.4149   P.3       1 RES1   0.0000
     4 P2      11.5237  -0.5713   4.2593   P.3       1 RES1   0.0000
     5 O1      11.6760  -1.7025   7.7181   O.2       1 RES1   0.0000
     6 O2       8.2750   1.3554   4.0422   O.2       1 RES1   0.0000
     7 O3       8.6026  -2.9010   4.8220   O.2       1 RES1   0.0000
     8 C1      11.3884   0.5960   2.8884   C.3       1 RES1   0.0000
     9 H1      10.5650   0.4178   2.3878   H         1 RES1   0.0000
    10 H2      12.1608   0.4929   2.2941   H         1 RES1   0.0000
    11 H3      11.3660   1.5107   3.2393   H         1 RES1   0.0000
    12 C2      10.9547  -1.2610   6.9930   C.1       1 RES1   0.0000
    13 C3       8.8509   0.6445   4.6956   C.1       1 RES1   0.0000
    14 C4       9.0855  -1.9461   5.1995   C.1       1 RES1   0.0000
    15 C5      11.6288  -2.1964   3.4625   C.3       1 RES1   0.0000
    16 H4      11.7766  -2.8852   4.1437   H         1 RES1   0.0000
    17 H5      12.3742  -2.2007   2.8264   H         1 RES1   0.0000
    18 H6      10.7922  -2.3816   2.9868   H         1 RES1   0.0000
    19 C6       7.2992   1.2929   7.3646   C.3       1 RES1   0.0000
    20 H7       7.9304   2.0402   7.4241   H         1 RES1   0.0000
    21 H8       6.6747   1.3319   8.1188   H         1 RES1   0.0000
    22 H9       6.7999   1.3533   6.5235   H         1 RES1   0.0000
    23 C7       8.8253  -0.3970   9.1137   C.3       1 RES1   0.0000
    24 H10      9.1875  -1.2959   9.2594   H         1 RES1   0.0000
    25 H11      8.0919  -0.2343   9.7431   H         1 RES1   0.0000
    26 H12      9.5318   0.2670   9.2567   H         1 RES1   0.0000
    27 C8       6.8858  -1.5017   7.3120   C.3       1 RES1   0.0000
    28 H13      6.4309  -1.4233   6.4475   H         1 RES1   0.0000
    29 H14      6.2413  -1.3533   8.0350   H         1 RES1   0.0000
    30 H15      7.2722  -2.3983   7.3977   H         1 RES1   0.0000
    31 C9      13.1776  -0.2877   4.9357   C.3       1 RES1   0.0000
    32 H16     13.2103   0.5956   5.3589   H         1 RES1   0.0000
    33 H17     13.8377  -0.3283   4.2126   H         1 RES1   0.0000
    34 H18     13.3804  -0.9770   5.6023   H         1 RES1   0.0000
    35 F1       0.1422   4.4294   9.1034   F         2 RES2   0.0000
    36 F2      -1.9703   4.0402  10.6248   F         2 RES2   0.0000
    37 F3       0.6528   7.2153   8.5578   F         2 RES2   0.0000
    38 F4      -0.8865   7.6195   4.0875   F         2 RES2   0.0000
    39 F5      -2.6882   5.9355   5.6032   F         2 RES2   0.0000
    40 F6       1.6771   6.4523   3.9865   F         2 RES2   0.0000
    41 F7      -1.6306   3.2839   5.2414   F         2 RES2   0.0000
    42 F8       0.7173   2.8794   6.8487   F         2 RES2   0.0000
    43 F9       2.7311   7.1751   6.6034   F         2 RES2   0.0000
    44 F10      0.2856   9.8236   8.9058   F         2 RES2   0.0000
    45 F11     -4.8010   5.5882   7.1826   F         2 RES2   0.0000
    46 F12     -0.6522  11.3736   6.8633   F         2 RES2   0.0000
    47 F13      5.0826   6.0813   7.0904   F         2 RES2   0.0000
    48 F14     -1.2161  10.2185   4.4623   F         2 RES2   0.0000
    49 F15      5.3395   3.4002   7.3941   F         2 RES2   0.0000
    50 F16     -1.3489   2.0917   2.9028   F         2 RES2   0.0000
    51 F17     -4.4720   4.6400   9.7329   F         2 RES2   0.0000
    52 F18      1.9028   5.2387   1.6185   F         2 RES2   0.0000
    53 F19      3.1210   1.8066   7.3180   F         2 RES2   0.0000
    54 F20      0.4372   3.0021   1.0739   F         2 RES2   0.0000
    55 C10     -1.0570   4.7164   8.5448   C.ar      2 RES2   0.0000
    56 C11     -1.1514   5.1848   7.2413   C.ar      2 RES2   0.0000
    57 C12      0.0465   9.2785   7.7033   C.ar      2 RES2   0.0000
    58 C13     -0.0426   7.2713   6.2956   C.ar      2 RES2   0.0000
    59 C14     -2.1471   4.5163   9.3687   C.ar      2 RES2   0.0000
    60 C15     -0.5306   8.1088   5.2992   C.ar      2 RES2   0.0000
    61 C16     -3.5642   5.2829   7.6461   C.ar      2 RES2   0.0000
    62 C17     -0.0072   4.9602   4.7395   C.ar      2 RES2   0.0000
    63 C18      1.5757   5.0865   6.7218   C.ar      2 RES2   0.0000
    64 C19     -0.4291  10.0630   6.6726   C.ar      2 RES2   0.0000
    65 C20      0.2126   7.9314   7.4936   C.ar      2 RES2   0.0000
    66 C21      0.8799   5.3832   3.7482   C.ar      2 RES2   0.0000
    67 C22     -0.7304   3.8370   4.3866   C.ar      2 RES2   0.0000
    68 C23     -2.4558   5.4534   6.8547   C.ar      2 RES2   0.0000
    69 C24     -3.4155   4.8106   8.9283   C.ar      2 RES2   0.0000
    70 C25     -0.7156   9.4680   5.4676   C.ar      2 RES2   0.0000
    71 C26      2.7399   5.8366   6.7891   C.ar      2 RES2   0.0000
    72 C27      1.7796   3.7218   6.9088   C.ar      2 RES2   0.0000
    73 C28      3.9895   5.2904   7.0232   C.ar      2 RES2   0.0000
    74 C29      4.1239   3.9371   7.1844   C.ar      2 RES2   0.0000
    75 C30     -0.6004   3.1763   3.1744   C.ar      2 RES2   0.0000
    76 C31      3.0071   3.1375   7.1341   C.ar      2 RES2   0.0000
    77 C32      1.0287   4.7640   2.5296   C.ar      2 RES2   0.0000
    78 C33      0.2924   3.6386   2.2451   C.ar      2 RES2   0.0000
    79 B1       0.0916   5.6280   6.2517   B         2 RES2  -1.0000
@<TRIPOS>BOND
     1     1     2    1
     2     2     3    1
     3     3    19    1
     4     4     2    1
     5     5    12    3
     6     6    13    3
     7     7    14    3
     8     8     4    1
     9     9     8    1
    10    10     8    1
    11    11     8    1
    12    12     2    1
    13    13     2    1
    14    14     2    1
    15    15     4    1
    16    16    15    1
    17    17    15    1
    18    18    15    1
    19    19    20    1
    20    21    19    1
    21    22    19    1
    22    23     3    1
    23    24    23    1
    24    25    23    1
    25    26    23    1
    26    27     3    1
    27    28    27    1
    28    29    27    1
    29    30    27    1
    30    31     4    1
    31    32    31    1
    32    33    31    1
    33    34    31    1
    34    35    55    1
    35    36    59    1
    36    37    65    1
    37    38    60    1
    38    39    68    1
    39    40    66    1
    40    41    67    1
    41    42    72    1
    42    43    71    1
    43    44    57    1
    44    45    61    1
    45    46    64    1
    46    47    73    1
    47    48    70    1
    48    49    74    1
    49    50    75    1
    50    51    69    1
    51    52    77    1
    52    53    76    1
    53    54    78    1
    54    55    56   ar
    55    56    68   ar
    56    57    64   ar
    57    58    60   ar
    58    59    55   ar
    59    60    70   ar
    60    61    68   ar
    61    62    66   ar
    62    63    71   ar
    63    64    70   ar
    64    65    57   ar
    65    66    77   ar
    66    67    62   ar
    67    69    59   ar
    68    71    73   ar
    69    72    63   ar
    70    73    74   ar
    71    74    76   ar
    72    75    67   ar
    73    76    72   ar
    74    77    78   ar
    75    78    75   ar
    76    79    56    1
    77    58    65   ar
    78    58    79    1
    79    61    69   ar
    80    62    79    1
    81    63    79    1
@<TRIPOS>SUBSTRUCTURE
     1 RES1        1 GROUP             0 ****  ****    0  
     2 RES2       35 GROUP             0 ****  ****    0  
@<TRIPOS>CRYSIN
   15.5124   13.8802   19.2614   90.0000  112.6820   90.0000   231     1
