@<TRIPOS>MOLECULE
OYIBIK
    82    84     2     0     0
SMALL
USER_CHARGES
****
Generated from the CSD

@<TRIPOS>ATOM
     1 Fe1      3.2312  16.2504   9.3151   Fe        1 RES1   1.0000
     2 P1       4.5370  15.7457  11.1027   P.3       1 RES1   0.0000
     3 C1       5.9490  16.8441  11.3398   C.3       1 RES1   0.0000
     4 C2       5.2459  14.0787  11.0869   C.3       1 RES1   0.0000
     5 C3       3.6883  15.8258  12.7025   C.3       1 RES1   0.0000
     6 P2       1.8712  16.5884   7.5200   P.3       1 RES1   0.0000
     7 C4       1.2466  15.0916   6.7126   C.3       1 RES1   0.0000
     8 C5       0.4261  17.6270   7.8251   C.3       1 RES1   0.0000
     9 C6       2.7173  17.4508   6.1692   C.3       1 RES1   0.0000
    10 C7       4.2159  17.7050   8.8746   C.1       1 RES1   0.0000
    11 O1       4.8051  18.6362   8.5956   O.2       1 RES1   0.0000
    12 C8       4.1734  15.1053   8.2856   C.1       1 RES1   0.0000
    13 O2       4.7286  14.3634   7.6291   O.2       1 RES1   0.0000
    14 C9       2.1623  17.2420  10.3991   C.1       1 RES1   0.0000
    15 O3       1.5036  17.8580  11.0864   O.2       1 RES1   0.0000
    16 C10      2.0712  14.6094   9.8487   C.3       1 RES1   0.0000
    17 Cl1      0.3091  14.9227  10.0522   Cl        1 RES1   0.0000
    18 H1       5.6501  17.7348  11.4476   H         1 RES1   0.0000
    19 H2       6.4328  16.5796  12.1236   H         1 RES1   0.0000
    20 H3       6.5337  16.7924  10.5692   H         1 RES1   0.0000
    21 H4       4.5271  13.4264  11.0390   H         1 RES1   0.0000
    22 H5       5.7575  13.9266  11.8920   H         1 RES1   0.0000
    23 H6       5.8254  13.9555  10.3071   H         1 RES1   0.0000
    24 H7       2.8971  15.2498  12.7025   H         1 RES1   0.0000
    25 H8       3.4227  16.7481  12.8782   H         1 RES1   0.0000
    26 H9       4.2872  15.5455  13.3879   H         1 RES1   0.0000
    27 H10      2.0022  14.5575   6.4105   H         1 RES1   0.0000
    28 H11      0.6912  15.3171   5.9593   H         1 RES1   0.0000
    29 H12      0.7408  14.5830   7.3434   H         1 RES1   0.0000
    30 H13      0.6997  18.4872   8.1485   H         1 RES1   0.0000
    31 H14     -0.0690  17.7362   7.0173   H         1 RES1   0.0000
    32 H15     -0.1354  17.2258   8.4865   H         1 RES1   0.0000
    33 H16      2.9761  18.3320   6.4677   H         1 RES1   0.0000
    34 H17      2.1209  17.4927   5.4124   H         1 RES1   0.0000
    35 H18      3.5197  16.9486   5.9394   H         1 RES1   0.0000
    36 H19      2.3762  14.2360  10.6890   H         1 RES1   0.0000
    37 H20      2.1364  13.9149   9.1799   H         1 RES1   0.0000
    38 F1       3.7537  11.4767   9.2918   F         2 RES2   0.0000
    39 C11      4.3040  10.3067   9.6979   C.ar      2 RES2   0.0000
    40 C12      5.6745  10.2614   9.7163   C.ar      2 RES2   0.0000
    41 F2       6.4105  11.3215   9.3308   F         2 RES2   0.0000
    42 C13      6.3076   9.1098  10.1496   C.ar      2 RES2   0.0000
    43 F3       7.6386   9.0287  10.1821   F         2 RES2   0.0000
    44 C14      5.5355   8.0417  10.5153   C.ar      2 RES2   0.0000
    45 F4       6.1334   6.9037  10.9289   F         2 RES2   0.0000
    46 C15      4.1535   8.1236  10.4681   C.ar      2 RES2   0.0000
    47 C16      3.4658   9.2590  10.0811   C.ar      2 RES2   0.0000
    48 B1       1.8391   9.4528   9.9225   B         2 RES2  -1.0000
    49 C17      0.9216   8.2174  10.5599   C.ar      2 RES2   0.0000
    50 C18     -0.1161   7.5400   9.9426   C.ar      2 RES2   0.0000
    51 F5      -0.3550   7.6870   8.6114   F         2 RES2   0.0000
    52 C19     -1.0121   6.7026  10.5962   C.ar      2 RES2   0.0000
    53 F6      -1.9687   6.0693   9.8992   F         2 RES2   0.0000
    54 C20     -0.9286   6.5462  11.9599   C.ar      2 RES2   0.0000
    55 F7      -1.8315   5.8026  12.6145   F         2 RES2   0.0000
    56 C21      0.0908   7.1729  12.6252   C.ar      2 RES2   0.0000
    57 C22      0.9875   7.9621  11.9273   C.ar      2 RES2   0.0000
    58 F8       1.9530   8.5523  12.6664   F         2 RES2   0.0000
    59 F9       0.1853   7.0566  13.9630   F         2 RES2   0.0000
    60 C23      1.6823   9.6121   8.2845   C.ar      2 RES2   0.0000
    61 C24      1.3824  10.7703   7.5692   C.ar      2 RES2   0.0000
    62 F10      1.0837  11.9197   8.2086   F         2 RES2   0.0000
    63 C25      1.3845  10.8582   6.1889   C.ar      2 RES2   0.0000
    64 F11      1.0873  12.0168   5.5816   F         2 RES2   0.0000
    65 C26      1.7188   9.7537   5.4397   C.ar      2 RES2   0.0000
    66 F12      1.7600   9.8208   4.0987   F         2 RES2   0.0000
    67 C27      2.0362   8.5826   6.0893   C.ar      2 RES2   0.0000
    68 C28      2.0244   8.5480   7.4642   C.ar      2 RES2   0.0000
    69 F13      2.3733   7.3603   8.0270   F         2 RES2   0.0000
    70 F14      2.3718   7.4970   5.3662   F         2 RES2   0.0000
    71 C29      1.2723  10.7310  10.7937   C.ar      2 RES2   0.0000
    72 C30      1.9140  11.3652  11.8336   C.ar      2 RES2   0.0000
    73 F15      3.2010  11.0813  12.1569   F         2 RES2   0.0000
    74 C31      1.3137  12.3202  12.6421   C.ar      2 RES2   0.0000
    75 F16      2.0121  12.9102  13.6366   F         2 RES2   0.0000
    76 C32      0.0094  12.6718  12.4190   C.ar      2 RES2   0.0000
    77 F17     -0.5756  13.6052  13.1866   F         2 RES2   0.0000
    78 C33     -0.6901  12.0738  11.4023   C.ar      2 RES2   0.0000
    79 C34     -0.0521  11.1253  10.6222   C.ar      2 RES2   0.0000
    80 F18     -0.7910  10.5555   9.6523   F         2 RES2   0.0000
    81 F19     -1.9662  12.4170  11.1726   F         2 RES2   0.0000
    82 F20      3.4909   6.9947  10.8354   F         2 RES2   0.0000
@<TRIPOS>BOND
     1     1     2    1
     2     2     3    1
     3     3    18    1
     4     4     2    1
     5     5     2    1
     6     6     1    1
     7     7     6    1
     8     8     6    1
     9     9     6    1
    10    10     1    1
    11    11    10    3
    12    12     1    1
    13    13    12    3
    14    14     1    1
    15    15    14    3
    16    16     1    1
    17    17    16    1
    18    19     3    1
    19    20     3    1
    20    21     4    1
    21    22     4    1
    22    23     4    1
    23    24     5    1
    24    25     5    1
    25    26     5    1
    26    27     7    1
    27    28     7    1
    28    29     7    1
    29    30     8    1
    30    31     8    1
    31    32     8    1
    32    33     9    1
    33    34     9    1
    34    35     9    1
    35    36    16    1
    36    37    16    1
    37    38    39    1
    38    39    40   ar
    39    40    41    1
    40    42    40   ar
    41    43    42    1
    42    44    42   ar
    43    45    44    1
    44    46    44   ar
    45    47    39   ar
    46    48    47    1
    47    49    48    1
    48    50    49   ar
    49    51    50    1
    50    52    50   ar
    51    53    52    1
    52    54    52   ar
    53    55    54    1
    54    56    54   ar
    55    57    49   ar
    56    58    57    1
    57    59    56    1
    58    60    48    1
    59    61    60   ar
    60    62    61    1
    61    63    61   ar
    62    64    63    1
    63    65    63   ar
    64    66    65    1
    65    67    65   ar
    66    68    60   ar
    67    69    68    1
    68    70    67    1
    69    71    48    1
    70    72    71   ar
    71    73    72    1
    72    74    72   ar
    73    75    74    1
    74    76    74   ar
    75    77    76    1
    76    78    76   ar
    77    79    71   ar
    78    80    79    1
    79    81    78    1
    80    82    46    1
    81    46    47   ar
    82    56    57   ar
    83    67    68   ar
    84    78    79   ar
@<TRIPOS>SUBSTRUCTURE
     1 RES1        1 GROUP             0 ****  ****    0  
     2 RES2       38 GROUP             0 ****  ****    0  
@<TRIPOS>CRYSIN
   10.6371   13.2126   13.4222   96.8040   93.0374   90.4440     2     1
