@<TRIPOS>MOLECULE
OYICEH
    79    81     2     0     0
SMALL
USER_CHARGES
****
Generated from the CSD

@<TRIPOS>ATOM
     1 Fe1      2.1019  13.3274   5.7547   Fe        1 RES1   1.0000
     2 Cl1      3.0156  15.2847   6.5572   Cl        1 RES1   0.0000
     3 P1       3.8029  13.2031   4.2202   P.3       1 RES1   0.0000
     4 P2       0.4816  13.5309   7.3587   P.3       1 RES1   0.0000
     5 O1       0.8934  10.8565   4.7761   O.2       1 RES1   0.0000
     6 O2       3.9412  12.0769   7.6974   O.2       1 RES1   0.0000
     7 O3       0.5507  15.1207   3.9876   O.2       1 RES1   0.0000
     8 C1       1.3673  11.8141   5.1500   C.1       1 RES1   0.0000
     9 C2       3.2234  12.5023   6.9556   C.1       1 RES1   0.0000
    10 C3       1.1276  14.3996   4.6422   C.1       1 RES1   0.0000
    11 C4       3.9226  11.5803   3.4234   C.3       1 RES1   0.0000
    12 H1       4.0855  10.8933   4.1033   H         1 RES1   0.0000
    13 H2       4.6626  11.5857   2.7803   H         1 RES1   0.0000
    14 H3       3.0842  11.3843   2.9554   H         1 RES1   0.0000
    15 C5       5.4443  13.5022   4.9164   C.3       1 RES1   0.0000
    16 H4       5.4585  14.3773   5.3555   H         1 RES1   0.0000
    17 H5       6.1108  13.4863   4.1988   H         1 RES1   0.0000
    18 H6       5.6528  12.8036   5.5713   H         1 RES1   0.0000
    19 C6       3.6730  14.3711   2.8527   C.3       1 RES1   0.0000
    20 H7       2.8536  14.1897   2.3453   H         1 RES1   0.0000
    21 H8       4.4509  14.2739   2.2639   H         1 RES1   0.0000
    22 H9       3.6433  15.2848   3.2048   H         1 RES1   0.0000
    23 C7       1.1011  13.3677   9.0517   C.3       1 RES1   0.0000
    24 H10      1.4268  12.4546   9.1935   H         1 RES1   0.0000
    25 H11      0.3779  13.5580   9.6835   H         1 RES1   0.0000
    26 H12      1.8342  14.0021   9.1935   H         1 RES1   0.0000
    27 C8      -0.3472  15.1322   7.3244   C.3       1 RES1   0.0000
    28 H13      0.3202  15.8462   7.3948   H         1 RES1   0.0000
    29 H14     -0.9709  15.1938   8.0775   H         1 RES1   0.0000
    30 H15     -0.8385  15.2269   6.4822   H         1 RES1   0.0000
    31 C9      -0.8813  12.3491   7.2452   C.3       1 RES1   0.0000
    32 H16     -1.3235  12.4436   6.3760   H         1 RES1   0.0000
    33 H17     -1.5262  12.5250   7.9608   H         1 RES1   0.0000
    34 H18     -0.5318  11.4381   7.3364   H         1 RES1   0.0000
    35 F1      -0.3785  11.0169  10.9088   F         2 RES2   0.0000
    36 F2      -2.5145   6.7863  11.1442   F         2 RES2   0.0000
    37 F3      -2.7422  12.1580  10.4270   F         2 RES2   0.0000
    38 F4      -4.8344   7.9530  10.6675   F         2 RES2   0.0000
    39 F5      -5.0114  10.6362  10.3598   F         2 RES2   0.0000
    40 F6       2.9318   7.9246  12.2063   F         2 RES2   0.0000
    41 F7       0.1690   9.4359   8.6573   F         2 RES2   0.0000
    42 F8       5.0638   8.2332  10.6527   F         2 RES2   0.0000
    43 F9       2.2994   9.7571   7.1491   F         2 RES2   0.0000
    44 F10      4.7853   9.1382   8.0846   F         2 RES2   0.0000
    45 F11      1.1106   6.2207  13.6428   F         2 RES2   0.0000
    46 F12     -0.4438   6.7058   9.1895   F         2 RES2   0.0000
    47 F13      1.4528   3.6287  13.2105   F         2 RES2   0.0000
    48 F14     -0.0816   4.1069   8.7890   F         2 RES2   0.0000
    49 F15      0.8921   2.5247  10.7910   F         2 RES2   0.0000
    50 F16     -1.4562   7.4168  13.7487   F         2 RES2   0.0000
    51 F17      1.8958  10.5622  12.5720   F         2 RES2   0.0000
    52 F18     -1.7429   8.6334  16.1065   F         2 RES2   0.0000
    53 F19      1.5457  11.7711  14.8934   F         2 RES2   0.0000
    54 F20     -0.2989  10.8860  16.6706   F         2 RES2   0.0000
    55 C10     -1.3024   8.8391  11.0306   C.ar      2 RES2   0.0000
    56 C11     -1.4685  10.2071  10.8474   C.ar      2 RES2   0.0000
    57 C12     -2.4891   8.1220  10.9654   C.ar      2 RES2   0.0000
    58 C13     -2.6750  10.8273  10.6180   C.ar      2 RES2   0.0000
    59 C14     -3.7229   8.7169  10.7319   C.ar      2 RES2   0.0000
    60 C15     -3.8136  10.0630  10.5747   C.ar      2 RES2   0.0000
    61 C16      1.4201   8.6793  10.5398   C.ar      2 RES2   0.0000
    62 C17      2.7226   8.3994  10.9518   C.ar      2 RES2   0.0000
    63 C18      1.3569   9.1385   9.2356   C.ar      2 RES2   0.0000
    64 C19      3.8442   8.5427  10.1704   C.ar      2 RES2   0.0000
    65 C20      2.4550   9.2995   8.4139   C.ar      2 RES2   0.0000
    66 C21      3.7129   8.9995   8.8785   C.ar      2 RES2   0.0000
    67 C22      0.2636   6.6092  11.4491   C.ar      2 RES2   0.0000
    68 C23     -0.0028   5.9712  10.2367   C.ar      2 RES2   0.0000
    69 C24      0.7523   5.7513  12.4189   C.ar      2 RES2   0.0000
    70 C25      0.1723   4.6369  10.0039   C.ar      2 RES2   0.0000
    71 C26      0.9427   4.4005  12.2257   C.ar      2 RES2   0.0000
    72 C27      0.6578   3.8274  11.0094   C.ar      2 RES2   0.0000
    73 C28      0.2457   8.8989  13.0292   C.ar      2 RES2   0.0000
    74 C29      0.9709  10.0223  13.4038   C.ar      2 RES2   0.0000
    75 C30     -0.6604   8.4776  14.0025   C.ar      2 RES2   0.0000
    76 C31      0.8076  10.6827  14.6081   C.ar      2 RES2   0.0000
    77 C32     -0.8438   9.1044  15.2169   C.ar      2 RES2   0.0000
    78 C33     -0.1153  10.2285  15.5123   C.ar      2 RES2   0.0000
    79 B1       0.1585   8.2512  11.5176   B         2 RES2  -1.0000
@<TRIPOS>BOND
     1     1     2    1
     2     3     1    1
     3     4     1    1
     4     5     8    3
     5     6     9    3
     6     7    10    3
     7     8     1    1
     8     9     1    1
     9    10     1    1
    10    11     3    1
    11    12    11    1
    12    13    11    1
    13    14    11    1
    14    15     3    1
    15    16    15    1
    16    17    15    1
    17    18    15    1
    18    19     3    1
    19    20    19    1
    20    21    19    1
    21    22    19    1
    22    23     4    1
    23    24    23    1
    24    25    23    1
    25    26    23    1
    26    27     4    1
    27    28    27    1
    28    29    27    1
    29    30    27    1
    30    31     4    1
    31    32    31    1
    32    33    31    1
    33    34    31    1
    34    35    56    1
    35    36    57    1
    36    37    58    1
    37    38    59    1
    38    39    60    1
    39    40    62    1
    40    41    63    1
    41    42    64    1
    42    43    65    1
    43    44    66    1
    44    45    69    1
    45    46    68    1
    46    47    71    1
    47    48    70    1
    48    49    72    1
    49    50    75    1
    50    51    74    1
    51    52    77    1
    52    53    76    1
    53    54    78    1
    54    55    56   ar
    55    56    58   ar
    56    57    55   ar
    57    58    60   ar
    58    59    57   ar
    59    60    59   ar
    60    61    62   ar
    61    62    64   ar
    62    63    61   ar
    63    64    66   ar
    64    65    63   ar
    65    66    65   ar
    66    67    68   ar
    67    68    70   ar
    68    69    67   ar
    69    70    72   ar
    70    71    69   ar
    71    72    71   ar
    72    73    74   ar
    73    74    76   ar
    74    75    73   ar
    75    76    78   ar
    76    77    75   ar
    77    78    77   ar
    78    79    55    1
    79    61    79    1
    80    67    79    1
    81    73    79    1
@<TRIPOS>SUBSTRUCTURE
     1 RES1        1 GROUP             0 ****  ****    0  
     2 RES2       35 GROUP             0 ****  ****    0  
@<TRIPOS>CRYSIN
   15.6073   13.7925   19.2547   90.0000  113.2830   90.0000   231     1
