@<TRIPOS>MOLECULE
OYICAD
    93    95     2     0     0
SMALL
USER_CHARGES
****
Generated from the CSD

@<TRIPOS>ATOM
     1 Fe1      2.9925  -1.2056  10.9169   Fe        1 RES1   1.0000
     2 P1       1.6835  -0.8306   9.0836   P.3       1 RES1   0.0000
     3 P2       4.4561  -1.6866  12.5780   P.3       1 RES1   0.0000
     4 O1       2.2134  -3.6254   9.6486   O.3       1 RES1   0.0000
     5 O2       2.2402   1.3895  12.1180   O.2       1 RES1   0.0000
     6 O3       0.8599  -2.7413  12.2487   O.2       1 RES1   0.0000
     7 O4       5.2123  -0.2537   9.2426   O.2       1 RES1   0.0000
     8 O5       0.9246  -4.4307   7.3252   O.3       1 RES1   0.0000
     9 C1       2.5400   0.4018  11.6497   C.1       1 RES1   0.0000
    10 C2       0.0065  -1.5134   9.1202   C.3       1 RES1   0.0000
    11 H1       0.0535  -2.4904   9.1828   H         1 RES1   0.0000
    12 H2      -0.4669  -1.2606   8.3009   H         1 RES1   0.0000
    13 H3      -0.4730  -1.1592   9.8980   H         1 RES1   0.0000
    14 C3       2.3659  -1.3943   7.4989   C.3       1 RES1   0.0000
    15 H4       3.2594  -1.0114   7.3740   H         1 RES1   0.0000
    16 H5       1.7805  -1.1030   6.7694   H         1 RES1   0.0000
    17 H6       2.4266  -2.3722   7.4992   H         1 RES1   0.0000
    18 C4       1.6735  -2.1249  11.7365   C.1       1 RES1   0.0000
    19 C5       4.9653  -0.2638  13.5757   C.3       1 RES1   0.0000
    20 H7       5.3541   0.4216  12.9931   H         1 RES1   0.0000
    21 H8       5.6309  -0.5484  14.2356   H         1 RES1   0.0000
    22 H9       4.1841   0.1066  14.0386   H         1 RES1   0.0000
    23 C6       3.9126  -2.9125  13.7992   C.3       1 RES1   0.0000
    24 H10      3.1228  -2.5747  14.2719   H         1 RES1   0.0000
    25 H11      4.6336  -3.0738  14.4435   H         1 RES1   0.0000
    26 H12      3.6875  -3.7501  13.3442   H         1 RES1   0.0000
    27 C7       3.4242  -3.0947  10.1679   C.3       1 RES1   0.0000
    28 H13      4.1062  -3.0327   9.4535   H         1 RES1   0.0000
    29 H14      3.7735  -3.6773  10.8878   H         1 RES1   0.0000
    30 C8       6.0328  -2.3676  11.9785   C.3       1 RES1   0.0000
    31 H15      5.8589  -3.1681  11.4400   H         1 RES1   0.0000
    32 H16      6.5972  -2.6063  12.7440   H         1 RES1   0.0000
    33 H17      6.4911  -1.6980  11.4306   H         1 RES1   0.0000
    34 C9       4.3558  -0.5877   9.9202   C.1       1 RES1   0.0000
    35 C10      1.4010   0.9346   8.7800   C.3       1 RES1   0.0000
    36 H18      0.9149   1.3230   9.5375   H         1 RES1   0.0000
    37 H19      0.8721   1.0453   7.9621   H         1 RES1   0.0000
    38 H20      2.2619   1.3907   8.6762   H         1 RES1   0.0000
    39 C11      1.0576  -5.2639   8.4441   C.3       1 RES1   0.0000
    40 H21      1.0467  -6.2130   8.1610   H         1 RES1   0.0000
    41 H22      0.3011  -5.1172   9.0660   H         1 RES1   0.0000
    42 C12      2.3476  -4.9549   9.1316   C.3       1 RES1   0.0000
    43 H23      2.5123  -5.5972   9.8666   H         1 RES1   0.0000
    44 H24      3.1017  -5.0034   8.4925   H         1 RES1   0.0000
    45 C13     -0.2401  -4.6954   6.5765   C.3       1 RES1   0.0000
    46 H25     -0.2857  -4.0806   5.8140   H         1 RES1   0.0000
    47 H26     -1.0291  -4.5706   7.1438   H         1 RES1   0.0000
    48 H27     -0.2155  -5.6189   6.2494   H         1 RES1   0.0000
    49 F1       7.2409   5.9194  13.3139   F         2 RES2   0.0000
    50 F2       5.9748   3.1625  13.3918   F         2 RES2   0.0000
    51 F3       5.9710   7.3489   8.9656   F         2 RES2   0.0000
    52 F4       3.7318   6.1745  10.4863   F         2 RES2   0.0000
    53 F5       7.7660   8.4504  13.9751   F         2 RES2   0.0000
    54 F6       9.2716   5.5048  11.3545   F         2 RES2   0.0000
    55 F7       8.0073   5.4772   8.6364   F         2 RES2   0.0000
    56 F8       7.4202  10.4559  12.1432   F         2 RES2   0.0000
    57 F9       6.0883   2.0092  10.8940   F         2 RES2   0.0000
    58 F10      6.4985   9.8378   9.6510   F         2 RES2   0.0000
    59 F11      3.8956   3.3113   9.5767   F         2 RES2   0.0000
    60 F12      1.4630   4.1704  14.0625   F         2 RES2   0.0000
    61 F13      1.5255   5.9375  11.9797   F         2 RES2   0.0000
    62 F14      3.7239   2.8300  14.7415   F         2 RES2   0.0000
    63 F15      3.6845   2.6458   7.0359   F         2 RES2   0.0000
    64 F16      5.5071   3.4908   5.2084   F         2 RES2   0.0000
    65 F17      7.7125   4.8545   6.0540   F         2 RES2   0.0000
    66 F18     10.6569   1.0444  11.1724   F         2 RES2   0.0000
    67 F19     11.1924   3.6986  11.4904   F         2 RES2   0.0000
    68 F20      8.0589   0.2221  10.9714   F         2 RES2   0.0000
    69 C14      4.8881   3.8460  12.9437   C.ar      2 RES2   0.0000
    70 C15      5.9465   4.5025   9.2554   C.ar      2 RES2   0.0000
    71 C16      6.6284   6.4696  11.0860   C.ar      2 RES2   0.0000
    72 C17      7.3394   8.1627  12.7216   C.ar      2 RES2   0.0000
    73 C18      2.6195   5.2205  12.2832   C.ar      2 RES2   0.0000
    74 C19      3.7428   3.6711  13.6924   C.ar      2 RES2   0.0000
    75 C20      7.0538   6.8610  12.3558   C.ar      2 RES2   0.0000
    76 C21      2.5968   4.3499  13.3593   C.ar      2 RES2   0.0000
    77 C22      4.9584   4.6422  11.8120   C.ar      2 RES2   0.0000
    78 C23      3.7770   5.3349  11.5486   C.ar      2 RES2   0.0000
    79 C24      7.5483   3.8626  11.1358   C.ar      2 RES2   0.0000
    80 C25      6.7191   8.8553  10.5465   C.ar      2 RES2   0.0000
    81 C26      7.1691   9.1799  11.7992   C.ar      2 RES2   0.0000
    82 C27      8.8858   4.2033  11.2782   C.ar      2 RES2   0.0000
    83 C28      4.8845   3.7484   8.7729   C.ar      2 RES2   0.0000
    84 C29      6.8875   4.8027   8.2775   C.ar      2 RES2   0.0000
    85 C30      6.4509   7.5332  10.2291   C.ar      2 RES2   0.0000
    86 C31      5.6707   3.7833   6.5167   C.ar      2 RES2   0.0000
    87 C32      9.9235   3.2771  11.3323   C.ar      2 RES2   0.0000
    88 C33      7.3457   2.4849  11.0476   C.ar      2 RES2   0.0000
    89 C34      4.7433   3.3871   7.4362   C.ar      2 RES2   0.0000
    90 C35      8.3457   1.5370  11.0761   C.ar      2 RES2   0.0000
    91 C36      6.7719   4.4797   6.9380   C.ar      2 RES2   0.0000
    92 C37      9.6498   1.9396  11.1999   C.ar      2 RES2   0.0000
    93 B1       6.2666   4.8759  10.8355   B         2 RES2  -1.0000
@<TRIPOS>BOND
     1     1     2    1
     2     2    10    1
     3     3     1    1
     4     4    27    1
     5     5     9    3
     6     6    18    3
     7     7    34    3
     8     8    39    1
     9     9     1    1
    10    10    11    1
    11    12    10    1
    12    13    10    1
    13    14     2    1
    14    15    14    1
    15    16    14    1
    16    17    14    1
    17    18     1    1
    18    19     3    1
    19    20    19    1
    20    21    19    1
    21    22    19    1
    22    23     3    1
    23    24    23    1
    24    25    23    1
    25    26    23    1
    26    27     1    1
    27    28    27    1
    28    29    27    1
    29    30     3    1
    30    31    30    1
    31    32    30    1
    32    33    30    1
    33    34     1    1
    34    35     2    1
    35    36    35    1
    36    37    35    1
    37    38    35    1
    38    39    40    1
    39    41    39    1
    40    42     4    1
    41    43    42    1
    42    44    42    1
    43    45     8    1
    44    46    45    1
    45    47    45    1
    46    48    45    1
    47    39    42    1
    48    49    75    1
    49    50    69    1
    50    51    85    1
    51    52    78    1
    52    53    72    1
    53    54    82    1
    54    55    84    1
    55    56    81    1
    56    57    88    1
    57    58    80    1
    58    59    83    1
    59    60    76    1
    60    61    73    1
    61    62    74    1
    62    63    89    1
    63    64    86    1
    64    65    91    1
    65    66    92    1
    66    67    87    1
    67    68    90    1
    68    69    74   ar
    69    70    83   ar
    70    71    75   ar
    71    72    75   ar
    72    73    76   ar
    73    74    76   ar
    74    77    69   ar
    75    78    73   ar
    76    79    82   ar
    77    80    81   ar
    78    81    72   ar
    79    82    87   ar
    80    83    89   ar
    81    84    70   ar
    82    85    71   ar
    83    86    89   ar
    84    87    92   ar
    85    88    79   ar
    86    90    88   ar
    87    91    84   ar
    88    92    90   ar
    89    93    70    1
    90    71    93    1
    91    77    78   ar
    92    77    93    1
    93    79    93    1
    94    80    85   ar
    95    86    91   ar
@<TRIPOS>SUBSTRUCTURE
     1 RES1        1 GROUP             0 ****  ****    0  
     2 RES2       49 GROUP             0 ****  ****    0  
@<TRIPOS>CRYSIN
   11.6380   12.6350   15.3070  104.7640  102.5880   99.7740     2     1
