@<TRIPOS>MOLECULE
OYOCIP
    81    87     2     0     0
SMALL
NO_CHARGES
****
Generated from the CSD

@<TRIPOS>ATOM
     1 Fe1      7.1873   9.1971   3.5918   Fe        1 RES1   0.0000
     2 N1       5.8092   9.0543   5.3322   N.3       1 RES1   0.0000
     3 C1       6.1768  10.1427   6.3118   C.3       1 RES1   0.0000
     4 H1       5.7427  10.9912   6.0091   H         1 RES1   0.0000
     5 O1       8.4343   9.3250   1.9246   O.3       1 RES1   0.0000
     6 C2       9.0195  12.9357   4.7203   C.ar      1 RES1   0.0000
     7 H2       9.7467  12.7574   5.3050   H         1 RES1   0.0000
     8 C3       4.4803   9.1409   4.7478   C.ar      1 RES1   0.0000
     9 C4       8.1400  11.9239   4.4020   C.ar      1 RES1   0.0000
    10 O2       8.3762   7.5005   4.0466   O.3       1 RES1   0.0000
    11 N2       6.2980  11.1528   3.0689   N.ar      1 RES1   0.0000
    12 C5       3.3756   9.6895   5.3448   C.ar      1 RES1   0.0000
    13 H3       3.4679  10.1376   6.1766   H         1 RES1   0.0000
    14 N3       5.4820   8.2289   2.7753   N.ar      1 RES1   0.0000
    15 N4       8.2768  10.5624   4.9175   N.3       1 RES1   0.0000
    16 C6       5.7121   9.8552   7.7474   C.3       1 RES1   0.0000
    17 H4       4.7268   9.7623   7.7572   H         1 RES1   0.0000
    18 H5       6.1010   8.9953   8.0485   H         1 RES1   0.0000
    19 C7       7.6881  10.3548   6.3026   C.3       1 RES1   0.0000
    20 H6       8.0923   9.5100   6.6549   H         1 RES1   0.0000
    21 C8       6.1210  10.9624   8.7286   C.3       1 RES1   0.0000
    22 H7       5.6892  11.8147   8.4710   H         1 RES1   0.0000
    23 H8       5.8218  10.7276   9.6436   H         1 RES1   0.0000
    24 C9       2.1176   9.6029   4.7495   C.ar      1 RES1   0.0000
    25 H9       1.3685   9.9870   5.1909   H         1 RES1   0.0000
    26 C10      9.7033  10.1402   4.9284   C.3       1 RES1   0.0000
    27 H10     10.0903  10.2757   4.0376   H         1 RES1   0.0000
    28 H11      9.7615   9.1924   5.1714   H         1 RES1   0.0000
    29 H12     10.1969  10.6762   5.5842   H         1 RES1   0.0000
    30 S1       8.6082   6.0703   4.0687   S.o2      1 RES1   0.0000
    31 F1      10.6532   6.5620   2.5117   F         1 RES1   0.0000
    32 O3       9.4678   5.6375   5.1054   O.2       1 RES1   0.0000
    33 C11      4.3354   8.5772   3.4498   C.ar      1 RES1   0.0000
    34 F2       8.8634   6.0449   1.4752   F         1 RES1   0.0000
    35 F3       9.9931   4.5342   2.5010   F         1 RES1   0.0000
    36 C12      1.9373   8.9790   3.5479   C.ar      1 RES1   0.0000
    37 H13      1.0654   8.8861   3.1830   H         1 RES1   0.0000
    38 C13      9.5848   5.7906   2.5712   C.3       1 RES1   0.0000
    39 O4       7.4324   5.2965   3.8679   O.2       1 RES1   0.0000
    40 S2       8.4609   9.9959   0.6337   S.o2      1 RES1   0.0000
    41 F4      11.0062   9.3919   0.6985   F         1 RES1   0.0000
    42 F5       9.8070   7.9648  -0.3343   F         1 RES1   0.0000
    43 O5       7.3968   9.6167  -0.2333   O.2       1 RES1   0.0000
    44 C14      5.9465   7.6763   5.9224   C.3       1 RES1   0.0000
    45 H14      5.2599   7.5442   6.6088   H         1 RES1   0.0000
    46 H15      6.8344   7.5819   6.3271   H         1 RES1   0.0000
    47 H16      5.8354   7.0057   5.2176   H         1 RES1   0.0000
    48 C15      7.0957  12.1900   3.4993   C.ar      1 RES1   0.0000
    49 O6       8.7667  11.3893   0.7072   O.2       1 RES1   0.0000
    50 C16      4.1377   7.5380   0.9284   C.ar      1 RES1   0.0000
    51 H17      4.1008   7.1451   0.0631   H         1 RES1   0.0000
    52 C17      8.0744  11.4632   7.2908   C.3       1 RES1   0.0000
    53 H18      9.0576  11.5862   7.2789   H         1 RES1   0.0000
    54 H19      7.6565  12.3156   7.0094   H         1 RES1   0.0000
    55 C18      3.0589   8.4706   2.8501   C.ar      1 RES1   0.0000
    56 C19      6.9113  13.5056   2.9742   C.ar      1 RES1   0.0000
    57 C20      5.3625   7.7275   1.5573   C.ar      1 RES1   0.0000
    58 H20      6.1531   7.4852   1.0901   H         1 RES1   0.0000
    59 C21      5.0444  12.7034   1.7126   C.ar      1 RES1   0.0000
    60 H21      4.3107  12.8440   1.1265   H         1 RES1   0.0000
    61 C22      9.9602   9.2539  -0.1017   C.3       1 RES1   0.0000
    62 C23      7.6221  11.1218   8.7062   C.3       1 RES1   0.0000
    63 H22      8.0534  10.2807   9.0027   H         1 RES1   0.0000
    64 H23      7.8926  11.8436   9.3280   H         1 RES1   0.0000
    65 C24      5.3409  11.4205   2.2152   C.ar      1 RES1   0.0000
    66 H24      4.8061  10.6962   1.9132   H         1 RES1   0.0000
    67 C25      7.8289  14.5223   3.3646   C.ar      1 RES1   0.0000
    68 H25      7.7176  15.4086   3.0422   H         1 RES1   0.0000
    69 C26      2.9934   7.9171   1.5558   C.ar      1 RES1   0.0000
    70 H26      2.1538   7.8091   1.1241   H         1 RES1   0.0000
    71 C27      5.8464  13.7328   2.0977   C.ar      1 RES1   0.0000
    72 H27      5.6814  14.6089   1.7699   H         1 RES1   0.0000
    73 C28      8.8553  14.2324   4.1908   C.ar      1 RES1   0.0000
    74 H28      9.4781  14.9127   4.4188   H         1 RES1   0.0000
    75 F6      10.2467   9.8306  -1.2535   F         1 RES1   0.0000
    76 C29      8.1346  -0.4808  21.1019   C.1       2 RES2   0.0000
    77 N5       7.8209  -1.1072  20.2288   N.1       2 RES2   0.0000
    78 C30      8.5577   0.3101  22.2131   C.3       2 RES2   0.0000
    79 H29      8.0458   0.0565  23.0092   H         2 RES2   0.0000
    80 H30      8.4046   1.2578  22.0162   H         2 RES2   0.0000
    81 H31      9.5122   0.1607  22.3756   H         2 RES2   0.0000
@<TRIPOS>BOND
     1     1     2    1
     2     2     3    1
     3     3     4    1
     4     5     1    1
     5     6     7    1
     6     8     2    1
     7     9     6   ar
     8    10     1    1
     9    11     1    1
    10    12     8   ar
    11    13    12    1
    12    14     1    1
    13    15     1    1
    14    16     3    1
    15    17    16    1
    16    18    16    1
    17    19     3    1
    18    20    19    1
    19    21    16    1
    20    22    21    1
    21    23    21    1
    22    24    12   ar
    23    25    24    1
    24    26    15    1
    25    27    26    1
    26    28    26    1
    27    29    26    1
    28    30    10    1
    29    31    38    1
    30    32    30    2
    31    33     8   ar
    32    34    38    1
    33    35    38    1
    34    36    24   ar
    35    37    36    1
    36    38    30    1
    37    39    30    2
    38    40     5    1
    39    41    61    1
    40    42    61    1
    41    43    40    2
    42    44     2    1
    43    45    44    1
    44    46    44    1
    45    47    44    1
    46    48     9   ar
    47    49    40    2
    48    50    51    1
    49    52    19    1
    50    53    52    1
    51    54    52    1
    52    55    33   ar
    53    56    48   ar
    54    57    14   ar
    55    58    57    1
    56    59    60    1
    57    61    40    1
    58    62    21    1
    59    63    62    1
    60    64    62    1
    61    65    11   ar
    62    66    65    1
    63    67    56   ar
    64    68    67    1
    65    69    50   ar
    66    70    69    1
    67    71    56   ar
    68    72    71    1
    69    73     6   ar
    70    74    73    1
    71    75    61    1
    72     9    15    1
    73    11    48   ar
    74    14    33   ar
    75    15    19    1
    76    36    55   ar
    77    50    57   ar
    78    52    62    1
    79    55    69   ar
    80    59    65   ar
    81    59    71   ar
    82    67    73   ar
    83    76    77    3
    84    78    76    1
    85    79    78    1
    86    80    78    1
    87    81    78    1
@<TRIPOS>SUBSTRUCTURE
     1 RES1        1 GROUP             0 ****  ****    0  
     2 RES2       76 GROUP             0 ****  ****    0  
@<TRIPOS>CRYSIN
   11.0504   12.5528   24.3380   90.0000   93.9890   90.0000    14     1
