@<TRIPOS>MOLECULE
OYODIS02
    91   100     3     0     0
SMALL
USER_CHARGES
****
Generated from the CSD

@<TRIPOS>ATOM
     1 Fe1      7.4542   5.5723  21.3780   Fe        1 RES1   2.0000
     2 N1       7.5497   5.3598  19.2679   N.ar      1 RES1   0.0000
     3 N2       5.5967   4.5261  20.7880   N.2       1 RES1   0.0000
     4 N3       9.2982   6.5563  20.7619   N.2       1 RES1   0.0000
     5 N4       7.1543   5.7788  23.4814   N.ar      1 RES1   0.0000
     6 N5       4.4702   4.0371  21.3453   N.pl3     1 RES1   0.0000
     7 H1       4.2661   4.1157  22.1771   H         1 RES1   0.0000
     8 N6       6.4922   7.5040  21.6560   N.2       1 RES1   0.0000
     9 N7       8.4322   3.8591  22.2957   N.2       1 RES1   0.0000
    10 N8       6.2783   8.5882  20.8990   N.pl3     1 RES1   0.0000
    11 H2       6.3049   8.5960  20.0407   H         1 RES1   0.0000
    12 N9      10.2958   7.2578  21.3214   N.pl3     1 RES1   0.0000
    13 H3      10.3915   7.3753  22.1686   H         1 RES1   0.0000
    14 N10      9.2338   2.8371  21.9276   N.pl3     1 RES1   0.0000
    15 H4       9.4757   2.6773  21.1189   H         1 RES1   0.0000
    16 C1       8.5689   5.9040  18.5843   C.ar      1 RES1   0.0000
    17 C2       6.5971   4.6695  18.6141   C.ar      1 RES1   0.0000
    18 C3       8.6551   5.7744  17.2029   C.ar      1 RES1   0.0000
    19 H5       9.3437   6.1857  16.7324   H         1 RES1   0.0000
    20 C4       9.5148   6.6124  19.4360   C.2       1 RES1   0.0000
    21 C5       7.5330   4.8008  24.3066   C.ar      1 RES1   0.0000
    22 C6       5.5151   4.2194  19.4860   C.2       1 RES1   0.0000
    23 C7       8.2837   3.7373  23.6270   C.2       1 RES1   0.0000
    24 C8       7.7058   5.0280  16.5412   C.ar      1 RES1   0.0000
    25 H6       7.7727   4.8958  15.6230   H         1 RES1   0.0000
    26 C9       6.6014   6.8958  23.9692   C.ar      1 RES1   0.0000
    27 C10      6.3507   7.9109  22.9301   C.2       1 RES1   0.0000
    28 C11      6.6512   4.4742  17.2481   C.ar      1 RES1   0.0000
    29 H7       5.9927   3.9818  16.8120   H         1 RES1   0.0000
    30 C12      6.7122   6.0086  26.1787   C.ar      1 RES1   0.0000
    31 H8       6.5382   6.0785  27.0899   H         1 RES1   0.0000
    32 C13      6.3589   7.0409  25.3239   C.ar      1 RES1   0.0000
    33 H9       5.9660   7.8167  25.6533   H         1 RES1   0.0000
    34 C14      7.3243   4.8777  25.6775   C.ar      1 RES1   0.0000
    35 H10      7.5872   4.1874  26.2421   H         1 RES1   0.0000
    36 C15      4.3461   3.5101  19.2269   C.2       1 RES1   0.0000
    37 H11      4.0586   3.1749  18.4079   H         1 RES1   0.0000
    38 C16     10.6681   7.3632  19.1612   C.2       1 RES1   0.0000
    39 H12     11.0358   7.5533  18.3283   H         1 RES1   0.0000
    40 C17      3.7116   3.4133  20.4347   C.2       1 RES1   0.0000
    41 H13      2.8989   2.9900  20.5955   H         1 RES1   0.0000
    42 C18     11.1271   7.7520  20.3867   C.2       1 RES1   0.0000
    43 H14     11.8834   8.2686  20.5471   H         1 RES1   0.0000
    44 C19      6.0427   9.2664  22.9608   C.2       1 RES1   0.0000
    45 H15      5.8884   9.7943  23.7104   H         1 RES1   0.0000
    46 C20      8.9995   2.6410  24.0984   C.2       1 RES1   0.0000
    47 H16      9.0557   2.3378  24.9763   H         1 RES1   0.0000
    48 C21      6.0185   9.6560  21.6577   C.2       1 RES1   0.0000
    49 H17      5.8493  10.5165  21.3493   H         1 RES1   0.0000
    50 C22      9.6018   2.1028  22.9884   C.2       1 RES1   0.0000
    51 H18     10.1653   1.3624  22.9736   H         1 RES1   0.0000
    52 N11      3.9183   2.6159  12.0401   N.1       2 RES2   0.0000
    53 C23      4.9762   5.6552  13.9059   C.2       2 RES2   0.0000
    54 H19      4.6364   4.8319  14.1750   H         2 RES2   0.0000
    55 C24      5.8217   7.8504  14.4956   C.2       2 RES2  -1.0000
    56 C25      5.2936   6.5813  14.8447   C.2       2 RES2   0.0000
    57 H20      5.1610   6.3783  15.7424   H         2 RES2   0.0000
    58 C26      5.6979   7.1861  12.1647   C.2       2 RES2   0.0000
    59 H21      5.8418   7.3839  11.2678   H         2 RES2   0.0000
    60 N12      6.2770   8.3869  17.9971   N.1       2 RES2   0.0000
    61 C27      5.1553   5.9187  12.5191   C.2       2 RES2   0.0000
    62 N13      6.9161  11.1411  14.6802   N.1       2 RES2   0.0000
    63 C28      4.8059   4.9675  11.5363   C.2       2 RES2   0.0000
    64 C29      4.3002   3.6820  11.8341   C.1       2 RES2   0.0000
    65 C30      6.0059   8.1088  13.1014   C.2       2 RES2   0.0000
    66 H22      6.3457   8.9321  12.8323   H         2 RES2   0.0000
    67 C31      6.1750   8.8249  15.4600   C.2       2 RES2   0.0000
    68 C32      6.2107   8.5658  16.8527   C.1       2 RES2   0.0000
    69 N14      5.2521   5.4850   9.0518   N.1       2 RES2   0.0000
    70 C33      6.5957  10.1061  15.0529   C.1       2 RES2   0.0000
    71 C34      5.0412   5.2405  10.1615   C.1       2 RES2   0.0000
    72 N15      3.0815   7.3865  27.0224   N.1       3 RES3   0.0000
    73 C35      4.2634   3.2112  29.7587   C.2       3 RES3   0.0000
    74 H23      4.1813   3.3857  30.6685   H         3 RES3   0.0000
    75 C36      4.0213   3.9524  27.4716   C.2       3 RES3   0.0000
    76 C37      4.7372   1.9490  29.3380   C.2       3 RES3  -1.0000
    77 N16      4.8736   1.2492  32.7980   N.1       3 RES3   0.0000
    78 C38      3.3202   6.2755  26.8424   C.1       3 RES3   0.0000
    79 C39      3.6328   4.9287  26.5172   C.2       3 RES3   0.0000
    80 C40      4.8863   1.7348  27.9450   C.2       3 RES3   0.0000
    81 H24      5.2330   0.9279  27.6389   H         3 RES3   0.0000
    82 N17      3.8013   4.4233  24.0182   N.1       3 RES3   0.0000
    83 C41      5.1058   0.9304  30.2631   C.2       3 RES3   0.0000
    84 C42      3.7213   4.6583  25.1415   C.1       3 RES3   0.0000
    85 C43      4.5313   2.6894  27.0500   C.2       3 RES3   0.0000
    86 H25      4.6204   2.5166  26.1397   H         3 RES3   0.0000
    87 N18      6.1314  -1.2933  29.5087   N.1       3 RES3   0.0000
    88 C44      4.9613   1.1050  31.6584   C.1       3 RES3   0.0000
    89 C45      3.9241   4.1814  28.8618   C.2       3 RES3   0.0000
    90 H26      3.6241   5.0056  29.1693   H         3 RES3   0.0000
    91 C46      5.6639  -0.3015  29.8421   C.1       3 RES3   0.0000
@<TRIPOS>BOND
     1     1     2    1
     2     2    16   ar
     3     3     1    1
     4     4     1    1
     5     5     1    1
     6     6     3    1
     7     7     6    1
     8     8     1    1
     9     9     1    1
    10    10     8    1
    11    11    10    1
    12    12     4    1
    13    13    12    1
    14    14     9    1
    15    15    14    1
    16    16    18   ar
    17    17     2   ar
    18    18    19    1
    19    20     4    2
    20    21     5   ar
    21    22     3    2
    22    23     9    2
    23    24    18   ar
    24    25    24    1
    25    26     5   ar
    26    27     8    2
    27    28    17   ar
    28    29    28    1
    29    30    31    1
    30    32    26   ar
    31    33    32    1
    32    34    21   ar
    33    35    34    1
    34    36    22    1
    35    37    36    1
    36    38    20    1
    37    39    38    1
    38    40     6    1
    39    41    40    1
    40    42    12    1
    41    43    42    1
    42    44    27    1
    43    45    44    1
    44    46    23    1
    45    47    46    1
    46    48    10    1
    47    49    48    1
    48    50    14    1
    49    51    50    1
    50    16    20    1
    51    17    22    1
    52    21    23    1
    53    24    28   ar
    54    26    27    1
    55    30    32   ar
    56    30    34   ar
    57    36    40    2
    58    38    42    2
    59    44    48    2
    60    46    50    2
    61    52    64    3
    62    53    54    1
    63    55    56    1
    64    56    53    2
    65    57    56    1
    66    58    59    1
    67    60    68    3
    68    61    53    1
    69    62    70    3
    70    63    61    2
    71    64    63    1
    72    65    55    1
    73    66    65    1
    74    67    55    2
    75    68    67    1
    76    69    71    3
    77    70    67    1
    78    71    63    1
    79    58    61    1
    80    58    65    2
    81    72    78    3
    82    73    74    1
    83    75    79    2
    84    76    73    1
    85    77    88    3
    86    78    79    1
    87    79    84    1
    88    80    76    1
    89    81    80    1
    90    82    84    3
    91    83    76    2
    92    85    75    1
    93    86    85    1
    94    87    91    3
    95    88    83    1
    96    89    73    2
    97    90    89    1
    98    91    83    1
    99    75    89    1
   100    80    85    2
@<TRIPOS>SUBSTRUCTURE
     1 RES1        1 GROUP             0 ****  ****    0  
     2 RES2       52 GROUP             0 ****  ****    0  
     3 RES3       72 GROUP             0 ****  ****    0  
@<TRIPOS>CRYSIN
   17.3168    8.6392   28.4775   90.0000   92.6620   90.0000   231     1
