@<TRIPOS>MOLECULE
OYODIS01
    91   100     3     0     0
SMALL
USER_CHARGES
****
Generated from the CSD

@<TRIPOS>ATOM
     1 Fe1      8.4504   5.4224   7.1547   Fe        1 RES1   2.0000
     2 N1      10.2702   4.4602   7.6897   N.2       1 RES1   0.0000
     3 N2       8.7275   5.6143   5.1300   N.ar      1 RES1   0.0000
     4 N3       6.6183   6.3277   7.6874   N.2       1 RES1   0.0000
     5 N4       8.3640   5.2398   9.2076   N.ar      1 RES1   0.0000
     6 N5       9.3326   7.3047   6.9515   N.2       1 RES1   0.0000
     7 N6      11.3735   3.9578   7.0989   N.pl3     1 RES1   0.0000
     8 H1      11.5440   4.0188   6.2388   H         1 RES1   0.0000
     9 N7       7.5436   3.7171   6.3277   N.2       1 RES1   0.0000
    10 N8       5.6072   6.9598   7.0787   N.pl3     1 RES1   0.0000
    11 H2       5.5306   7.0479   6.2071   H         1 RES1   0.0000
    12 N9       9.5606   8.3587   7.7541   N.pl3     1 RES1   0.0000
    13 H3       9.5156   8.3392   8.6330   H         1 RES1   0.0000
    14 C1       8.3485   4.6280   4.2886   C.ar      1 RES1   0.0000
    15 C2      10.4091   4.1433   8.9909   C.2       1 RES1   0.0000
    16 N10      6.7835   2.6877   6.7484   N.pl3     1 RES1   0.0000
    17 H4       6.5508   2.5487   7.5855   H         1 RES1   0.0000
    18 C3       7.3328   5.7719   9.8937   C.ar      1 RES1   0.0000
    19 C4       7.6596   3.5714   5.0100   C.2       1 RES1   0.0000
    20 C5       6.3568   6.4133   9.0137   C.2       1 RES1   0.0000
    21 C6       9.3425   4.5950   9.8876   C.ar      1 RES1   0.0000
    22 C7       9.2865   6.7598   4.6411   C.ar      1 RES1   0.0000
    23 C8       9.5174   7.7402   5.7038   C.2       1 RES1   0.0000
    24 C9       9.2742   4.4255  11.2485   C.ar      1 RES1   0.0000
    25 H5       9.9519   3.9374  11.7034   H         1 RES1   0.0000
    26 C10      9.1581   5.8829   2.4250   C.ar      1 RES1   0.0000
    27 H6       9.3178   5.9744   1.4935   H         1 RES1   0.0000
    28 C11      8.2364   4.9576  11.9434   C.ar      1 RES1   0.0000
    29 H7       8.1837   4.8441  12.8861   H         1 RES1   0.0000
    30 C12      8.5638   4.7212   2.9231   C.ar      1 RES1   0.0000
    31 H8       8.3114   4.0146   2.3395   H         1 RES1   0.0000
    32 C13      7.2568   5.6626  11.2761   C.ar      1 RES1   0.0000
    33 H9       6.5421   6.0676  11.7552   H         1 RES1   0.0000
    34 C14      9.5130   6.9030   3.2952   C.ar      1 RES1   0.0000
    35 H10      9.9127   7.6978   2.9611   H         1 RES1   0.0000
    36 C15     11.6134   3.4587   9.2209   C.2       1 RES1   0.0000
    37 H11     11.9583   3.1401  10.0459   H         1 RES1   0.0000
    38 C16      6.9534   2.4275   4.5841   C.2       1 RES1   0.0000
    39 H12      6.8654   2.0988   3.6978   H         1 RES1   0.0000
    40 C17      9.8619   9.0942   5.7121   C.2       1 RES1   0.0000
    41 H13     10.0533   9.6500   4.9668   H         1 RES1   0.0000
    42 C18     12.1735   3.3579   7.9820   C.2       1 RES1   0.0000
    43 H14     12.9996   2.9317   7.7812   H         1 RES1   0.0000
    44 C19      5.1734   7.1106   9.2258   C.2       1 RES1   0.0000
    45 H15      4.7634   7.3131  10.0574   H         1 RES1   0.0000
    46 C20      9.8637   9.4382   7.0301   C.2       1 RES1   0.0000
    47 H16     10.0507  10.3024   7.3783   H         1 RES1   0.0000
    48 C21      4.7267   7.4428   7.9740   C.2       1 RES1   0.0000
    49 H17      3.9361   7.9283   7.7725   H         1 RES1   0.0000
    50 C22      6.4233   1.8988   5.7179   C.2       1 RES1   0.0000
    51 H18      5.8935   1.1125   5.7726   H         1 RES1   0.0000
    52 N11     12.7381   7.3064   1.5197   N.1       2 RES2   0.0000
    53 N12     10.9449   1.2947  -4.3222   N.1       2 RES2   0.0000
    54 N13     12.1023   4.2891   4.4644   N.1       2 RES2   0.0000
    55 N14      9.6907  -1.3472  -1.0797   N.1       2 RES2   0.0000
    56 C23     11.0582   1.9141  -0.8734   C.2       2 RES2   0.0000
    57 C24     11.8151   3.8747   1.0112   C.2       2 RES2  -1.0000
    58 C25     11.5359   3.1884  -1.2777   C.2       2 RES2   0.0000
    59 H19     11.6119   3.3782  -2.2043   H         2 RES2   0.0000
    60 C26     11.8894   4.1501  -0.3718   C.2       2 RES2   0.0000
    61 H20     12.1853   5.0017  -0.6734   H         2 RES2   0.0000
    62 C27     10.8501   1.1252  -3.1856   C.1       2 RES2   0.0000
    63 C28     10.9443   1.6785   0.5174   C.2       2 RES2   0.0000
    64 H21     10.6024   0.8439   0.8173   H         2 RES2   0.0000
    65 C29     12.5195   6.1794   1.6869   C.1       2 RES2   0.0000
    66 C30     11.3090   2.6080   1.4394   C.2       2 RES2   0.0000
    67 H22     11.2297   2.4157   2.3654   H         2 RES2   0.0000
    68 C31     12.2170   4.8449   1.9827   C.2       2 RES2   0.0000
    69 C32     10.7080   0.9041  -1.8152   C.2       2 RES2   0.0000
    70 C33     12.1604   4.5492   3.3502   C.1       2 RES2   0.0000
    71 C34     10.1562  -0.3406  -1.3951   C.1       2 RES2   0.0000
    72 N15     11.9827   2.5199  16.5900   N.1       3 RES3   0.0000
    73 N16      9.5301   8.2545  10.6344   N.1       3 RES3   0.0000
    74 N17      8.9865  11.0676  13.9491   N.1       3 RES3   0.0000
    75 C35     10.9064   5.5490  14.7109   C.2       3 RES3   0.0000
    76 H23     11.2473   4.7068  14.4343   H         3 RES3   0.0000
    77 N18     10.6746   5.4253  19.5672   N.1       3 RES3   0.0000
    78 C36     11.6208   3.5968  16.7934   C.1       3 RES3   0.0000
    79 C37     10.5697   6.4870  13.7713   C.2       3 RES3   0.0000
    80 H24     10.6795   6.2786  12.8516   H         3 RES3   0.0000
    81 C38     10.7514   5.8244  16.1025   C.2       3 RES3   0.0000
    82 C39      9.8978   8.0300  15.5258   C.2       3 RES3   0.0000
    83 H25      9.5587   8.8747  15.7983   H         3 RES3   0.0000
    84 C40     10.2188   7.1038  16.4737   C.2       3 RES3   0.0000
    85 H26     10.0885   7.3089  17.3925   H         3 RES3   0.0000
    86 C41     10.0612   7.7580  14.1342   C.2       3 RES3  -1.0000
    87 C42      9.6264   8.4570  11.7722   C.1       3 RES3   0.0000
    88 C43      9.6966   8.7222  13.1679   C.2       3 RES3   0.0000
    89 C44     11.1101   4.8797  17.0892   C.2       3 RES3   0.0000
    90 C45      9.2906  10.0161  13.5725   C.1       3 RES3   0.0000
    91 C46     10.8828   5.1728  18.4538   C.1       3 RES3   0.0000
@<TRIPOS>BOND
     1     1     2    1
     2     2     7    1
     3     3     1    1
     4     4     1    1
     5     5     1    1
     6     6     1    1
     7     7     8    1
     8     9     1    1
     9    10     4    1
    10    11    10    1
    11    12     6    1
    12    13    12    1
    13    14     3   ar
    14    15     2    2
    15    16     9    1
    16    17    16    1
    17    18     5   ar
    18    19     9    2
    19    20     4    2
    20    21     5   ar
    21    22     3   ar
    22    23     6    2
    23    24    21   ar
    24    25    24    1
    25    26    27    1
    26    28    24   ar
    27    29    28    1
    28    30    14   ar
    29    31    30    1
    30    32    18   ar
    31    33    32    1
    32    34    22   ar
    33    35    34    1
    34    36    15    1
    35    37    36    1
    36    38    19    1
    37    39    38    1
    38    40    23    1
    39    41    40    1
    40    42     7    1
    41    43    42    1
    42    44    20    1
    43    45    44    1
    44    46    12    1
    45    47    46    1
    46    48    10    1
    47    49    48    1
    48    50    16    1
    49    51    50    1
    50    14    19    1
    51    15    21    1
    52    18    20    1
    53    22    23    1
    54    26    30   ar
    55    26    34   ar
    56    28    32   ar
    57    36    42    2
    58    38    50    2
    59    40    46    2
    60    44    48    2
    61    52    65    3
    62    53    62    3
    63    54    70    3
    64    55    71    3
    65    56    58    1
    66    57    60    1
    67    58    59    1
    68    60    58    2
    69    61    60    1
    70    62    69    1
    71    63    56    1
    72    64    63    1
    73    65    68    1
    74    66    57    1
    75    67    66    1
    76    68    57    2
    77    69    56    2
    78    70    68    1
    79    71    69    1
    80    63    66    2
    81    72    78    3
    82    73    87    3
    83    74    90    3
    84    75    76    1
    85    77    91    3
    86    78    89    1
    87    79    75    2
    88    80    79    1
    89    81    75    1
    90    82    83    1
    91    84    81    1
    92    85    84    1
    93    86    79    1
    94    87    88    1
    95    88    86    2
    96    89    81    2
    97    90    88    1
    98    91    89    1
    99    82    84    2
   100    82    86    1
@<TRIPOS>SUBSTRUCTURE
     1 RES1        1 GROUP             0 ****  ****    0  
     2 RES2       52 GROUP             0 ****  ****    0  
     3 RES3       72 GROUP             0 ****  ****    0  
@<TRIPOS>CRYSIN
   17.0726    8.4731   28.8012   90.0000   92.3710   90.0000   231     1
