@<TRIPOS>MOLECULE
OYODIS
    91   100     3     0     0
SMALL
USER_CHARGES
****
Generated from the CSD

@<TRIPOS>ATOM
     1 Fe1      8.4425   3.0559   7.1655   Fe        1 RES1   2.0000
     2 N1      10.2506   4.0137   7.6963   N.2       1 RES1   0.0000
     3 N2       8.7176   2.8647   5.1488   N.ar      1 RES1   0.0000
     4 N3       8.3523   3.2330   9.2144   N.ar      1 RES1   0.0000
     5 N4       9.3222   1.1872   6.9691   N.2       1 RES1   0.0000
     6 N5      11.3503   4.5100   7.0846   N.pl3     1 RES1   0.0000
     7 H1      11.5138   4.4515   6.2211   H         1 RES1   0.0000
     8 N6       6.6168   2.1576   7.6865   N.2       1 RES1   0.0000
     9 N7       7.5467   4.7589   6.3533   N.2       1 RES1   0.0000
    10 N8       9.5514   0.1380   7.7807   N.pl3     1 RES1   0.0000
    11 H2       9.5065   0.1609   8.6606   H         1 RES1   0.0000
    12 N9       5.6054   1.5361   7.0702   N.pl3     1 RES1   0.0000
    13 H3       5.5305   1.4531   6.1981   H         1 RES1   0.0000
    14 C1       6.3524   2.0687   9.0117   C.2       1 RES1   0.0000
    15 N10      6.7922   5.7886   6.7856   N.pl3     1 RES1   0.0000
    16 H4       6.5681   5.9258   7.6266   H         1 RES1   0.0000
    17 C2      10.3965   4.3254   8.9955   C.2       1 RES1   0.0000
    18 C3       7.3239   2.7156   9.8933   C.ar      1 RES1   0.0000
    19 C4       9.5102   0.7443   5.7211   C.2       1 RES1   0.0000
    20 C5       8.3454   3.8478   4.3159   C.ar      1 RES1   0.0000
    21 C6       9.3311   3.8799   9.8944   C.ar      1 RES1   0.0000
    22 C7       9.2709   1.7096   4.6592   C.ar      1 RES1   0.0000
    23 C8       9.2716   4.0544  11.2515   C.ar      1 RES1   0.0000
    24 H5       9.9470   4.5447  11.7049   H         1 RES1   0.0000
    25 C9       7.6443   4.9139   5.0221   C.2       1 RES1   0.0000
    26 C10      9.1505   2.6038   2.4533   C.ar      1 RES1   0.0000
    27 H6       9.3202   2.5192   1.5236   H         1 RES1   0.0000
    28 C11      8.2250   3.5116  11.9422   C.ar      1 RES1   0.0000
    29 H7       8.1690   3.6200  12.8857   H         1 RES1   0.0000
    30 C12      7.2499   2.8071  11.2720   C.ar      1 RES1   0.0000
    31 H8       6.5395   2.3922  11.7481   H         1 RES1   0.0000
    32 C13      8.5558   3.7563   2.9366   C.ar      1 RES1   0.0000
    33 H9       8.3002   4.4608   2.3531   H         1 RES1   0.0000
    34 C14      9.5006   1.5708   3.3093   C.ar      1 RES1   0.0000
    35 H10      9.8933   0.7765   2.9665   H         1 RES1   0.0000
    36 C15     11.6000   5.0096   9.2159   C.2       1 RES1   0.0000
    37 H11     11.9480   5.3313  10.0402   H         1 RES1   0.0000
    38 C16      6.9482   6.0604   4.6169   C.2       1 RES1   0.0000
    39 H12      6.8602   6.4034   3.7327   H         1 RES1   0.0000
    40 C17     12.1575   5.1069   7.9809   C.2       1 RES1   0.0000
    41 H13     12.9860   5.5286   7.7821   H         1 RES1   0.0000
    42 C18      9.8558  -0.6165   5.7344   C.2       1 RES1   0.0000
    43 H14     10.0451  -1.1779   4.9913   H         1 RES1   0.0000
    44 C19      5.1657   1.3692   9.2107   C.2       1 RES1   0.0000
    45 H15      4.7563   1.1567  10.0402   H         1 RES1   0.0000
    46 C20      9.8559  -0.9475   7.0535   C.2       1 RES1   0.0000
    47 H16     10.0427  -1.8104   7.4048   H         1 RES1   0.0000
    48 C21      4.7142   1.0542   7.9607   C.2       1 RES1   0.0000
    49 H17      3.9160   0.5800   7.7562   H         1 RES1   0.0000
    50 C22      6.4251   6.5744   5.7632   C.2       1 RES1   0.0000
    51 H18      5.8920   7.3577   5.8294   H         1 RES1   0.0000
    52 N11     12.7269   1.1652   1.5394   N.1       2 RES2   0.0000
    53 N12     10.9170   7.1612  -4.3133   N.1       2 RES2   0.0000
    54 N13     12.1078   4.2017   4.4746   N.1       2 RES2   0.0000
    55 N14      9.6701   9.8235  -1.0847   N.1       2 RES2   0.0000
    56 C23     11.0496   6.5583  -0.8741   C.2       2 RES2   0.0000
    57 C24     11.8004   4.5972   1.0155   C.2       2 RES2  -1.0000
    58 C25     12.2007   3.6301   1.9752   C.2       2 RES2   0.0000
    59 C26     11.5181   5.2788  -1.2759   C.2       2 RES2   0.0000
    60 H19     11.5905   5.0858  -2.2033   H         2 RES2   0.0000
    61 C27     10.8311   7.3484  -3.1826   C.1       2 RES2   0.0000
    62 C28     12.5078   2.2956   1.6846   C.1       2 RES2   0.0000
    63 C29     10.9321   6.7996   0.5262   C.2       2 RES2   0.0000
    64 H20     10.5854   7.6312   0.8266   H         2 RES2   0.0000
    65 C30     11.8679   4.3194  -0.3727   C.2       2 RES2   0.0000
    66 H21     12.1549   3.4659  -0.6740   H         2 RES2   0.0000
    67 C31     11.3038   5.8716   1.4355   C.2       2 RES2   0.0000
    68 H22     11.2349   6.0672   2.3617   H         2 RES2   0.0000
    69 C32     12.1507   3.9248   3.3528   C.1       2 RES2   0.0000
    70 C33     10.6959   7.5567  -1.8079   C.2       2 RES2   0.0000
    71 C34     10.1366   8.8141  -1.3974   C.1       2 RES2   0.0000
    72 N15     11.9686   5.9520  16.6049   N.1       3 RES3   0.0000
    73 N16      9.5094   0.2252  10.6562   N.1       3 RES3   0.0000
    74 N17      8.9786  -2.5971  13.9698   N.1       3 RES3   0.0000
    75 N18     10.6724   3.0408  19.5818   N.1       3 RES3   0.0000
    76 C35     10.0440   0.7232  14.1467   C.2       3 RES3   0.0000
    77 C36     10.8954   2.9299  14.7163   C.2       3 RES3   0.0000
    78 H23     11.2308   3.7749  14.4410   H         3 RES3   0.0000
    79 C37     10.5572   1.9908  13.7789   C.2       3 RES3   0.0000
    80 H24     10.6703   2.1949  12.8569   H         3 RES3   0.0000
    81 C38     10.7422   2.6386  16.1144   C.2       3 RES3  -1.0000
    82 C39      9.6830  -0.2515  13.1838   C.2       3 RES3   0.0000
    83 C40      9.6159   0.0144  11.7942   C.1       3 RES3   0.0000
    84 C41     11.6075   4.8724  16.7998   C.1       3 RES3   0.0000
    85 C42     11.0992   3.5870  17.0922   C.2       3 RES3   0.0000
    86 C43      9.8894   0.4336  15.5372   C.2       3 RES3   0.0000
    87 H25      9.5560  -0.4141  15.8062   H         3 RES3   0.0000
    88 C44      9.2775  -1.5454  13.5879   C.1       3 RES3   0.0000
    89 C45     10.2138   1.3625  16.4790   C.2       3 RES3   0.0000
    90 H26     10.0871   1.1575  17.3989   H         3 RES3   0.0000
    91 C46     10.8838   3.3075  18.4680   C.1       3 RES3   0.0000
@<TRIPOS>BOND
     1     1     2    1
     2     2     6    1
     3     3     1    1
     4     4     1    1
     5     5     1    1
     6     6     7    1
     7     8     1    1
     8     9     1    1
     9    10     5    1
    10    11    10    1
    11    12     8    1
    12    13    12    1
    13    14     8    2
    14    15     9    1
    15    16    15    1
    16    17     2    2
    17    18     4   ar
    18    19     5    2
    19    20     3   ar
    20    21     4   ar
    21    22     3   ar
    22    23    21   ar
    23    24    23    1
    24    25     9    2
    25    26    27    1
    26    28    23   ar
    27    29    28    1
    28    30    18   ar
    29    31    30    1
    30    32    20   ar
    31    33    32    1
    32    34    22   ar
    33    35    34    1
    34    36    17    1
    35    37    36    1
    36    38    25    1
    37    39    38    1
    38    40     6    1
    39    41    40    1
    40    42    19    1
    41    43    42    1
    42    44    14    1
    43    45    44    1
    44    46    10    1
    45    47    46    1
    46    48    12    1
    47    49    48    1
    48    50    15    1
    49    51    50    1
    50    14    18    1
    51    17    21    1
    52    19    22    1
    53    20    25    1
    54    26    32   ar
    55    26    34   ar
    56    28    30   ar
    57    36    40    2
    58    38    50    2
    59    42    46    2
    60    44    48    2
    61    52    62    3
    62    53    61    3
    63    54    69    3
    64    55    71    3
    65    56    59    1
    66    57    58    2
    67    58    62    1
    68    59    60    1
    69    61    70    1
    70    63    56    1
    71    64    63    1
    72    65    57    1
    73    66    65    1
    74    67    57    1
    75    68    67    1
    76    69    58    1
    77    70    56    2
    78    71    70    1
    79    59    65    2
    80    63    67    2
    81    72    84    3
    82    73    83    3
    83    74    88    3
    84    75    91    3
    85    76    79    1
    86    77    78    1
    87    79    77    2
    88    80    79    1
    89    81    77    1
    90    82    76    2
    91    83    82    1
    92    84    85    1
    93    85    81    2
    94    86    76    1
    95    87    86    1
    96    88    82    1
    97    89    81    1
    98    90    89    1
    99    91    85    1
   100    86    89    2
@<TRIPOS>SUBSTRUCTURE
     1 RES1        1 GROUP             0 ****  ****    0  
     2 RES2       52 GROUP             0 ****  ****    0  
     3 RES3       72 GROUP             0 ****  ****    0  
@<TRIPOS>CRYSIN
   17.0540    8.4678   28.8259   90.0000   92.3640   90.0000   231     1
