@<TRIPOS>MOLECULE
OZOCIS
    75    77     1     0     0
SMALL
NO_CHARGES
****
Generated from the CSD

@<TRIPOS>ATOM
     1 Fe1      9.5905   7.4924   8.1019   Fe        1 RES1   0.0000
     2 H1       9.5905   6.8717   6.7775   H         1 RES1   0.0000
     3 S1       9.5905   8.1804  10.3639   S.3       1 RES1   0.0000
     4 P1       7.3937   7.2781   8.0764   P.3       1 RES1   0.0000
     5 O1       9.5905  10.0466   6.7533   O.2       1 RES1   0.0000
     6 N1       9.5905   5.5402   8.8371   N.3       1 RES1   0.0000
     7 H2       9.5905   5.6202   9.8342   H         1 RES1   0.0000
     8 C1       9.5905   9.0308   7.3269   C.1       1 RES1   0.0000
     9 C2       7.1578   5.6159   8.8394   C.3       1 RES1   0.0000
    10 H3       7.0740   5.7008   9.8230   H         1 RES1   0.0000
    11 H4       6.3336   5.1935   8.4881   H         1 RES1   0.0000
    12 C3       8.3731   4.7694   8.4876   C.3       1 RES1   0.0000
    13 H5       8.3533   3.9184   8.9934   H         1 RES1   0.0000
    14 H6       8.3706   4.5584   7.5199   H         1 RES1   0.0000
    15 C4       6.4795   7.2281   6.4568   C.3       1 RES1   0.0000
    16 H7       5.5088   7.3691   6.6478   H         1 RES1   0.0000
    17 C5       6.6245   5.8877   5.7308   C.3       1 RES1   0.0000
    18 H8       7.5727   5.7082   5.5633   H         1 RES1   0.0000
    19 H9       6.1437   5.9241   4.8768   H         1 RES1   0.0000
    20 H10      6.2492   5.1724   6.2878   H         1 RES1   0.0000
    21 C6       6.9451   8.3578   5.5311   C.3       1 RES1   0.0000
    22 H11      6.8860   9.2135   6.0038   H         1 RES1   0.0000
    23 H12      6.3738   8.3850   4.7360   H         1 RES1   0.0000
    24 H13      7.8738   8.1977   5.2614   H         1 RES1   0.0000
    25 C7       6.3309   8.3729   9.1399   C.3       1 RES1   0.0000
    26 H14      6.8208   8.4867  10.0041   H         1 RES1   0.0000
    27 C8       4.9617   7.7834   9.4977   C.3       1 RES1   0.0000
    28 H15      4.4404   7.6494   8.6781   H         1 RES1   0.0000
    29 H16      4.4864   8.4011  10.0913   H         1 RES1   0.0000
    30 H17      5.0849   6.9238   9.9505   H         1 RES1   0.0000
    31 C9       6.1581   9.7769   8.5578   C.3       1 RES1   0.0000
    32 H18      7.0298  10.1215   8.2734   H         1 RES1   0.0000
    33 H19      5.7792  10.3696   9.2416   H         1 RES1   0.0000
    34 H20      5.5529   9.7395   7.7882   H         1 RES1   0.0000
    35 C10      9.5905  10.0150  10.2720   C.3       1 RES1   0.0000
    36 H21     10.3903  10.3138   9.7716   H         1 RES1   0.0000
    37 C11      9.5905  10.6618  11.6244   C.ar      1 RES1   0.0000
    38 C12     10.7851  10.9704  12.2621   C.ar      1 RES1   0.0000
    39 H22     11.6103  10.7814  11.8310   H         1 RES1   0.0000
    40 C13     10.7832  11.5544  13.5284   C.ar      1 RES1   0.0000
    41 H23     11.6064  11.7600  13.9553   H         1 RES1   0.0000
    42 C14      9.5905  11.8357  14.1637   C.ar      1 RES1   0.0000
    43 H24      9.5905  12.2202  15.0330   H         1 RES1   0.0000
    44 H21K     8.7907  10.3138   9.7716   H         1 RES1   0.0000
    45 C12K     8.3959  10.9704  12.2621   C.ar      1 RES1   0.0000
    46 H22K     7.5707  10.7814  11.8310   H         1 RES1   0.0000
    47 C13K     8.3978  11.5544  13.5284   C.ar      1 RES1   0.0000
    48 H23K     7.5746  11.7600  13.9553   H         1 RES1   0.0000
    49 P1K     11.7873   7.2781   8.0764   P.3       1 RES1   0.0000
    50 C2K     12.0232   5.6159   8.8394   C.3       1 RES1   0.0000
    51 H3K     12.1070   5.7008   9.8230   H         1 RES1   0.0000
    52 H4K     12.8474   5.1935   8.4881   H         1 RES1   0.0000
    53 C3K     10.8079   4.7694   8.4876   C.3       1 RES1   0.0000
    54 H5K     10.8277   3.9184   8.9934   H         1 RES1   0.0000
    55 H6K     10.8104   4.5584   7.5199   H         1 RES1   0.0000
    56 C4K     12.7015   7.2281   6.4568   C.3       1 RES1   0.0000
    57 H7K     13.6722   7.3691   6.6478   H         1 RES1   0.0000
    58 C5K     12.5565   5.8877   5.7308   C.3       1 RES1   0.0000
    59 H8K     11.6083   5.7082   5.5633   H         1 RES1   0.0000
    60 H9K     13.0373   5.9241   4.8768   H         1 RES1   0.0000
    61 H10K    12.9318   5.1724   6.2878   H         1 RES1   0.0000
    62 C6K     12.2359   8.3578   5.5311   C.3       1 RES1   0.0000
    63 H11K    12.2950   9.2135   6.0038   H         1 RES1   0.0000
    64 H12K    12.8072   8.3850   4.7360   H         1 RES1   0.0000
    65 H13K    11.3072   8.1977   5.2614   H         1 RES1   0.0000
    66 C7K     12.8501   8.3729   9.1399   C.3       1 RES1   0.0000
    67 H14K    12.3602   8.4867  10.0041   H         1 RES1   0.0000
    68 C8K     14.2193   7.7834   9.4977   C.3       1 RES1   0.0000
    69 H15K    14.7406   7.6494   8.6781   H         1 RES1   0.0000
    70 H16K    14.6946   8.4011  10.0913   H         1 RES1   0.0000
    71 H17K    14.0961   6.9238   9.9505   H         1 RES1   0.0000
    72 C9K     13.0229   9.7769   8.5578   C.3       1 RES1   0.0000
    73 H18K    12.1512  10.1215   8.2734   H         1 RES1   0.0000
    74 H19K    13.4018  10.3696   9.2416   H         1 RES1   0.0000
    75 H20K    13.6281   9.7395   7.7882   H         1 RES1   0.0000
@<TRIPOS>BOND
     1     1     2    1
     2     3     1    1
     3     4     1    1
     4     5     8    3
     5     6     1    1
     6     7     6    1
     7     8     1    1
     8     9     4    1
     9    10     9    1
    10    11     9    1
    11    12     6    1
    12    13    12    1
    13    14    12    1
    14    15     4    1
    15    16    15    1
    16    17    15    1
    17    18    17    1
    18    19    17    1
    19    20    17    1
    20    21    15    1
    21    22    21    1
    22    23    21    1
    23    24    21    1
    24    25     4    1
    25    26    25    1
    26    27    25    1
    27    28    27    1
    28    29    27    1
    29    30    27    1
    30    31    25    1
    31    32    31    1
    32    33    31    1
    33    34    31    1
    34    35     3    1
    35    36    35    1
    36    37    35    1
    37    38    37   ar
    38    39    38    1
    39    40    38   ar
    40    41    40    1
    41    42    40   ar
    42    43    42    1
    43    44    35    1
    44    45    37   ar
    45    46    45    1
    46    47    42   ar
    47    48    47    1
    48    49     1    1
    49    50    49    1
    50    51    50    1
    51    52    50    1
    52    53     6    1
    53    54    53    1
    54    55    53    1
    55    56    49    1
    56    57    56    1
    57    58    56    1
    58    59    58    1
    59    60    58    1
    60    61    58    1
    61    62    56    1
    62    63    62    1
    63    64    62    1
    64    65    62    1
    65    66    49    1
    66    67    66    1
    67    68    66    1
    68    69    68    1
    69    70    68    1
    70    71    68    1
    71    72    66    1
    72    73    72    1
    73    74    72    1
    74    75    72    1
    75     9    12    1
    76    45    47   ar
    77    50    53    1
@<TRIPOS>SUBSTRUCTURE
     1 RES1        1 GROUP             0 ****  ****    0  
@<TRIPOS>CRYSIN
   19.1810   12.4038   22.3606   90.0000   90.0000   90.0000    64     1
