@<TRIPOS>MOLECULE
OZOCEO
    76    79     1     0     0
SMALL
NO_CHARGES
****
Generated from the CSD

@<TRIPOS>ATOM
     1 Fe1      7.1791  10.5038   3.0071   Fe        1 RES1   0.0000
     2 H1       6.6028  10.8430   1.7529   H         1 RES1   0.0000
     3 P1       7.1540  12.6653   3.4800   P.3       1 RES1   0.0000
     4 P2       6.7049   8.4421   2.3841   P.3       1 RES1   0.0000
     5 O1       9.7511  10.5733   1.6877   O.2       1 RES1   0.0000
     6 O2       5.4409   9.8527   6.3488   O.2       1 RES1   0.0000
     7 N1       5.3967  10.4265   4.0291   N.am      1 RES1   0.0000
     8 N2       7.3464   9.9232   4.9734   N.am      1 RES1   0.0000
     9 C1       8.7221  10.5374   2.2276   C.1       1 RES1   0.0000
    10 C2       6.0819  10.0089   5.3073   C.2       1 RES1   0.0000
    11 C3       8.3069   9.4345   5.9624   C.3       1 RES1   0.0000
    12 H2       9.0351   8.9901   5.5008   H         1 RES1   0.0000
    13 H3       7.8697   8.7765   6.5260   H         1 RES1   0.0000
    14 C4       8.8749  10.5255   6.8363   C.ar      1 RES1   0.0000
    15 C5       8.0568  11.3371   7.6232   C.ar      1 RES1   0.0000
    16 H4       7.1380  11.1932   7.6316   H         1 RES1   0.0000
    17 C6       8.5982  12.3590   8.3948   C.ar      1 RES1   0.0000
    18 H5       8.0443  12.8789   8.9308   H         1 RES1   0.0000
    19 C7       9.9581  12.6033   8.3653   C.ar      1 RES1   0.0000
    20 H6      10.3179  13.3048   8.8587   H         1 RES1   0.0000
    21 C8      10.7812  11.7994   7.5976   C.ar      1 RES1   0.0000
    22 H7      11.6971  11.9582   7.5812   H         1 RES1   0.0000
    23 C9      10.2525  10.7670   6.8594   C.ar      1 RES1   0.0000
    24 H8      10.8206  10.2208   6.3661   H         1 RES1   0.0000
    25 C10      5.6826  12.7980   4.5742   C.3       1 RES1   0.0000
    26 H9       5.9508  12.6957   5.5003   H         1 RES1   0.0000
    27 H10      5.2733  13.6713   4.4705   H         1 RES1   0.0000
    28 C11      4.6806  11.7123   4.2044   C.3       1 RES1   0.0000
    29 H11      4.0154  11.6249   4.9052   H         1 RES1   0.0000
    30 H12      4.2253  11.9499   3.3813   H         1 RES1   0.0000
    31 C12      4.4214   9.3753   3.5992   C.3       1 RES1   0.0000
    32 H13      3.9593   9.6632   2.7968   H         1 RES1   0.0000
    33 H14      3.7615   9.2345   4.2966   H         1 RES1   0.0000
    34 C13      5.1715   8.0810   3.3292   C.3       1 RES1   0.0000
    35 H15      4.6085   7.4767   2.8210   H         1 RES1   0.0000
    36 H16      5.3977   7.6520   4.1687   H         1 RES1   0.0000
    37 C14      6.8557  13.8875   2.1124   C.3       1 RES1   0.0000
    38 H17      7.0252  14.7844   2.4704   H         1 RES1   0.0000
    39 C15      5.4092  13.8445   1.6275   C.3       1 RES1   0.0000
    40 H18      5.1898  12.9503   1.3557   H         1 RES1   0.0000
    41 H19      5.3033  14.4408   0.8834   H         1 RES1   0.0000
    42 H20      4.8248  14.1145   2.3401   H         1 RES1   0.0000
    43 C16      7.8278  13.6555   0.9468   C.3       1 RES1   0.0000
    44 H21      8.7311  13.7343   1.2633   H         1 RES1   0.0000
    45 H22      7.6700  14.3099   0.2632   H         1 RES1   0.0000
    46 H23      7.6910  12.7761   0.5867   H         1 RES1   0.0000
    47 C17      8.4695  13.4315   4.5371   C.3       1 RES1   0.0000
    48 H24      8.5074  12.8941   5.3553   H         1 RES1   0.0000
    49 C18      9.8549  13.3436   3.9089   C.3       1 RES1   0.0000
    50 H25     10.0472  12.4300   3.6853   H         1 RES1   0.0000
    51 H26     10.5096  13.6646   4.5336   H         1 RES1   0.0000
    52 H27      9.8805  13.8803   3.1140   H         1 RES1   0.0000
    53 C19      8.1795  14.8582   4.9811   C.3       1 RES1   0.0000
    54 H28      8.3331  15.4593   4.2483   H         1 RES1   0.0000
    55 H29      8.7573  15.0899   5.7115   H         1 RES1   0.0000
    56 H30      7.2641  14.9258   5.2633   H         1 RES1   0.0000
    57 C20      6.2855   8.1360   0.6065   C.3       1 RES1   0.0000
    58 H31      6.2651   7.1665   0.4656   H         1 RES1   0.0000
    59 C21      4.9076   8.6967   0.2252   C.3       1 RES1   0.0000
    60 H32      4.2258   8.2252   0.7093   H         1 RES1   0.0000
    61 H33      4.7664   8.5829  -0.7181   H         1 RES1   0.0000
    62 H34      4.8698   9.6297   0.4443   H         1 RES1   0.0000
    63 C22      7.3588   8.7214  -0.3173   C.3       1 RES1   0.0000
    64 H35      7.4279   9.6668  -0.1682   H         1 RES1   0.0000
    65 H36      7.1172   8.5577  -1.2317   H         1 RES1   0.0000
    66 H37      8.2033   8.3048  -0.1298   H         1 RES1   0.0000
    67 C23      7.7909   7.0355   2.9057   C.3       1 RES1   0.0000
    68 H38      7.7924   7.0445   3.8859   H         1 RES1   0.0000
    69 C24      9.2513   7.2059   2.4797   C.3       1 RES1   0.0000
    70 H39      9.3157   7.1371   1.5246   H         1 RES1   0.0000
    71 H40      9.7854   6.5207   2.8873   H         1 RES1   0.0000
    72 H41      9.5676   8.0680   2.7605   H         1 RES1   0.0000
    73 C25      7.2522   5.6541   2.4950   C.3       1 RES1   0.0000
    74 H42      6.3473   5.5596   2.8011   H         1 RES1   0.0000
    75 H43      7.7966   4.9684   2.8887   H         1 RES1   0.0000
    76 H44      7.2768   5.5727   1.5388   H         1 RES1   0.0000
@<TRIPOS>BOND
     1     1     2    1
     2     3     1    1
     3     4     1    1
     4     5     9    3
     5     6    10    2
     6     7     1    1
     7     8     1    1
     8     9     1    1
     9    10     7   am
    10    11     8    1
    11    12    11    1
    12    13    11    1
    13    14    11    1
    14    15    14   ar
    15    16    15    1
    16    17    15   ar
    17    18    17    1
    18    19    17   ar
    19    20    19    1
    20    21    19   ar
    21    22    21    1
    22    23    14   ar
    23    24    23    1
    24    25     3    1
    25    26    25    1
    26    27    25    1
    27    28     7    1
    28    29    28    1
    29    30    28    1
    30    31     7    1
    31    32    31    1
    32    33    31    1
    33    34     4    1
    34    35    34    1
    35    36    34    1
    36    37     3    1
    37    38    37    1
    38    39    37    1
    39    40    39    1
    40    41    39    1
    41    42    39    1
    42    43    37    1
    43    44    43    1
    44    45    43    1
    45    46    43    1
    46    47     3    1
    47    48    47    1
    48    49    47    1
    49    50    49    1
    50    51    49    1
    51    52    49    1
    52    53    47    1
    53    54    53    1
    54    55    53    1
    55    56    53    1
    56    57     4    1
    57    58    57    1
    58    59    57    1
    59    60    59    1
    60    61    59    1
    61    62    59    1
    62    63    57    1
    63    64    63    1
    64    65    63    1
    65    66    63    1
    66    67     4    1
    67    68    67    1
    68    69    67    1
    69    70    69    1
    70    71    69    1
    71    72    69    1
    72    73    67    1
    73    74    73    1
    74    75    73    1
    75    76    73    1
    76     8    10   am
    77    21    23   ar
    78    25    28    1
    79    31    34    1
@<TRIPOS>SUBSTRUCTURE
     1 RES1        1 GROUP             0 ****  ****    0  
@<TRIPOS>CRYSIN
    8.1307   13.0711   13.4922   74.1650   79.0610   83.9620     2     1
