@<TRIPOS>MOLECULE
OZODIS01
    82    87     3     0     0
SMALL
USER_CHARGES
****
Generated from the CSD

@<TRIPOS>ATOM
     1 Fe1      5.3531   9.6419   5.4666   Fe        1 RES1   2.0000
     2 N1       4.3022   8.2846   3.9571   N.ar      1 RES1   0.0000
     3 N2       7.3760   9.9601   4.4793   N.ar      1 RES1   0.0000
     4 N3       4.2894  11.6360   5.0884   N.ar      1 RES1   0.0000
     5 N4       6.0362  10.8948   7.0640   N.2       1 RES1   0.0000
     6 N5       3.5600   9.0024   6.4866   N.2       1 RES1   0.0000
     7 N6       6.5063   7.9166   6.0676   N.2       1 RES1   0.0000
     8 N7       5.4160   8.5958   8.6105   N.3       1 RES1   0.0000
     9 C1       2.9420  14.0555   5.3646   C.ar      1 RES1   0.0000
    10 H1       2.4826  14.8584   5.4564   H         1 RES1   0.0000
    11 C2       2.6711  13.2280   4.3287   C.ar      1 RES1   0.0000
    12 H2       2.0285  13.4681   3.7005   H         1 RES1   0.0000
    13 C3       3.3533  12.0133   4.1946   C.ar      1 RES1   0.0000
    14 C4       4.5592  12.4879   6.1081   C.ar      1 RES1   0.0000
    15 C5       3.9049  13.6961   6.2805   C.ar      1 RES1   0.0000
    16 H3       4.1105  14.2518   6.9969   H         1 RES1   0.0000
    17 C6       8.2210   8.9484   4.7920   C.ar      1 RES1   0.0000
    18 C7       9.5094   8.8677   4.3182   C.ar      1 RES1   0.0000
    19 H4      10.0620   8.1612   4.5599   H         1 RES1   0.0000
    20 C8       9.9657   9.8635   3.4711   C.ar      1 RES1   0.0000
    21 H5      10.8203   9.8180   3.1058   H         1 RES1   0.0000
    22 C9       9.1453  10.9102   3.1799   C.ar      1 RES1   0.0000
    23 H6       9.4505  11.6010   2.6364   H         1 RES1   0.0000
    24 C10      7.8547  10.9505   3.6875   C.ar      1 RES1   0.0000
    25 C11      4.6460   7.8998   2.7215   C.ar      1 RES1   0.0000
    26 C12      3.8856   6.9392   2.0276   C.ar      1 RES1   0.0000
    27 H7       4.1298   6.6867   1.1664   H         1 RES1   0.0000
    28 C13      2.7814   6.3764   2.6241   C.ar      1 RES1   0.0000
    29 H8       2.2877   5.7242   2.1794   H         1 RES1   0.0000
    30 C14      2.4194   6.7814   3.8682   C.ar      1 RES1   0.0000
    31 H9       1.6697   6.4167   4.2811   H         1 RES1   0.0000
    32 C15      3.1830   7.7457   4.5211   C.ar      1 RES1   0.0000
    33 C16      2.8114   8.2173   5.8464   C.2       1 RES1   0.0000
    34 H10      2.0113   7.9350   6.2258   H         1 RES1   0.0000
    35 C17      7.7016   7.8982   5.6672   C.2       1 RES1   0.0000
    36 H11      8.2617   7.2057   5.9328   H         1 RES1   0.0000
    37 C18      6.0811   6.8600   6.9969   C.3       1 RES1   0.0000
    38 H12      6.6498   6.0819   6.8893   H         1 RES1   0.0000
    39 H13      5.1686   6.5973   6.7993   H         1 RES1   0.0000
    40 C19      3.9916   8.4943   8.8322   C.3       1 RES1   0.0000
    41 H14      3.7903   8.7713   9.7410   H         1 RES1   0.0000
    42 H15      3.7196   7.5686   8.7369   H         1 RES1   0.0000
    43 C20      3.1862   9.3551   7.8563   C.3       1 RES1   0.0000
    44 H16      2.2373   9.2026   7.9887   H         1 RES1   0.0000
    45 H17      3.3694  10.2931   8.0169   H         1 RES1   0.0000
    46 C21      6.1165   9.7286   9.1872   C.3       1 RES1   0.0000
    47 H18      6.7087   9.4112   9.8875   H         1 RES1   0.0000
    48 H19      5.4707  10.3264   9.5945   H         1 RES1   0.0000
    49 C22      6.9337  10.5035   8.1560   C.3       1 RES1   0.0000
    50 H20      7.3235  11.2907   8.5640   H         1 RES1   0.0000
    51 H21      7.6512   9.9477   7.8140   H         1 RES1   0.0000
    52 C23      6.1743   7.3757   8.4351   C.3       1 RES1   0.0000
    53 H22      5.8359   6.6973   9.0422   H         1 RES1   0.0000
    54 H23      7.1039   7.5388   8.6592   H         1 RES1   0.0000
    55 C24      5.5649  12.0766   7.0762   C.2       1 RES1   0.0000
    56 H24      5.8669  12.6845   7.7116   H         1 RES1   0.0000
    57 C25      6.9711  12.1129   3.3776   C.3       1 RES1   0.0000
    58 H25      6.1304  11.7956   3.0405   H         1 RES1   0.0000
    59 H26      7.3910  12.6669   2.7158   H         1 RES1   0.0000
    60 H27      6.8233  12.6249   4.1770   H         1 RES1   0.0000
    61 C26      5.8241   8.5066   2.0588   C.3       1 RES1   0.0000
    62 H28      6.6273   8.1542   2.4494   H         1 RES1   0.0000
    63 H29      5.8016   9.4586   2.1758   H         1 RES1   0.0000
    64 H30      5.8059   8.2979   1.1223   H         1 RES1   0.0000
    65 C27      3.0598  11.1188   3.0299   C.3       1 RES1   0.0000
    66 H31      3.8834  10.8471   2.6188   H         1 RES1   0.0000
    67 H32      2.5222  11.5905   2.3911   H         1 RES1   0.0000
    68 H33      2.5854  10.3422   3.3352   H         1 RES1   0.0000
    69 P1       5.2008  14.2510  10.6336   P.3       2 RES2  -1.0000
    70 F1       5.3711  12.9036  11.4333   F         2 RES2   0.0000
    71 F2       6.5342  13.9222   9.8077   F         2 RES2   0.0000
    72 F3       6.0704  15.0004  11.6786   F         2 RES2   0.0000
    73 F4       4.3408  13.4243   9.5668   F         2 RES2   0.0000
    74 F5       3.8481  14.5236  11.3825   F         2 RES2   0.0000
    75 F6       5.0069  15.5334   9.7728   F         2 RES2   0.0000
    76 P2       5.4171   3.0395   9.7438   P.3       3 RES3  -1.0000
    77 F7       5.2682   2.4422  11.2039   F         3 RES3   0.0000
    78 F8       4.0066   2.5895   9.3845   F         3 RES3   0.0000
    79 F9       6.8555   3.4819  10.1786   F         3 RES3   0.0000
    80 F10      5.5381   3.6747   8.3363   F         3 RES3   0.0000
    81 F11      6.1261   1.7637   9.2539   F         3 RES3   0.0000
    82 F12      4.8420   4.3813  10.2651   F         3 RES3   0.0000
@<TRIPOS>BOND
     1     1     2    1
     2     2    25   ar
     3     3     1    1
     4     4     1    1
     5     5     1    1
     6     6     1    1
     7     7     1    1
     8     8    40    1
     9     9    10    1
    10    11     9   ar
    11    12    11    1
    12    13     4   ar
    13    14     4   ar
    14    15     9   ar
    15    16    15    1
    16    17     3   ar
    17    18    17   ar
    18    19    18    1
    19    20    18   ar
    20    21    20    1
    21    22    20   ar
    22    23    22    1
    23    24     3   ar
    24    25    26   ar
    25    26    27    1
    26    28    26   ar
    27    29    28    1
    28    30    28   ar
    29    31    30    1
    30    32     2   ar
    31    33     6    2
    32    34    33    1
    33    35     7    2
    34    36    35    1
    35    37     7    1
    36    38    37    1
    37    39    37    1
    38    40    41    1
    39    42    40    1
    40    43     6    1
    41    44    43    1
    42    45    43    1
    43    46     8    1
    44    47    46    1
    45    48    46    1
    46    49     5    1
    47    50    49    1
    48    51    49    1
    49    52     8    1
    50    53    52    1
    51    54    52    1
    52    55     5    2
    53    56    55    1
    54    57    24    1
    55    58    57    1
    56    59    57    1
    57    60    57    1
    58    61    25    1
    59    62    61    1
    60    63    61    1
    61    64    61    1
    62    65    13    1
    63    66    65    1
    64    67    65    1
    65    68    65    1
    66    11    13   ar
    67    14    15   ar
    68    14    55    1
    69    17    35    1
    70    22    24   ar
    71    30    32   ar
    72    32    33    1
    73    37    52    1
    74    40    43    1
    75    46    49    1
    76    69    70    1
    77    71    69    1
    78    72    69    1
    79    73    69    1
    80    74    69    1
    81    75    69    1
    82    76    77    1
    83    78    76    1
    84    79    76    1
    85    80    76    1
    86    81    76    1
    87    82    76    1
@<TRIPOS>SUBSTRUCTURE
     1 RES1        1 GROUP             0 ****  ****    0  
     2 RES2       69 GROUP             0 ****  ****    0  
     3 RES3       76 GROUP             0 ****  ****    0  
@<TRIPOS>CRYSIN
   10.7100   17.5321   17.6467   90.0000   90.0000   90.0000    19     1
