@<TRIPOS>MOLECULE
OZODIS
    82    87     3     0     0
SMALL
USER_CHARGES
****
Generated from the CSD

@<TRIPOS>ATOM
     1 Fe1      5.2916   9.2847   5.3674   Fe        1 RES1   2.0000
     2 N1       6.3153  11.0504   4.9637   N.ar      1 RES1   0.0000
     3 N2       4.5743  10.3710   6.8158   N.2       1 RES1   0.0000
     4 N3       6.1755   8.0487   3.9686   N.ar      1 RES1   0.0000
     5 N4       6.8998   8.8059   6.3717   N.2       1 RES1   0.0000
     6 N5       4.3041   7.7037   5.9414   N.2       1 RES1   0.0000
     7 N6       3.4935   9.6709   4.4020   N.ar      1 RES1   0.0000
     8 N7       5.1998   8.1862   8.7525   N.3       1 RES1   0.0000
     9 C1       7.5811  10.4893   2.9045   C.3       1 RES1   0.0000
    10 H1       8.0615   9.7020   3.2347   H         1 RES1   0.0000
    11 H2       8.1383  10.9642   2.2525   H         1 RES1   0.0000
    12 H3       6.7463  10.2052   2.4752   H         1 RES1   0.0000
    13 C2       7.2699  11.3964   4.0447   C.ar      1 RES1   0.0000
    14 C3       7.9575  12.6057   4.1469   C.ar      1 RES1   0.0000
    15 H4       8.6051  12.8306   3.4902   H         1 RES1   0.0000
    16 C4       7.7146  13.4802   5.1843   C.ar      1 RES1   0.0000
    17 H5       8.2119  14.2863   5.2663   H         1 RES1   0.0000
    18 C5       6.7337  13.1603   6.1048   C.ar      1 RES1   0.0000
    19 H6       6.5287  13.7461   6.8250   H         1 RES1   0.0000
    20 C6       6.0546  11.9593   5.9483   C.ar      1 RES1   0.0000
    21 C7       5.0306  11.5743   6.8869   C.2       1 RES1   0.0000
    22 H7       4.7036  12.1860   7.5361   H         1 RES1   0.0000
    23 C8       3.6281   9.9721   7.8774   C.3       1 RES1   0.0000
    24 H8       2.9742   9.3251   7.5119   H         1 RES1   0.0000
    25 H9       3.1298  10.7673   8.1920   H         1 RES1   0.0000
    26 C9       4.3746   9.3350   9.0564   C.3       1 RES1   0.0000
    27 H10      4.9507  10.0285   9.4676   H         1 RES1   0.0000
    28 H11      3.7070   9.0642   9.7351   H         1 RES1   0.0000
    29 C10      6.6307   8.3007   8.7891   C.3       1 RES1   0.0000
    30 H12      7.0165   7.3964   8.6736   H         1 RES1   0.0000
    31 H13      6.8925   8.6216   9.6885   H         1 RES1   0.0000
    32 C11      7.2688   9.2375   7.7355   C.3       1 RES1   0.0000
    33 H14      6.9587  10.1648   7.8848   H         1 RES1   0.0000
    34 H15      8.2539   9.2241   7.8330   H         1 RES1   0.0000
    35 C12      7.7114   7.9927   5.7819   C.2       1 RES1   0.0000
    36 H16      8.5336   7.7397   6.1846   H         1 RES1   0.0000
    37 C13      7.3204   7.4826   4.4863   C.ar      1 RES1   0.0000
    38 C14      8.0731   6.5190   3.8442   C.ar      1 RES1   0.0000
    39 H17      8.8521   6.1612   4.2548   H         1 RES1   0.0000
    40 C15      7.6694   6.0797   2.5846   C.ar      1 RES1   0.0000
    41 H18      8.1498   5.4039   2.1214   H         1 RES1   0.0000
    42 C16      6.5445   6.6645   2.0370   C.ar      1 RES1   0.0000
    43 H19      6.2627   6.3985   1.1703   H         1 RES1   0.0000
    44 C17      5.8065   7.6386   2.7220   C.ar      1 RES1   0.0000
    45 C18      4.6185   8.2256   2.0477   C.3       1 RES1   0.0000
    46 H20      3.8037   7.9215   2.4994   H         1 RES1   0.0000
    47 H21      4.5995   7.9383   1.1116   H         1 RES1   0.0000
    48 H22      4.6700   9.2039   2.0886   H         1 RES1   0.0000
    49 C19      4.5880   6.9595   8.3147   C.3       1 RES1   0.0000
    50 H23      3.6165   7.0094   8.5010   H         1 RES1   0.0000
    51 H24      4.9559   6.2167   8.8548   H         1 RES1   0.0000
    52 C20      4.7804   6.6193   6.8234   C.3       1 RES1   0.0000
    53 H25      5.7402   6.4557   6.6489   H         1 RES1   0.0000
    54 H26      4.2862   5.7876   6.6127   H         1 RES1   0.0000
    55 C21      3.0772   7.6364   5.5464   C.2       1 RES1   0.0000
    56 H27      2.5179   6.9134   5.8066   H         1 RES1   0.0000
    57 C22      2.5831   8.6914   4.6979   C.ar      1 RES1   0.0000
    58 C23      1.2868   8.6534   4.1975   C.ar      1 RES1   0.0000
    59 H28      0.6886   7.9568   4.4430   H         1 RES1   0.0000
    60 C24      0.8926   9.6581   3.3326   C.ar      1 RES1   0.0000
    61 H29      0.0273   9.6499   2.9395   H         1 RES1   0.0000
    62 C25      1.7820  10.6692   3.0559   C.ar      1 RES1   0.0000
    63 H30      1.5160  11.3782   2.4821   H         1 RES1   0.0000
    64 C26      3.0614  10.6769   3.5979   C.ar      1 RES1   0.0000
    65 C27      3.9708  11.8232   3.2609   C.3       1 RES1   0.0000
    66 H31      4.1485  12.3476   4.0701   H         1 RES1   0.0000
    67 H32      3.5419  12.3930   2.5891   H         1 RES1   0.0000
    68 H33      4.8151  11.4758   2.9033   H         1 RES1   0.0000
    69 P1       5.1005   2.7726   9.5518   P.3       2 RES2  -1.0000
    70 F1       6.5625   2.3398   9.0599   F         2 RES2   0.0000
    71 F2       5.3847   2.0725  10.9907   F         2 RES2   0.0000
    72 F3       4.4924   1.3871   9.0029   F         2 RES2   0.0000
    73 F4       3.6349   3.1885  10.0729   F         2 RES2   0.0000
    74 F5       4.8014   3.4762   8.1452   F         2 RES2   0.0000
    75 F6       5.6908   4.1578  10.1289   F         2 RES2   0.0000
    76 P2       5.4272  13.6246  10.3909   P.3       3 RES3  -1.0000
    77 F7       5.2467  12.2697  11.2320   F         3 RES3   0.0000
    78 F8       4.0932  13.2808   9.5498   F         3 RES3   0.0000
    79 F9       5.6170  14.9637   9.5178   F         3 RES3   0.0000
    80 F10      6.7718  13.9484  11.1954   F         3 RES3   0.0000
    81 F11      6.3049  12.8084   9.2891   F         3 RES3   0.0000
    82 F12      4.5576  14.4352  11.4592   F         3 RES3   0.0000
@<TRIPOS>BOND
     1     1     2    1
     2     2    13   ar
     3     3     1    1
     4     4     1    1
     5     5     1    1
     6     6     1    1
     7     7     1    1
     8     8    26    1
     9     9    10    1
    10    11     9    1
    11    12     9    1
    12    13     9    1
    13    14    13   ar
    14    15    14    1
    15    16    14   ar
    16    17    16    1
    17    18    16   ar
    18    19    18    1
    19    20     2   ar
    20    21     3    2
    21    22    21    1
    22    23     3    1
    23    24    23    1
    24    25    23    1
    25    26    23    1
    26    27    26    1
    27    28    26    1
    28    29     8    1
    29    30    29    1
    30    31    29    1
    31    32     5    1
    32    33    32    1
    33    34    32    1
    34    35     5    2
    35    36    35    1
    36    37     4   ar
    37    38    37   ar
    38    39    38    1
    39    40    38   ar
    40    41    40    1
    41    42    40   ar
    42    43    42    1
    43    44     4   ar
    44    45    44    1
    45    46    45    1
    46    47    45    1
    47    48    45    1
    48    49     8    1
    49    50    49    1
    50    51    49    1
    51    52     6    1
    52    53    52    1
    53    54    52    1
    54    55     6    2
    55    56    55    1
    56    57     7   ar
    57    58    57   ar
    58    59    58    1
    59    60    58   ar
    60    61    60    1
    61    62    60   ar
    62    63    62    1
    63    64     7   ar
    64    65    64    1
    65    66    65    1
    66    67    65    1
    67    68    65    1
    68    18    20   ar
    69    20    21    1
    70    29    32    1
    71    35    37    1
    72    42    44   ar
    73    49    52    1
    74    55    57    1
    75    62    64   ar
    76    69    70    1
    77    71    69    1
    78    72    69    1
    79    73    69    1
    80    74    69    1
    81    75    69    1
    82    76    77    1
    83    78    76    1
    84    79    76    1
    85    80    76    1
    86    81    76    1
    87    82    76    1
@<TRIPOS>SUBSTRUCTURE
     1 RES1        1 GROUP             0 ****  ****    0  
     2 RES2       69 GROUP             0 ****  ****    0  
     3 RES3       76 GROUP             0 ****  ****    0  
@<TRIPOS>CRYSIN
   10.5132   16.8292   17.2609   90.0000   90.0000   90.0000    19     1
