@<TRIPOS>MOLECULE
OZUBIW
    86    90     6     0     0
SMALL
USER_CHARGES
****
Generated from the CSD

@<TRIPOS>ATOM
     1 Fe1      6.1764  10.0584   9.3428   Fe        1 RES1   2.0000
     2 N1       5.8097  10.3160   7.2703   N.ar      1 RES1   0.0000
     3 C1       4.6473  10.7960   6.8271   C.ar      1 RES1   0.0000
     4 C2       4.3707  11.0462   5.5042   C.ar      1 RES1   0.0000
     5 H1       3.5380  11.4124   5.2307   H         1 RES1   0.0000
     6 C3       5.3739  10.7344   4.5813   C.ar      1 RES1   0.0000
     7 C4       6.5968  10.2032   5.0134   C.ar      1 RES1   0.0000
     8 H2       7.2865   9.9752   4.4002   H         1 RES1   0.0000
     9 C5       6.7477  10.0306   6.3664   C.ar      1 RES1   0.0000
    10 N2       3.7256  11.0383   7.8740   N.pl3     1 RES1   0.0000
    11 N3       4.1462  10.8696   9.1638   N.2       1 RES1   0.0000
    12 C6       3.0664  11.0914   9.9046   C.2       1 RES1   0.0000
    13 H3       3.0532  11.0602  10.8532   H         1 RES1   0.0000
    14 C7       1.9514  11.3783   9.1089   C.2       1 RES1   0.0000
    15 H4       1.0680  11.5657   9.4021   H         1 RES1   0.0000
    16 C8       2.4050  11.3311   7.8196   C.2       1 RES1   0.0000
    17 H5       1.8905  11.4749   7.0342   H         1 RES1   0.0000
    18 N4       7.9265   9.5261   6.9533   N.pl3     1 RES1   0.0000
    19 N5       7.9171   9.2489   8.2973   N.2       1 RES1   0.0000
    20 C9       9.1285   8.7822   8.5560   C.2       1 RES1   0.0000
    21 H6       9.4175   8.4954   9.4152   H         1 RES1   0.0000
    22 C10      9.9321   8.7621   7.4083   C.2       1 RES1   0.0000
    23 H7      10.8370   8.4783   7.3436   H         1 RES1   0.0000
    24 C11      9.1388   9.2364   6.4049   C.2       1 RES1   0.0000
    25 H8       9.3864   9.3446   5.4932   H         1 RES1   0.0000
    26 O1       5.1166  10.9488   3.2850   O.3       1 RES1   0.0000
    27 H9       5.8173  10.8301   2.8366   H         1 RES1   0.0000
    28 N6       6.3999  10.2708  11.4440   N.ar      1 RES1   0.0000
    29 C12      5.9828   9.3100  12.2738   C.ar      1 RES1   0.0000
    30 C13      6.0081   9.4088  13.6409   C.ar      1 RES1   0.0000
    31 H10      5.6939   8.7056  14.1960   H         1 RES1   0.0000
    32 C14      6.5184  10.5949  14.1844   C.ar      1 RES1   0.0000
    33 C15      7.0049  11.6055  13.3458   C.ar      1 RES1   0.0000
    34 H11      7.3912  12.4008  13.6935   H         1 RES1   0.0000
    35 C16      6.8941  11.3877  11.9899   C.ar      1 RES1   0.0000
    36 N7       5.5023   8.1787  11.5844   N.pl3     1 RES1   0.0000
    37 N8       5.5341   8.1863  10.2154   N.2       1 RES1   0.0000
    38 C17      5.0690   6.9994   9.8543   C.2       1 RES1   0.0000
    39 H12      4.9698   6.7117   8.9540   H         1 RES1   0.0000
    40 C18      4.7427   6.2208  10.9738   C.2       1 RES1   0.0000
    41 H13      4.3904   5.3398  10.9770   H         1 RES1   0.0000
    42 C19      5.0381   6.9980  12.0580   C.2       1 RES1   0.0000
    43 H14      4.9374   6.7571  12.9717   H         1 RES1   0.0000
    44 N9       7.2923  12.3255  11.0131   N.pl3     1 RES1   0.0000
    45 N10      7.1089  12.0020   9.6997   N.2       1 RES1   0.0000
    46 C20      7.5899  13.0336   9.0187   C.2       1 RES1   0.0000
    47 H15      7.5894  13.0967   8.0710   H         1 RES1   0.0000
    48 C21      8.0981  14.0164   9.8776   C.2       1 RES1   0.0000
    49 H16      8.5041  14.8406   9.6327   H         1 RES1   0.0000
    50 C22      7.8867  13.5426  11.1431   C.2       1 RES1   0.0000
    51 H17      8.1115  13.9800  11.9556   H         1 RES1   0.0000
    52 O2       6.5079  10.7003  15.5125   O.3       1 RES1   0.0000
    53 H18      6.8778  11.4209  15.7389   H         1 RES1   0.0000
    54 P1      10.5116  14.0094  14.4384   P.3       2 RES2  -1.0000
    55 F1      10.1160  12.7036  15.3203   F         2 RES2   0.0000
    56 F2      10.4402  14.9051  15.7584   F         2 RES2   0.0000
    57 F3      10.8773  15.2951  13.5625   F         2 RES2   0.0000
    58 F4      10.5526  13.0896  13.1386   F         2 RES2   0.0000
    59 F5      12.0521  13.7190  14.7157   F         2 RES2   0.0000
    60 F6       8.9476  14.2862  14.1868   F         2 RES2   0.0000
    61 P2       3.1155   7.1008  15.6662   P.3       3 RES3  -1.0000
    62 F7       4.7201   7.0031  15.6598   F         3 RES3   0.0000
    63 F8       3.0573   5.9743  16.7960   F         3 RES3   0.0000
    64 F9       3.0511   5.9743  14.5273   F         3 RES3   0.0000
    65 F7A      1.5109   7.1985  15.6598   F         3 RES3   0.0000
    66 F8A      3.1737   8.2272  16.7960   F         3 RES3   0.0000
    67 F9A      3.1799   8.2272  14.5273   F         3 RES3   0.0000
    68 P3       9.3465   7.1008   3.0199   P.3       4 RES4  -1.0000
    69 F10      8.2243   7.2780   1.8724   F         4 RES4   0.0000
    70 F11      9.1213   5.5119   3.0064   F         4 RES4   0.0000
    71 F12      8.2197   7.2567   4.1349   F         4 RES4   0.0000
    72 F10A    10.4687   6.9235   1.8724   F         4 RES4   0.0000
    73 F11A     9.5717   8.6896   3.0064   F         4 RES4   0.0000
    74 F12A    10.4733   6.9448   4.1349   F         4 RES4   0.0000
    75 C23      7.0061  14.0260  16.8666   C.3       5 RES5   0.0000
    76 H19      7.4298  14.4714  17.6306   H         5 RES5   0.0000
    77 H20      6.0553  13.8863  17.0569   H         5 RES5   0.0000
    78 H21      7.1008  14.5850  16.0670   H         5 RES5   0.0000
    79 O3       7.6356  12.7669  16.6422   O.3       5 RES5   0.0000
    80 H22      8.4193  12.8922  16.3651   H         5 RES5   0.0000
    81 C24      8.0704  11.1616   1.2167   C.3       6 RES6   0.0000
    82 H23      7.8050  12.0713   1.4680   H         6 RES6   0.0000
    83 H24      8.1676  11.1085   0.2437   H         6 RES6   0.0000
    84 H25      8.9240  10.9409   1.6442   H         6 RES6   0.0000
    85 O4       7.0874  10.2552   1.6393   O.3       6 RES6   0.0000
    86 H26      7.3688   9.4696   1.5392   H         6 RES6   0.0000
@<TRIPOS>BOND
     1     1     2    1
     2     2     3   ar
     3     3     4   ar
     4     4     5    1
     5     6     4   ar
     6     7     6   ar
     7     8     7    1
     8     9     2   ar
     9    10     3    1
    10    11     1    1
    11    12    11    2
    12    13    12    1
    13    14    12    1
    14    15    14    1
    15    16    10    1
    16    17    16    1
    17    18     9    1
    18    19     1    1
    19    20    19    2
    20    21    20    1
    21    22    20    1
    22    23    22    1
    23    24    18    1
    24    25    24    1
    25    26     6    1
    26    27    26    1
    27    28     1    1
    28    29    28   ar
    29    30    29   ar
    30    31    30    1
    31    32    30   ar
    32    33    32   ar
    33    34    33    1
    34    35    28   ar
    35    36    29    1
    36    37     1    1
    37    38    37    2
    38    39    38    1
    39    40    38    1
    40    41    40    1
    41    42    36    1
    42    43    42    1
    43    44    35    1
    44    45     1    1
    45    46    45    2
    46    47    46    1
    47    48    46    1
    48    49    48    1
    49    50    44    1
    50    51    50    1
    51    52    32    1
    52    53    52    1
    53     7     9   ar
    54    10    11    1
    55    14    16    2
    56    18    19    1
    57    22    24    2
    58    33    35   ar
    59    36    37    1
    60    40    42    2
    61    44    45    1
    62    48    50    2
    63    54    55    1
    64    56    54    1
    65    57    54    1
    66    58    54    1
    67    59    54    1
    68    60    54    1
    69    61    62    1
    70    63    61    1
    71    64    61    1
    72    65    61    1
    73    66    61    1
    74    67    61    1
    75    68    69    1
    76    70    68    1
    77    71    68    1
    78    72    68    1
    79    73    68    1
    80    74    68    1
    81    75    76    1
    82    77    75    1
    83    78    75    1
    84    79    75    1
    85    80    79    1
    86    81    82    1
    87    83    81    1
    88    84    81    1
    89    85    81    1
    90    86    85    1
@<TRIPOS>SUBSTRUCTURE
     1 RES1        1 GROUP             0 ****  ****    0  
     2 RES2       54 GROUP             0 ****  ****    0  
     3 RES3       61 GROUP             0 ****  ****    0  
     4 RES4       68 GROUP             0 ****  ****    0  
     5 RES5       75 GROUP             0 ****  ****    0  
     6 RES6       81 GROUP             0 ****  ****    0  
@<TRIPOS>CRYSIN
   12.4620   28.4031   18.7480   90.0000   90.0000   90.0000    56     1
