@<TRIPOS>MOLECULE
OZUSOU
    84    89     3     0     0
SMALL
USER_CHARGES
****
Generated from the CSD

@<TRIPOS>ATOM
     1 Fe1      7.3723   2.3939   5.9908   Fe        1 RES1   1.0000
     2 O1       6.2719   4.2462   5.3833   O.co2     1 RES1   0.0000
     3 N1       7.7318   1.5499   3.7942   N.3       1 RES1   0.0000
     4 N2       8.5125   0.6296   6.3810   N.ar      1 RES1   0.0000
     5 O2       5.3226   2.5141   6.3158   O.co2     1 RES1   0.0000
     6 N3       8.2762   2.8197   8.1669   N.3       1 RES1   0.0000
     7 N4       9.3242   3.0661   5.5669   N.ar      1 RES1   0.0000
     8 C1       8.2106   0.1559   4.0357   C.3       1 RES1   0.0000
     9 H1       8.7586  -0.1362   3.2647   H         1 RES1   0.0000
    10 H2       7.4290  -0.4485   4.0985   H         1 RES1   0.0000
    11 C2       9.0283   0.0361   5.2948   C.ar      1 RES1   0.0000
    12 C3      10.2526  -0.6111   5.3278   C.ar      1 RES1   0.0000
    13 H3      10.6000  -1.0335   4.5510   H         1 RES1   0.0000
    14 C4      10.9608  -0.6285   6.5225   C.ar      1 RES1   0.0000
    15 H4      11.8016  -1.0680   6.5719   H         1 RES1   0.0000
    16 C5      10.4406  -0.0067   7.6350   C.ar      1 RES1   0.0000
    17 H5      10.9102  -0.0205   8.4610   H         1 RES1   0.0000
    18 C6       9.2199   0.6387   7.5294   C.ar      1 RES1   0.0000
    19 C7       8.6199   1.4465   8.6391   C.3       1 RES1   0.0000
    20 H6       7.8027   0.9968   8.9706   H         1 RES1   0.0000
    21 H7       9.2633   1.5065   9.3892   H         1 RES1   0.0000
    22 C8       9.5433   3.5718   7.9491   C.3       1 RES1   0.0000
    23 H8      10.2090   3.2667   8.6152   H         1 RES1   0.0000
    24 H9       9.3720   4.5324   8.1171   H         1 RES1   0.0000
    25 C9      10.1415   3.4247   6.5697   C.ar      1 RES1   0.0000
    26 C10     11.4861   3.6803   6.3505   C.ar      1 RES1   0.0000
    27 H10     12.0544   3.9369   7.0669   H         1 RES1   0.0000
    28 C11     11.9838   3.5538   5.0649   C.ar      1 RES1   0.0000
    29 H11     12.8912   3.7663   4.8819   H         1 RES1   0.0000
    30 C12     11.1503   3.1147   4.0458   C.ar      1 RES1   0.0000
    31 H12     11.4847   2.9949   3.1646   H         1 RES1   0.0000
    32 C13      9.8286   2.8561   4.3368   C.ar      1 RES1   0.0000
    33 C14      8.8692   2.3628   3.2748   C.3       1 RES1   0.0000
    34 H13      8.5034   3.1454   2.7915   H         1 RES1   0.0000
    35 H14      9.3747   1.8174   2.6213   H         1 RES1   0.0000
    36 C15      6.5872   1.5151   2.7608   C.3       1 RES1   0.0000
    37 C16      5.3483   0.8949   3.4125   C.3       1 RES1   0.0000
    38 H15      5.0662   1.4484   4.1703   H         1 RES1   0.0000
    39 H16      5.5629  -0.0075   3.7290   H         1 RES1   0.0000
    40 H17      4.6231   0.8466   2.7551   H         1 RES1   0.0000
    41 C17      6.9639   0.6842   1.5283   C.3       1 RES1   0.0000
    42 H18      7.0287  -0.2611   1.7790   H         1 RES1   0.0000
    43 H19      7.8275   0.9896   1.1799   H         1 RES1   0.0000
    44 H20      6.2765   0.7928   0.8384   H         1 RES1   0.0000
    45 C18      6.2243   2.9329   2.3100   C.3       1 RES1   0.0000
    46 H21      5.3614   2.9173   1.8457   H         1 RES1   0.0000
    47 H22      6.9159   3.2697   1.7028   H         1 RES1   0.0000
    48 H23      6.1634   3.5191   3.0930   H         1 RES1   0.0000
    49 C19      7.3942   3.5407   9.1919   C.3       1 RES1   0.0000
    50 C20      6.9516   4.8765   8.6074   C.3       1 RES1   0.0000
    51 H24      6.5044   4.7250   7.7484   H         1 RES1   0.0000
    52 H25      7.7354   5.4489   8.4708   H         1 RES1   0.0000
    53 H26      6.3309   5.3144   9.2261   H         1 RES1   0.0000
    54 C21      8.1413   3.7810  10.5130   C.3       1 RES1   0.0000
    55 H27      7.5420   4.2212  11.1519   H         1 RES1   0.0000
    56 H28      8.9200   4.3526  10.3489   H         1 RES1   0.0000
    57 H29      8.4377   2.9228  10.8818   H         1 RES1   0.0000
    58 C22      6.1514   2.7013   9.4747   C.3       1 RES1   0.0000
    59 H30      5.5032   3.2370   9.9783   H         1 RES1   0.0000
    60 H31      6.4022   1.9132  10.0003   H         1 RES1   0.0000
    61 H32      5.7506   2.4152   8.6275   H         1 RES1   0.0000
    62 C23      5.2424   3.6670   5.7976   C.2       1 RES1   0.0000
    63 C24      3.9053   4.3240   5.6657   C.ar      1 RES1   0.0000
    64 C25      2.7892   3.7804   6.2984   C.ar      1 RES1   0.0000
    65 H33      2.8768   3.0040   6.8386   H         1 RES1   0.0000
    66 C26      1.5454   4.3821   6.1342   C.ar      1 RES1   0.0000
    67 H34      0.7828   4.0198   6.5695   H         1 RES1   0.0000
    68 C27      1.4169   5.4984   5.3441   C.ar      1 RES1   0.0000
    69 H35      0.5620   5.8957   5.2262   H         1 RES1   0.0000
    70 C28      2.5239   6.0511   4.7168   C.ar      1 RES1   0.0000
    71 H36      2.4293   6.8256   4.1748   H         1 RES1   0.0000
    72 C29      3.7737   5.4633   4.8877   C.ar      1 RES1   0.0000
    73 H37      4.5378   5.8435   4.4700   H         1 RES1   0.0000
    74 Cl1     11.0367  -1.0961   1.1204   Cl        2 RES2   0.0000
    75 O3      10.5798  -1.9191   2.1744   O.2       2 RES2   0.0000
    76 O4      12.2706  -1.6013   0.6232   O.2       2 RES2   0.0000
    77 O5      11.2167   0.2397   1.6203   O.3       2 RES2  -1.0000
    78 O6      10.0948  -1.0987   0.0523   O.2       2 RES2   0.0000
    79 N5      14.0182  -4.0588  -2.3362   N.1       3 RES3   0.0000
    80 C30     12.9855  -3.5836  -2.4269   C.1       3 RES3   0.0000
    81 C31     11.6579  -2.9941  -2.5618   C.3       3 RES3   0.0000
    82 H38     11.6351  -2.4196  -3.3558   H         3 RES3   0.0000
    83 H39     11.4553  -2.4597  -1.7661   H         3 RES3   0.0000
    84 H40     10.9920  -3.7069  -2.6555   H         3 RES3   0.0000
@<TRIPOS>BOND
     1     1     2    1
     2     2    62   un
     3     3     1    1
     4     4     1    1
     5     5     1    1
     6     6     1    1
     7     7     1    1
     8     8     3    1
     9     9     8    1
    10    10     8    1
    11    11     4   ar
    12    12    11   ar
    13    13    12    1
    14    14    12   ar
    15    15    14    1
    16    16    14   ar
    17    17    16    1
    18    18     4   ar
    19    19     6    1
    20    20    19    1
    21    21    19    1
    22    22     6    1
    23    23    22    1
    24    24    22    1
    25    25     7   ar
    26    26    25   ar
    27    27    26    1
    28    28    26   ar
    29    29    28    1
    30    30    28   ar
    31    31    30    1
    32    32     7   ar
    33    33     3    1
    34    34    33    1
    35    35    33    1
    36    36     3    1
    37    37    36    1
    38    38    37    1
    39    39    37    1
    40    40    37    1
    41    41    36    1
    42    42    41    1
    43    43    41    1
    44    44    41    1
    45    45    36    1
    46    46    45    1
    47    47    45    1
    48    48    45    1
    49    49     6    1
    50    50    49    1
    51    51    50    1
    52    52    50    1
    53    53    50    1
    54    54    49    1
    55    55    54    1
    56    56    54    1
    57    57    54    1
    58    58    49    1
    59    59    58    1
    60    60    58    1
    61    61    58    1
    62    62     5   un
    63    63    62    1
    64    64    63   ar
    65    65    64    1
    66    66    64   ar
    67    67    66    1
    68    68    66   ar
    69    69    68    1
    70    70    68   ar
    71    71    70    1
    72    72    63   ar
    73    73    72    1
    74     8    11    1
    75    16    18   ar
    76    18    19    1
    77    22    25    1
    78    30    32   ar
    79    32    33    1
    80    70    72   ar
    81    74    75    2
    82    76    74    2
    83    77    74    1
    84    78    74    2
    85    79    80    3
    86    80    81    1
    87    81    82    1
    88    83    81    1
    89    84    81    1
@<TRIPOS>SUBSTRUCTURE
     1 RES1        1 GROUP             0 ****  ****    0  
     2 RES2       74 GROUP             0 ****  ****    0  
     3 RES3       79 GROUP             0 ****  ****    0  
@<TRIPOS>CRYSIN
   13.9732   21.7689   10.7730   90.0000  107.0260   90.0000    14     1
