@<TRIPOS>MOLECULE
OZUTAH
    83    88     2     0     0
SMALL
USER_CHARGES
****
Generated from the CSD

@<TRIPOS>ATOM
     1 Fe1     10.1550   2.1822  19.5460   Fe        1 RES1   1.0000
     2 N1       8.9180   0.6158  18.2772   N.3       1 RES1   0.0000
     3 N2      11.0661   0.3276  19.8806   N.ar      1 RES1   0.0000
     4 N3      12.3801   2.7675  20.0355   N.3       1 RES1   0.0000
     5 N4      11.1990   2.1137  17.7083   N.ar      1 RES1   0.0000
     6 C1       8.9083  -0.5316  19.2318   C.3       1 RES1   0.0000
     7 H1       8.6030  -1.3484  18.7631   H         1 RES1   0.0000
     8 H2       8.2723  -0.3439  19.9669   H         1 RES1   0.0000
     9 C2      10.2910  -0.7669  19.8083   C.ar      1 RES1   0.0000
    10 C3      10.7810  -2.0063  20.1834   C.ar      1 RES1   0.0000
    11 H3      10.2318  -2.7804  20.1411   H         1 RES1   0.0000
    12 C4      12.0986  -2.0894  20.6234   C.ar      1 RES1   0.0000
    13 H4      12.4465  -2.9234  20.9165   H         1 RES1   0.0000
    14 C5      12.9069  -0.9631  20.6374   C.ar      1 RES1   0.0000
    15 H5      13.8149  -1.0169  20.9114   H         1 RES1   0.0000
    16 C6      12.3523   0.2441  20.2404   C.ar      1 RES1   0.0000
    17 C7      13.1728   1.4965  20.0208   C.3       1 RES1   0.0000
    18 H6      13.8668   1.5478  20.7249   H         1 RES1   0.0000
    19 H7      13.6361   1.4225  19.1489   H         1 RES1   0.0000
    20 C8      12.7511   3.5698  18.8313   C.3       1 RES1   0.0000
    21 H8      13.7336   3.6876  18.8030   H         1 RES1   0.0000
    22 H9      12.3361   4.4666  18.8915   H         1 RES1   0.0000
    23 C9      12.2886   2.8840  17.5659   C.ar      1 RES1   0.0000
    24 C10     12.9284   2.9865  16.3471   C.ar      1 RES1   0.0000
    25 H10     13.7009   3.5303  16.2470   H         1 RES1   0.0000
    26 C11     12.4126   2.2721  15.2668   C.ar      1 RES1   0.0000
    27 H11     12.7938   2.3782  14.4030   H         1 RES1   0.0000
    28 C12     11.3450   1.4074  15.4500   C.ar      1 RES1   0.0000
    29 H12     11.0145   0.8818  14.7309   H         1 RES1   0.0000
    30 C13     10.7705   1.3293  16.7135   C.ar      1 RES1   0.0000
    31 C14      9.7639   0.2610  17.0991   C.3       1 RES1   0.0000
    32 H13      9.1727   0.0871  16.3241   H         1 RES1   0.0000
    33 H14     10.2511  -0.5774  17.2986   H         1 RES1   0.0000
    34 C15      7.5113   1.0141  17.8218   C.3       1 RES1   0.0000
    35 C16      6.7342   1.6102  18.9964   C.3       1 RES1   0.0000
    36 H15      6.6866   0.9543  19.7228   H         1 RES1   0.0000
    37 H16      5.8276   1.8409  18.7046   H         1 RES1   0.0000
    38 H17      7.1905   2.4171  19.3139   H         1 RES1   0.0000
    39 C17      6.7273  -0.1692  17.2533   C.3       1 RES1   0.0000
    40 H18      7.2544  -0.6028  16.5500   H         1 RES1   0.0000
    41 H19      5.8806   0.1502  16.8771   H         1 RES1   0.0000
    42 H20      6.5444  -0.8137  17.9686   H         1 RES1   0.0000
    43 C18      7.6552   2.0969  16.7540   C.3       1 RES1   0.0000
    44 H21      8.1949   2.8346  17.1074   H         1 RES1   0.0000
    45 H22      6.7680   2.4308  16.5056   H         1 RES1   0.0000
    46 H23      8.0953   1.7197  15.9636   H         1 RES1   0.0000
    47 C19     12.6090   3.5349  21.3353   C.3       1 RES1   0.0000
    48 C20     11.6193   4.6988  21.4325   C.3       1 RES1   0.0000
    49 H24     11.7528   5.3053  20.6745   H         1 RES1   0.0000
    50 H25     11.7682   5.1851  22.2703   H         1 RES1   0.0000
    51 H26     10.7032   4.3509  21.4152   H         1 RES1   0.0000
    52 C21     14.0385   4.0874  21.4309   C.3       1 RES1   0.0000
    53 H27     14.6795   3.3667  21.2571   H         1 RES1   0.0000
    54 H28     14.1895   4.4492  22.3291   H         1 RES1   0.0000
    55 H29     14.1589   4.7986  20.7677   H         1 RES1   0.0000
    56 C22     12.3363   2.5872  22.4939   C.3       1 RES1   0.0000
    57 H30     11.4395   2.2038  22.3980   H         1 RES1   0.0000
    58 H31     12.3921   3.0800  23.3392   H         1 RES1   0.0000
    59 H32     13.0014   1.8676  22.4907   H         1 RES1   0.0000
    60 O1       7.9449   3.8888  21.5220   O.co2     1 RES1   0.0000
    61 O2       9.0835   1.9864  21.2515   O.co2     1 RES1   0.0000
    62 C23      8.1903   2.7009  21.8181   C.2       1 RES1   0.0000
    63 C24      7.3770   2.0242  22.8846   C.ar      1 RES1   0.0000
    64 C25      6.3758   2.7351  23.5391   C.ar      1 RES1   0.0000
    65 H33      6.2097   3.6426  23.3148   H         1 RES1   0.0000
    66 C26      5.6172   2.1061  24.5273   C.ar      1 RES1   0.0000
    67 H34      4.9252   2.5840  24.9690   H         1 RES1   0.0000
    68 C27      5.8674   0.7992  24.8631   C.ar      1 RES1   0.0000
    69 H35      5.3486   0.3798  25.5390   H         1 RES1   0.0000
    70 C28      6.8702   0.0871  24.2252   C.ar      1 RES1   0.0000
    71 H36      7.0408  -0.8169  24.4649   H         1 RES1   0.0000
    72 C29      7.6251   0.6999  23.2345   C.ar      1 RES1   0.0000
    73 H37      8.3128   0.2145  22.7938   H         1 RES1   0.0000
    74 O3       9.2112   4.0480  19.2213   O.3       1 RES1   0.0000
    75 H38      9.5471   4.7514  18.9282   H         1 RES1   0.0000
    76 H39      8.7987   4.1659  20.0275   H         1 RES1   0.0000
    77 P1       9.6194   7.8813  18.7529   P.3       2 RES2  -1.0000
    78 F1       8.8157   9.1673  19.2491   F         2 RES2   0.0000
    79 F2       8.5072   7.6344  17.6414   F         2 RES2   0.0000
    80 F3      10.4727   8.7684  17.7581   F         2 RES2   0.0000
    81 F4      10.7101   8.1210  19.8819   F         2 RES2   0.0000
    82 F5       8.7721   6.9716  19.7579   F         2 RES2   0.0000
    83 F6      10.4111   6.5683  18.2650   F         2 RES2   0.0000
@<TRIPOS>BOND
     1     1     2    1
     2     2     6    1
     3     3     1    1
     4     4     1    1
     5     5     1    1
     6     6     7    1
     7     8     6    1
     8     9     3   ar
     9    10     9   ar
    10    11    10    1
    11    12    10   ar
    12    13    12    1
    13    14    12   ar
    14    15    14    1
    15    16     3   ar
    16    17     4    1
    17    18    17    1
    18    19    17    1
    19    20     4    1
    20    21    20    1
    21    22    20    1
    22    23     5   ar
    23    24    23   ar
    24    25    24    1
    25    26    24   ar
    26    27    26    1
    27    28    26   ar
    28    29    28    1
    29    30     5   ar
    30    31     2    1
    31    32    31    1
    32    33    31    1
    33    34     2    1
    34    35    34    1
    35    36    35    1
    36    37    35    1
    37    38    35    1
    38    39    34    1
    39    40    39    1
    40    41    39    1
    41    42    39    1
    42    43    34    1
    43    44    43    1
    44    45    43    1
    45    46    43    1
    46    47     4    1
    47    48    47    1
    48    49    48    1
    49    50    48    1
    50    51    48    1
    51    52    47    1
    52    53    52    1
    53    54    52    1
    54    55    52    1
    55    56    47    1
    56    57    56    1
    57    58    56    1
    58    59    56    1
    59    60    62    2
    60    61     1    1
    61    62    61    1
    62    63    62    1
    63    64    63   ar
    64    65    64    1
    65    66    64   ar
    66    67    66    1
    67    68    66   ar
    68    69    68    1
    69    70    68   ar
    70    71    70    1
    71    72    63   ar
    72    73    72    1
    73    74     1    1
    74    75    74    1
    75    76    74    1
    76     6     9    1
    77    14    16   ar
    78    16    17    1
    79    20    23    1
    80    28    30   ar
    81    30    31    1
    82    70    72   ar
    83    77    78    1
    84    79    77    1
    85    80    77    1
    86    81    77    1
    87    82    77    1
    88    83    77    1
@<TRIPOS>SUBSTRUCTURE
     1 RES1        1 GROUP             0 ****  ****    0  
     2 RES2       77 GROUP             0 ****  ****    0  
@<TRIPOS>CRYSIN
   14.6958   13.6142   32.2038   90.0000   98.3110   90.0000    15     1
