@<TRIPOS>MOLECULE
OZUTIP
    81    86     2     0     0
SMALL
USER_CHARGES
****
Generated from the CSD

@<TRIPOS>ATOM
     1 Fe1      1.0857   0.3297  11.7634   Fe        1 RES1   1.0000
     2 N1       1.2530   2.5489  12.6083   N.3       1 RES1   0.0000
     3 N2       2.6126   1.1467  10.6072   N.ar      1 RES1   0.0000
     4 N3       2.4518  -1.4924  11.1554   N.3       1 RES1   0.0000
     5 N4       2.5197   0.3025  13.2937   N.ar      1 RES1   0.0000
     6 C1       2.5558   3.0630  12.0803   C.3       1 RES1   0.0000
     7 H1       3.2496   2.9372  12.7752   H         1 RES1   0.0000
     8 H2       2.4687   4.0357  11.9178   H         1 RES1   0.0000
     9 C2       3.0251   2.4024  10.8065   C.ar      1 RES1   0.0000
    10 C3       3.9693   2.9729   9.9631   C.ar      1 RES1   0.0000
    11 H3       4.2574   3.8686  10.0936   H         1 RES1   0.0000
    12 C4       4.4828   2.2088   8.9273   C.ar      1 RES1   0.0000
    13 H4       5.0852   2.5999   8.3055   H         1 RES1   0.0000
    14 C5       4.1223   0.8768   8.7934   C.ar      1 RES1   0.0000
    15 H5       4.5029   0.3321   8.1145   H         1 RES1   0.0000
    16 C6       3.1876   0.3641   9.6827   C.ar      1 RES1   0.0000
    17 C7       2.7857  -1.0959   9.7515   C.3       1 RES1   0.0000
    18 H6       1.9996  -1.2493   9.1696   H         1 RES1   0.0000
    19 H7       3.5288  -1.6586   9.4178   H         1 RES1   0.0000
    20 C8       3.6687  -1.3879  12.0272   C.3       1 RES1   0.0000
    21 H8       4.3671  -0.8792  11.5439   H         1 RES1   0.0000
    22 H9       4.0210  -2.2974  12.1970   H         1 RES1   0.0000
    23 C9       3.3982  -0.7124  13.3506   C.ar      1 RES1   0.0000
    24 C10      4.0472  -1.0060  14.5380   C.ar      1 RES1   0.0000
    25 H10      4.6467  -1.7408  14.5952   H         1 RES1   0.0000
    26 C11      3.8017  -0.2009  15.6447   C.ar      1 RES1   0.0000
    27 H11      4.2075  -0.4075  16.4784   H         1 RES1   0.0000
    28 C12      2.9679   0.9014  15.5385   C.ar      1 RES1   0.0000
    29 H12      2.8373   1.4859  16.2759   H         1 RES1   0.0000
    30 C13      2.3306   1.1291  14.3317   C.ar      1 RES1   0.0000
    31 C14      1.3886   2.2881  14.0691   C.3       1 RES1   0.0000
    32 H13      0.4987   2.0819  14.4507   H         1 RES1   0.0000
    33 H14      1.7335   3.1004  14.5178   H         1 RES1   0.0000
    34 C15      0.1222   3.5257  12.3009   C.3       1 RES1   0.0000
    35 C16      0.1296   3.7956  10.7927   C.3       1 RES1   0.0000
    36 H15      0.9528   4.2684  10.5495   H         1 RES1   0.0000
    37 H16     -0.6457   4.3460  10.5555   H         1 RES1   0.0000
    38 H17      0.0864   2.9446  10.3085   H         1 RES1   0.0000
    39 C17      0.2660   4.8424  13.0786   C.3       1 RES1   0.0000
    40 H18      0.1398   4.6720  14.0354   H         1 RES1   0.0000
    41 H19     -0.4101   5.4804  12.7684   H         1 RES1   0.0000
    42 H20      1.1599   5.2147  12.9281   H         1 RES1   0.0000
    43 C18     -1.2165   2.8800  12.6553   C.3       1 RES1   0.0000
    44 H21     -1.2952   2.0180  12.1959   H         1 RES1   0.0000
    45 H22     -1.9479   3.4684  12.3733   H         1 RES1   0.0000
    46 H23     -1.2653   2.7397  13.6239   H         1 RES1   0.0000
    47 C19      1.8850  -2.9113  11.2145   C.3       1 RES1   0.0000
    48 C20      0.5224  -2.9497  10.5264   C.3       1 RES1   0.0000
    49 H24     -0.0806  -2.3105  10.9600   H         1 RES1   0.0000
    50 H25      0.1467  -3.8522  10.5960   H         1 RES1   0.0000
    51 H26      0.6268  -2.7113   9.5816   H         1 RES1   0.0000
    52 C21      2.8154  -3.9413  10.5479   C.3       1 RES1   0.0000
    53 H27      2.8663  -3.7611   9.5859   H         1 RES1   0.0000
    54 H28      2.4615  -4.8435  10.6930   H         1 RES1   0.0000
    55 H29      3.7110  -3.8747  10.9404   H         1 RES1   0.0000
    56 C22      1.6795  -3.2771  12.6894   C.3       1 RES1   0.0000
    57 H30      2.5513  -3.3962  13.1208   H         1 RES1   0.0000
    58 H31      1.1678  -4.1105  12.7510   H         1 RES1   0.0000
    59 H32      1.1882  -2.5580  13.1388   H         1 RES1   0.0000
    60 O1      -2.1541  -0.6382  11.3068   O.co2     1 RES1   0.0000
    61 O2      -0.3706   0.2817  10.3193   O.co2     1 RES1   0.0000
    62 C23     -1.5964  -0.0557  10.3364   C.2       1 RES1   0.0000
    63 C24     -2.4302   0.2575   9.1395   C.ar      1 RES1   0.0000
    64 C25     -1.8615   0.8193   8.0005   C.ar      1 RES1   0.0000
    65 H33     -0.9292   0.9997   7.9727   H         1 RES1   0.0000
    66 C26     -2.6586   1.1143   6.9081   C.ar      1 RES1   0.0000
    67 H34     -2.2700   1.4883   6.1261   H         1 RES1   0.0000
    68 C27     -4.0231   0.8660   6.9509   C.ar      1 RES1   0.0000
    69 H35     -4.5664   1.0836   6.2026   H         1 RES1   0.0000
    70 C28     -4.5957   0.3047   8.0749   C.ar      1 RES1   0.0000
    71 H36     -5.5294   0.1313   8.1011   H         1 RES1   0.0000
    72 C29     -3.7985  -0.0032   9.1616   C.ar      1 RES1   0.0000
    73 H37     -4.1886  -0.3973   9.9331   H         1 RES1   0.0000
    74 O3      -0.2780  -0.5436  13.1319   O.3       1 RES1   0.0000
    75 H38     -0.9405  -0.6741  12.6305   H         1 RES1   0.0000
    76 H39     -0.5252  -0.1928  13.8241   H         1 RES1   0.0000
    77 Cl1      5.6622   5.3015  12.3871   Cl        2 RES2   0.0000
    78 O4       5.5036   4.0138  13.0097   O.3       2 RES2  -1.0000
    79 O5       6.4475   6.1444  13.2241   O.2       2 RES2   0.0000
    80 O6       6.2913   5.1539  11.1039   O.2       2 RES2   0.0000
    81 O7       4.3595   5.8717  12.1816   O.2       2 RES2   0.0000
@<TRIPOS>BOND
     1     1     2    1
     2     2     6    1
     3     3     1    1
     4     4     1    1
     5     5     1    1
     6     6     7    1
     7     8     6    1
     8     9     3   ar
     9    10     9   ar
    10    11    10    1
    11    12    10   ar
    12    13    12    1
    13    14    12   ar
    14    15    14    1
    15    16     3   ar
    16    17     4    1
    17    18    17    1
    18    19    17    1
    19    20     4    1
    20    21    20    1
    21    22    20    1
    22    23     5   ar
    23    24    23   ar
    24    25    24    1
    25    26    24   ar
    26    27    26    1
    27    28    26   ar
    28    29    28    1
    29    30     5   ar
    30    31     2    1
    31    32    31    1
    32    33    31    1
    33    34     2    1
    34    35    34    1
    35    36    35    1
    36    37    35    1
    37    38    35    1
    38    39    34    1
    39    40    39    1
    40    41    39    1
    41    42    39    1
    42    43    34    1
    43    44    43    1
    44    45    43    1
    45    46    43    1
    46    47     4    1
    47    48    47    1
    48    49    48    1
    49    50    48    1
    50    51    48    1
    51    52    47    1
    52    53    52    1
    53    54    52    1
    54    55    52    1
    55    56    47    1
    56    57    56    1
    57    58    56    1
    58    59    56    1
    59    60    62    2
    60    61     1    1
    61    62    61    1
    62    63    62    1
    63    64    63   ar
    64    65    64    1
    65    66    64   ar
    66    67    66    1
    67    68    66   ar
    68    69    68    1
    69    70    68   ar
    70    71    70    1
    71    72    63   ar
    72    73    72    1
    73    74     1    1
    74    75    74    1
    75    76    74    1
    76     6     9    1
    77    14    16   ar
    78    16    17    1
    79    20    23    1
    80    28    30   ar
    81    30    31    1
    82    70    72   ar
    83    77    78    1
    84    79    77    2
    85    80    77    2
    86    81    77    2
@<TRIPOS>SUBSTRUCTURE
     1 RES1        1 GROUP             0 ****  ****    0  
     2 RES2       77 GROUP             0 ****  ****    0  
@<TRIPOS>CRYSIN
   14.7753   15.4266   13.3481   90.0000   98.4410   90.0000    14     1
