@<TRIPOS>MOLECULE
PABSOA
    75    76     1     0     0
SMALL
NO_CHARGES
****
Generated from the CSD

@<TRIPOS>ATOM
     1 Fe1      0.0000   0.0000   0.0000   Fe        1 RES1   0.0000
     2 Br1     -2.0706   1.4166   0.0015   Br        1 RES1   0.0000
     3 C1       2.4333   1.0664   2.2902   C.3       1 RES1   0.0000
     4 C2       3.1631   2.0855   3.0979   C.3       1 RES1   0.0000
     5 C3      -0.2829   1.7639   3.0898   C.3       1 RES1   0.0000
     6 C4      -0.0852   3.0451   3.8573   C.3       1 RES1   0.0000
     7 P1       0.7575   1.4073   1.6256   P.3       1 RES1   0.0000
     8 C5       0.9898   3.0497   0.8622   C.3       1 RES1   0.0000
     9 C6       1.7740   2.8428  -0.4114   C.3       1 RES1   0.0000
    10 P2       0.9883   1.5188  -1.4169   P.3       1 RES1   0.0000
    11 C7       2.3900   1.0241  -2.4928   C.3       1 RES1   0.0000
    12 C8       3.1870   2.1201  -3.1705   C.3       1 RES1   0.0000
    13 C9      -0.0365   2.5728  -2.5362   C.3       1 RES1   0.0000
    14 C10     -0.5659   1.9182  -3.7736   C.3       1 RES1   0.0000
    15 H1       3.0021   0.8626   1.5197   H         1 RES1   0.0000
    16 H2       2.3518   0.2703   2.8559   H         1 RES1   0.0000
    17 H3       4.0999   1.8663   3.2825   H         1 RES1   0.0000
    18 H4       2.6576   2.0889   3.9369   H         1 RES1   0.0000
    19 H5       3.1099   2.9701   2.6804   H         1 RES1   0.0000
    20 H6      -0.1413   1.0295   3.7241   H         1 RES1   0.0000
    21 H7      -1.2139   1.7573   2.7853   H         1 RES1   0.0000
    22 H8      -0.7870   3.1363   4.5339   H         1 RES1   0.0000
    23 H9      -0.1057   3.8206   3.2572   H         1 RES1   0.0000
    24 H10      0.7893   2.9952   4.2969   H         1 RES1   0.0000
    25 H11      1.4860   3.6361   1.4703   H         1 RES1   0.0000
    26 H12      0.1193   3.4519   0.6585   H         1 RES1   0.0000
    27 H13      1.7872   3.6773  -0.9247   H         1 RES1   0.0000
    28 H14      2.6917   2.5804  -0.1886   H         1 RES1   0.0000
    29 H15      2.0267   0.4487  -3.1988   H         1 RES1   0.0000
    30 H16      3.0142   0.5083  -1.9402   H         1 RES1   0.0000
    31 H17      3.8135   1.6878  -3.7867   H         1 RES1   0.0000
    32 H18      3.6865   2.6499  -2.5140   H         1 RES1   0.0000
    33 H19      2.5846   2.7072  -3.6737   H         1 RES1   0.0000
    34 H20      0.5146   3.3336  -2.8145   H         1 RES1   0.0000
    35 H21     -0.8037   2.8968  -2.0199   H         1 RES1   0.0000
    36 H22     -1.1433   2.5559  -4.2435   H         1 RES1   0.0000
    37 H23     -1.0797   1.1129  -3.5527   H         1 RES1   0.0000
    38 H24      0.1895   1.6756  -4.3494   H         1 RES1   0.0000
    39 Br1A     2.0706  -1.4166  -0.0015   Br        1 RES1   0.0000
    40 P1A     -0.7575  -1.4073  -1.6256   P.3       1 RES1   0.0000
    41 P2A     -0.9883  -1.5188   1.4169   P.3       1 RES1   0.0000
    42 C1A     -2.4333  -1.0664  -2.2902   C.3       1 RES1   0.0000
    43 C3A      0.2829  -1.7639  -3.0898   C.3       1 RES1   0.0000
    44 C5A     -0.9898  -3.0497  -0.8622   C.3       1 RES1   0.0000
    45 C6A     -1.7740  -2.8428   0.4114   C.3       1 RES1   0.0000
    46 C7A     -2.3900  -1.0241   2.4928   C.3       1 RES1   0.0000
    47 C9A      0.0365  -2.5728   2.5362   C.3       1 RES1   0.0000
    48 C2A     -3.1631  -2.0855  -3.0979   C.3       1 RES1   0.0000
    49 H1A     -3.0021  -0.8626  -1.5197   H         1 RES1   0.0000
    50 H2A     -2.3518  -0.2703  -2.8559   H         1 RES1   0.0000
    51 C4A      0.0852  -3.0451  -3.8573   C.3       1 RES1   0.0000
    52 H6A      0.1413  -1.0295  -3.7241   H         1 RES1   0.0000
    53 H7A      1.2139  -1.7573  -2.7853   H         1 RES1   0.0000
    54 H11A    -1.4860  -3.6361  -1.4703   H         1 RES1   0.0000
    55 H12A    -0.1193  -3.4519  -0.6585   H         1 RES1   0.0000
    56 H13A    -1.7872  -3.6773   0.9247   H         1 RES1   0.0000
    57 H14A    -2.6917  -2.5804   0.1886   H         1 RES1   0.0000
    58 C8A     -3.1870  -2.1201   3.1705   C.3       1 RES1   0.0000
    59 H15A    -2.0267  -0.4487   3.1988   H         1 RES1   0.0000
    60 H16A    -3.0142  -0.5083   1.9402   H         1 RES1   0.0000
    61 C10A     0.5659  -1.9182   3.7736   C.3       1 RES1   0.0000
    62 H20A    -0.5146  -3.3336   2.8145   H         1 RES1   0.0000
    63 H21A     0.8037  -2.8968   2.0199   H         1 RES1   0.0000
    64 H3A     -4.0999  -1.8663  -3.2825   H         1 RES1   0.0000
    65 H4A     -2.6576  -2.0889  -3.9369   H         1 RES1   0.0000
    66 H5A     -3.1099  -2.9701  -2.6804   H         1 RES1   0.0000
    67 H8A      0.7870  -3.1363  -4.5339   H         1 RES1   0.0000
    68 H9A      0.1057  -3.8206  -3.2572   H         1 RES1   0.0000
    69 H10A    -0.7893  -2.9952  -4.2969   H         1 RES1   0.0000
    70 H17A    -3.8135  -1.6878   3.7867   H         1 RES1   0.0000
    71 H18A    -3.6865  -2.6499   2.5140   H         1 RES1   0.0000
    72 H19A    -2.5846  -2.7072   3.6737   H         1 RES1   0.0000
    73 H22A     1.1433  -2.5559   4.2435   H         1 RES1   0.0000
    74 H23A     1.0797  -1.1129   3.5527   H         1 RES1   0.0000
    75 H24A    -0.1895  -1.6756   4.3494   H         1 RES1   0.0000
@<TRIPOS>BOND
     1     1     2    1
     2     3     4    1
     3     4    17    1
     4     5     6    1
     5     6    22    1
     6     7     1    1
     7     8     7    1
     8     9     8    1
     9    10     1    1
    10    11    10    1
    11    12    11    1
    12    13    10    1
    13    14    13    1
    14    15     3    1
    15    16     3    1
    16    18     4    1
    17    19     4    1
    18    20     5    1
    19    21     5    1
    20    23     6    1
    21    24     6    1
    22    25     8    1
    23    26     8    1
    24    27     9    1
    25    28     9    1
    26    29    11    1
    27    30    11    1
    28    31    12    1
    29    32    12    1
    30    33    12    1
    31    34    13    1
    32    35    13    1
    33    36    14    1
    34    37    14    1
    35    38    14    1
    36    39     1    1
    37    40     1    1
    38    41     1    1
    39    42    40    1
    40    43    40    1
    41    44    40    1
    42    45    41    1
    43    46    41    1
    44    47    41    1
    45    48    42    1
    46    49    42    1
    47    50    42    1
    48    51    43    1
    49    52    43    1
    50    53    43    1
    51    54    44    1
    52    55    44    1
    53    56    45    1
    54    57    45    1
    55    58    46    1
    56    59    46    1
    57    60    46    1
    58    61    47    1
    59    62    47    1
    60    63    47    1
    61    64    48    1
    62    65    48    1
    63    66    48    1
    64    67    51    1
    65    68    51    1
    66    69    51    1
    67    70    58    1
    68    71    58    1
    69    72    58    1
    70    73    61    1
    71    74    61    1
    72    75    61    1
    73     3     7    1
    74     5     7    1
    75     9    10    1
    76    44    45    1
@<TRIPOS>SUBSTRUCTURE
     1 RES1        1 GROUP             0 ****  ****    0  
@<TRIPOS>CRYSIN
    7.8355    8.8045   10.3412   95.6020   99.7370  104.0700     2     1
