@<TRIPOS>MOLECULE
PAKHOB
    85    86     1     0     0
SMALL
NO_CHARGES
****
Generated from the CSD

@<TRIPOS>ATOM
     1 Fe1      0.0000   0.0000   0.0000   Fe        1 RES1   0.0000
     2 O1       1.9230   0.0697  -0.8998   O.2       1 RES1   0.0000
     3 C1       2.1888  -0.5224  -1.9575   C.2       1 RES1   0.0000
     4 H1       1.6111  -1.2236  -2.2354   H         1 RES1   0.0000
     5 N1       3.2317  -0.2329  -2.7226   N.am      1 RES1   0.0000
     6 C2       3.4390  -0.8767  -4.0137   C.3       1 RES1   0.0000
     7 H2       2.7106  -1.5092  -4.1843   H         1 RES1   0.0000
     8 H3       4.2933  -1.3566  -4.0057   H         1 RES1   0.0000
     9 H4       3.4532  -0.1970  -4.7195   H         1 RES1   0.0000
    10 C3       4.1679   0.8240  -2.3526   C.3       1 RES1   0.0000
    11 H5       4.0596   1.5831  -2.9616   H         1 RES1   0.0000
    12 H6       5.0848   0.4850  -2.4141   H         1 RES1   0.0000
    13 H7       3.9873   1.1128  -1.4335   H         1 RES1   0.0000
    14 O2       0.7016   1.4221   1.4636   O.2       1 RES1   0.0000
    15 C4       1.8059   2.0028   1.4308   C.2       1 RES1   0.0000
    16 H8       2.4594   1.6742   0.8242   H         1 RES1   0.0000
    17 N2       2.1317   3.0416   2.1777   N.am      1 RES1   0.0000
    18 C5       3.4633   3.6393   2.1104   C.3       1 RES1   0.0000
    19 H9       3.9983   3.1686   1.4376   H         1 RES1   0.0000
    20 H10      3.8998   3.5650   2.9847   H         1 RES1   0.0000
    21 H11      3.3847   4.5843   1.8641   H         1 RES1   0.0000
    22 C6       1.1724   3.6797   3.0699   C.3       1 RES1   0.0000
    23 H12      0.3052   3.2302   2.9929   H         1 RES1   0.0000
    24 H13      1.0741   4.6237   2.8225   H         1 RES1   0.0000
    25 H14      1.4926   3.6167   3.9941   H         1 RES1   0.0000
    26 O3      -0.6133   1.5624  -1.2527   O.3       1 RES1   0.0000
    27 O4      -1.7105   3.4163  -2.3229   O.2       1 RES1   0.0000
    28 O5      -1.8889   3.1499   0.0967   O.2       1 RES1   0.0000
    29 S1      -1.0918   2.9536  -1.0931   S.o2      1 RES1   0.0000
    30 C7       0.3806   3.9232  -0.8906   C.ar      1 RES1   0.0000
    31 C8       1.5623   3.5308  -1.5106   C.ar      1 RES1   0.0000
    32 H15      1.5923   2.7254  -2.0139   H         1 RES1   0.0000
    33 C9       2.6988   4.3208  -1.3901   C.ar      1 RES1   0.0000
    34 H16      3.5071   4.0475  -1.8073   H         1 RES1   0.0000
    35 C10      2.6674   5.5122  -0.6626   C.ar      1 RES1   0.0000
    36 C11      1.4829   5.8766  -0.0243   C.ar      1 RES1   0.0000
    37 H17      1.4548   6.6720   0.4957   H         1 RES1   0.0000
    38 C12      0.3417   5.0902  -0.1392   C.ar      1 RES1   0.0000
    39 H18     -0.4622   5.3499   0.2948   H         1 RES1   0.0000
    40 C13      3.9008   6.3776  -0.5714   C.3       1 RES1   0.0000
    41 H19      3.8953   7.0315  -1.3009   H         1 RES1   0.0000
    42 H20      4.7002   5.8153  -0.6422   H         1 RES1   0.0000
    43 H21      3.9075   6.8468   0.2890   H         1 RES1   0.0000
    44 O1B     -1.9230  -0.0697   0.8998   O.2       1 RES1   0.0000
    45 C1B     -2.1888   0.5224   1.9575   C.2       1 RES1   0.0000
    46 H1B     -1.6111   1.2236   2.2354   H         1 RES1   0.0000
    47 N1B     -3.2317   0.2329   2.7226   N.am      1 RES1   0.0000
    48 C2B     -3.4390   0.8767   4.0137   C.3       1 RES1   0.0000
    49 H2B     -2.7106   1.5092   4.1843   H         1 RES1   0.0000
    50 H3B     -4.2933   1.3566   4.0057   H         1 RES1   0.0000
    51 H4B     -3.4532   0.1970   4.7195   H         1 RES1   0.0000
    52 C3B     -4.1679  -0.8240   2.3526   C.3       1 RES1   0.0000
    53 H5B     -4.0596  -1.5831   2.9616   H         1 RES1   0.0000
    54 H6B     -5.0848  -0.4850   2.4141   H         1 RES1   0.0000
    55 H7B     -3.9873  -1.1128   1.4335   H         1 RES1   0.0000
    56 O2B     -0.7016  -1.4221  -1.4636   O.2       1 RES1   0.0000
    57 C4B     -1.8059  -2.0028  -1.4308   C.2       1 RES1   0.0000
    58 H8B     -2.4594  -1.6742  -0.8242   H         1 RES1   0.0000
    59 N2B     -2.1317  -3.0416  -2.1777   N.am      1 RES1   0.0000
    60 C5B     -3.4633  -3.6393  -2.1104   C.3       1 RES1   0.0000
    61 H9B     -3.9983  -3.1686  -1.4376   H         1 RES1   0.0000
    62 H10B    -3.8998  -3.5650  -2.9847   H         1 RES1   0.0000
    63 H11B    -3.3847  -4.5843  -1.8641   H         1 RES1   0.0000
    64 C6B     -1.1724  -3.6797  -3.0699   C.3       1 RES1   0.0000
    65 H12B    -0.3052  -3.2302  -2.9929   H         1 RES1   0.0000
    66 H13B    -1.0741  -4.6237  -2.8225   H         1 RES1   0.0000
    67 H14B    -1.4926  -3.6167  -3.9941   H         1 RES1   0.0000
    68 O3B      0.6133  -1.5624   1.2527   O.3       1 RES1   0.0000
    69 O4B      1.7105  -3.4163   2.3229   O.2       1 RES1   0.0000
    70 O5B      1.8889  -3.1499  -0.0967   O.2       1 RES1   0.0000
    71 S1B      1.0918  -2.9536   1.0931   S.o2      1 RES1   0.0000
    72 C7B     -0.3806  -3.9232   0.8906   C.ar      1 RES1   0.0000
    73 C8B     -1.5623  -3.5308   1.5106   C.ar      1 RES1   0.0000
    74 H15B    -1.5923  -2.7254   2.0139   H         1 RES1   0.0000
    75 C9B     -2.6988  -4.3208   1.3901   C.ar      1 RES1   0.0000
    76 H16B    -3.5071  -4.0475   1.8073   H         1 RES1   0.0000
    77 C10B    -2.6674  -5.5122   0.6626   C.ar      1 RES1   0.0000
    78 C11B    -1.4829  -5.8766   0.0243   C.ar      1 RES1   0.0000
    79 H17B    -1.4548  -6.6720  -0.4957   H         1 RES1   0.0000
    80 C12B    -0.3417  -5.0902   0.1392   C.ar      1 RES1   0.0000
    81 H18B     0.4622  -5.3499  -0.2948   H         1 RES1   0.0000
    82 C13B    -3.9008  -6.3776   0.5714   C.3       1 RES1   0.0000
    83 H19B    -3.8953  -7.0315   1.3009   H         1 RES1   0.0000
    84 H20B    -4.7002  -5.8153   0.6422   H         1 RES1   0.0000
    85 H21B    -3.9075  -6.8468  -0.2890   H         1 RES1   0.0000
@<TRIPOS>BOND
     1     1     2    1
     2     2     3    2
     3     3     4    1
     4     5     3   am
     5     6     5    1
     6     7     6    1
     7     8     6    1
     8     9     6    1
     9    10     5    1
    10    11    10    1
    11    12    10    1
    12    13    10    1
    13    14     1    1
    14    15    14    2
    15    16    15    1
    16    17    15   am
    17    18    17    1
    18    19    18    1
    19    20    18    1
    20    21    18    1
    21    22    17    1
    22    23    22    1
    23    24    22    1
    24    25    22    1
    25    26     1    1
    26    27    29    2
    27    28    29    2
    28    29    26    1
    29    30    29    1
    30    31    30   ar
    31    32    31    1
    32    33    31   ar
    33    34    33    1
    34    35    33   ar
    35    36    35   ar
    36    37    36    1
    37    38    30   ar
    38    39    38    1
    39    40    35    1
    40    41    40    1
    41    42    40    1
    42    43    40    1
    43    44     1    1
    44    45    44    2
    45    46    45    1
    46    47    45   am
    47    48    47    1
    48    49    48    1
    49    50    48    1
    50    51    48    1
    51    52    47    1
    52    53    52    1
    53    54    52    1
    54    55    52    1
    55    56     1    1
    56    57    56    2
    57    58    57    1
    58    59    57   am
    59    60    59    1
    60    61    60    1
    61    62    60    1
    62    63    60    1
    63    64    59    1
    64    65    64    1
    65    66    64    1
    66    67    64    1
    67    68     1    1
    68    69    71    2
    69    70    71    2
    70    71    68    1
    71    72    71    1
    72    73    72   ar
    73    74    73    1
    74    75    73   ar
    75    76    75    1
    76    77    75   ar
    77    78    77   ar
    78    79    78    1
    79    80    72   ar
    80    81    80    1
    81    82    77    1
    82    83    82    1
    83    84    82    1
    84    85    82    1
    85    36    38   ar
    86    78    80   ar
@<TRIPOS>SUBSTRUCTURE
     1 RES1        1 GROUP             0 ****  ****    0  
@<TRIPOS>CRYSIN
    7.8467   24.6201    8.8263   90.0000  111.1160   90.0000   231     1
