@<TRIPOS>MOLECULE
PANGOA
   100   107     3     0     0
SMALL
NO_CHARGES
****
Generated from the CSD

@<TRIPOS>ATOM
     1 Fe1      0.1438   2.1802   9.5363   Fe        1 RES1   0.0000
     2 P1       2.0628   3.0879   8.8028   P.3       1 RES1   0.0000
     3 C1       1.4111   4.0990   7.5266   C.2       1 RES1   0.0000
     4 C2       0.0890   3.9157   7.2969   C.2       1 RES1   0.0000
     5 O1      -0.6709   3.1036   7.9880   O.2       1 RES1   0.0000
     6 C3      -0.6413   4.6913   6.2321   C.ar      1 RES1   0.0000
     7 C4       0.0267   5.3113   5.1944   C.ar      1 RES1   0.0000
     8 C5      -0.6801   6.0082   4.2049   C.ar      1 RES1   0.0000
     9 C6      -2.0527   6.0933   4.3073   C.ar      1 RES1   0.0000
    10 C7      -2.7155   5.5026   5.3305   C.ar      1 RES1   0.0000
    11 C8      -2.0127   4.7986   6.2842   C.ar      1 RES1   0.0000
    12 C9       3.2719   1.9156   8.1222   C.ar      1 RES1   0.0000
    13 C10      3.7276   2.0482   6.8219   C.ar      1 RES1   0.0000
    14 C11      4.6029   1.1362   6.2862   C.ar      1 RES1   0.0000
    15 C12      5.0508   0.0890   7.0324   C.ar      1 RES1   0.0000
    16 C13      4.6269  -0.0413   8.3269   C.ar      1 RES1   0.0000
    17 C14      3.7359   0.8578   8.8617   C.ar      1 RES1   0.0000
    18 C15      3.0170   4.1260   9.9341   C.ar      1 RES1   0.0000
    19 C16      3.9629   3.6128  10.7971   C.ar      1 RES1   0.0000
    20 C17      4.6189   4.4015  11.7132   C.ar      1 RES1   0.0000
    21 C18      4.3660   5.7218  11.7885   C.ar      1 RES1   0.0000
    22 C19      3.4517   6.2620  10.9439   C.ar      1 RES1   0.0000
    23 C20      2.7798   5.4641  10.0365   C.ar      1 RES1   0.0000
    24 C21     -0.3167   3.6041  10.4486   C.1       1 RES1   0.0000
    25 O2      -0.6575   4.5451  11.0259   O.2       1 RES1   0.0000
    26 P2      -1.7829   1.0537   9.9148   P.3       1 RES1   0.0000
    27 C22     -1.5162  -0.3275   8.8636   C.2       1 RES1   0.0000
    28 C23     -0.3346  -0.2508   8.1541   C.2       1 RES1   0.0000
    29 O3       0.5698   0.6669   8.3558   O.2       1 RES1   0.0000
    30 C24      0.0653  -1.3668   7.2496   C.ar      1 RES1   0.0000
    31 C25      1.3716  -1.7602   7.1501   C.ar      1 RES1   0.0000
    32 C26      1.7368  -2.8197   6.3441   C.ar      1 RES1   0.0000
    33 C27      0.8080  -3.4969   5.6346   C.ar      1 RES1   0.0000
    34 C28     -0.5109  -3.0992   5.6838   C.ar      1 RES1   0.0000
    35 C29     -0.8860  -2.0398   6.4918   C.ar      1 RES1   0.0000
    36 C30     -3.4142   1.7470   9.4930   C.ar      1 RES1   0.0000
    37 C31     -3.7095   2.0031   8.1763   C.ar      1 RES1   0.0000
    38 C32     -4.9619   2.4410   7.7950   C.ar      1 RES1   0.0000
    39 C33     -5.9148   2.6163   8.7294   C.ar      1 RES1   0.0000
    40 C34     -5.6507   2.3478  10.0413   C.ar      1 RES1   0.0000
    41 C35     -4.4125   1.9229  10.4226   C.ar      1 RES1   0.0000
    42 C36     -1.9588   0.4781  11.6205   C.ar      1 RES1   0.0000
    43 C37     -1.9508  -0.8702  11.9420   C.ar      1 RES1   0.0000
    44 C38     -2.0265  -1.2868  13.2587   C.ar      1 RES1   0.0000
    45 C39     -2.1134  -0.3584  14.2675   C.ar      1 RES1   0.0000
    46 C40     -2.1223   0.9618  13.9769   C.ar      1 RES1   0.0000
    47 C41     -2.0439   1.3835  12.6718   C.ar      1 RES1   0.0000
    48 C42      0.9145   1.4382  10.9245   C.1       1 RES1   0.0000
    49 O4       1.4180   0.9929  11.8571   O.2       1 RES1   0.0000
    50 H1       1.9378   4.7198   7.0391   H         1 RES1   0.0000
    51 H2       0.9743   5.2647   5.1500   H         1 RES1   0.0000
    52 H3      -0.2228   6.4144   3.4781   H         1 RES1   0.0000
    53 H4      -2.5419   6.5724   3.6480   H         1 RES1   0.0000
    54 H5      -3.6598   5.5733   5.3894   H         1 RES1   0.0000
    55 H6      -2.4853   4.3768   6.9928   H         1 RES1   0.0000
    56 H7       3.4304   2.7777   6.2920   H         1 RES1   0.0000
    57 H8       4.8978   1.2353   5.3884   H         1 RES1   0.0000
    58 H9       5.6503  -0.5454   6.6569   H         1 RES1   0.0000
    59 H10      4.9498  -0.7598   8.8597   H         1 RES1   0.0000
    60 H11      3.4366   0.7461   9.7565   H         1 RES1   0.0000
    61 H12      4.1675   2.6855  10.7566   H         1 RES1   0.0000
    62 H13      5.2553   4.0106  12.2982   H         1 RES1   0.0000
    63 H14      4.8184   6.2637  12.4227   H         1 RES1   0.0000
    64 H15      3.2733   7.1937  10.9747   H         1 RES1   0.0000
    65 H16      2.1320   5.8598   9.4659   H         1 RES1   0.0000
    66 H17     -2.1246  -1.0531   8.7902   H         1 RES1   0.0000
    67 H18      2.0380  -1.2953   7.6425   H         1 RES1   0.0000
    68 H19      2.6499  -3.0757   6.2881   H         1 RES1   0.0000
    69 H20      1.0620  -4.2425   5.1037   H         1 RES1   0.0000
    70 H21     -1.1636  -3.5524   5.1625   H         1 RES1   0.0000
    71 H22     -1.7981  -1.7701   6.5275   H         1 RES1   0.0000
    72 H23     -3.0380   1.8763   7.5141   H         1 RES1   0.0000
    73 H24     -5.1499   2.6167   6.8799   H         1 RES1   0.0000
    74 H25     -6.7738   2.9289   8.4736   H         1 RES1   0.0000
    75 H26     -6.3330   2.4565  10.6919   H         1 RES1   0.0000
    76 H27     -4.2379   1.7453  11.3396   H         1 RES1   0.0000
    77 H28     -1.8928  -1.5153  11.2489   H         1 RES1   0.0000
    78 H29     -2.0196  -2.2127  13.4643   H         1 RES1   0.0000
    79 H30     -2.1679  -0.6464  15.1720   H         1 RES1   0.0000
    80 H31     -2.1828   1.5996  14.6768   H         1 RES1   0.0000
    81 H32     -2.0475   2.3139  12.4835   H         1 RES1   0.0000
    82 O5       3.1605   9.4202   4.3179   O.3       2 RES2   0.0000
    83 C43      2.2463   9.9973   5.2813   C.3       2 RES2   0.0000
    84 C44      0.9469  10.0753   4.4115   C.3       2 RES2   0.0000
    85 C45      1.3089   9.5001   3.2821   C.3       2 RES2   0.0000
    86 C46      2.4007   8.7026   3.4172   C.3       2 RES2   0.0000
    87 H33      2.5315  10.8566   5.5660   H         2 RES2   0.0000
    88 H34      2.1316   9.4336   6.0381   H         2 RES2   0.0000
    89 H35      0.6834  10.9758   4.2687   H         2 RES2   0.0000
    90 H36      0.2318   9.5998   4.8227   H         2 RES2   0.0000
    91 H37      1.5134  10.1784   2.6517   H         2 RES2   0.0000
    92 H38      0.5898   8.9721   2.9655   H         2 RES2   0.0000
    93 H39      2.1615   7.8492   3.7619   H         2 RES2   0.0000
    94 H40      2.8515   8.5925   2.5880   H         2 RES2   0.0000
    95 C47     -1.2098   7.4744   1.0232   C.ar      3 RES3   0.0000
    96 C48     -1.7678   8.6529   0.9557   C.ar      3 RES3   0.0000
    97 C49     -0.4698   7.2360   0.0869   C.ar      3 RES3   0.0000
    98 C49A    -2.5056   8.9752  -0.0869   C.ar      3 RES3   0.0000
    99 C48A    -1.2075   7.5583  -0.9557   C.ar      3 RES3   0.0000
   100 C47A    -1.7656   8.7369  -1.0232   C.ar      3 RES3   0.0000
@<TRIPOS>BOND
     1     1     2    1
     2     2     3    1
     3     3     4   un
     4     4     5   un
     5     5     1    1
     6     6     4    1
     7     7     6   ar
     8     8     7   ar
     9     9     8   ar
    10    10     9   ar
    11    11     6   ar
    12    12     2    1
    13    13    12   ar
    14    14    13   ar
    15    15    14   ar
    16    16    15   ar
    17    17    12   ar
    18    18     2    1
    19    19    18   ar
    20    20    19   ar
    21    21    20   ar
    22    22    21   ar
    23    23    18   ar
    24    24     1    1
    25    25    24    3
    26    26     1    1
    27    27    26    1
    28    28    27   un
    29    29     1    1
    30    30    28    1
    31    31    30   ar
    32    32    31   ar
    33    33    32   ar
    34    34    33   ar
    35    35    30   ar
    36    36    26    1
    37    37    36   ar
    38    38    37   ar
    39    39    38   ar
    40    40    39   ar
    41    41    36   ar
    42    42    26    1
    43    43    42   ar
    44    44    43   ar
    45    45    44   ar
    46    46    45   ar
    47    47    42   ar
    48    48     1    1
    49    49    48    3
    50    50     3    1
    51    51     7    1
    52    52     8    1
    53    53     9    1
    54    54    10    1
    55    55    11    1
    56    56    13    1
    57    57    14    1
    58    58    15    1
    59    59    16    1
    60    60    17    1
    61    61    19    1
    62    62    20    1
    63    63    21    1
    64    64    22    1
    65    65    23    1
    66    66    27    1
    67    67    31    1
    68    68    32    1
    69    69    33    1
    70    70    34    1
    71    71    35    1
    72    72    37    1
    73    73    38    1
    74    74    39    1
    75    75    40    1
    76    76    41    1
    77    77    43    1
    78    78    44    1
    79    79    45    1
    80    80    46    1
    81    81    47    1
    82    10    11   ar
    83    16    17   ar
    84    22    23   ar
    85    28    29   un
    86    34    35   ar
    87    40    41   ar
    88    46    47   ar
    89    82    83    1
    90    83    84    1
    91    84    85    1
    92    85    86    1
    93    86    82    1
    94    87    83    1
    95    88    83    1
    96    89    84    1
    97    90    84    1
    98    91    85    1
    99    92    85    1
   100    93    86    1
   101    94    86    1
   102    95    96   ar
   103    96    98   ar
   104    97    95   ar
   105    98   100   ar
   106    99    97   ar
   107   100    99   ar
@<TRIPOS>SUBSTRUCTURE
     1 RES1        1 GROUP             0 ****  ****    0  
     2 RES2       82 GROUP             0 ****  ****    0  
     3 RES3       95 GROUP             0 ****  ****    0  
@<TRIPOS>CRYSIN
   13.0900   16.4820   10.2740   92.9800  108.8700  100.4000     2     1
