@<TRIPOS>MOLECULE
PARVEK
    95   102     5     0     0
SMALL
USER_CHARGES
****
Generated from the CSD

@<TRIPOS>ATOM
     1 Fe1      1.0066   7.6084  15.8570   Fe        1 RES1   2.0000
     2 N1       2.7993   6.9965  16.4196   N.ar      1 RES1   0.0000
     3 N2       1.0364   8.3220  17.5982   N.ar      1 RES1   0.0000
     4 N3      -0.7964   8.4255  15.9039   N.ar      1 RES1   0.0000
     5 N4       0.2507   5.8525  16.2703   N.ar      1 RES1   0.0000
     6 N5       0.9955   6.8913  14.1432   N.ar      1 RES1   0.0000
     7 N6       1.7648   9.1356  14.8649   N.ar      1 RES1   0.0000
     8 N7       1.4781  11.4948  23.8634   N.ar      1 RES1   0.0000
     9 N8       1.0767   4.0073   7.7078   N.ar      1 RES1   0.0000
    10 O1       1.6228  12.0690  24.9784   O.3       1 RES1   0.0000
    11 O2       1.0596   3.4044   6.6106   O.3       1 RES1   0.0000
    12 C1       3.6592   6.2436  15.7255   C.ar      1 RES1   0.0000
    13 H1       3.4308   5.9757  14.8645   H         1 RES1   0.0000
    14 C2       4.8779   5.8520  16.2486   C.ar      1 RES1   0.0000
    15 H2       5.4674   5.3513  15.7332   H         1 RES1   0.0000
    16 C3       5.2111   6.2015  17.5192   C.ar      1 RES1   0.0000
    17 H3       6.0251   5.9276  17.8772   H         1 RES1   0.0000
    18 C4       4.3424   6.9619  18.2796   C.ar      1 RES1   0.0000
    19 H4       4.5526   7.2053  19.1524   H         1 RES1   0.0000
    20 C5       3.1435   7.3495  17.6938   C.ar      1 RES1   0.0000
    21 C6       2.1246   8.1536  18.3764   C.ar      1 RES1   0.0000
    22 C7       2.2083   8.7105  19.6390   C.ar      1 RES1   0.0000
    23 H5       2.9669   8.5797  20.1602   H         1 RES1   0.0000
    24 C8       1.1487   9.4650  20.1204   C.ar      1 RES1   0.0000
    25 C9       0.0219   9.6068  19.3048   C.ar      1 RES1   0.0000
    26 H6      -0.7103  10.0936  19.6082   H         1 RES1   0.0000
    27 C10     -0.0083   9.0288  18.0522   C.ar      1 RES1   0.0000
    28 C11     -1.0994   9.0637  17.0658   C.ar      1 RES1   0.0000
    29 C12     -2.3073   9.6729  17.2620   C.ar      1 RES1   0.0000
    30 H7      -2.4889  10.1042  18.0655   H         1 RES1   0.0000
    31 C13     -3.2562   9.6430  16.2587   C.ar      1 RES1   0.0000
    32 H8      -4.0840  10.0525  16.3730   H         1 RES1   0.0000
    33 C14     -2.9502   8.9977  15.0962   C.ar      1 RES1   0.0000
    34 H9      -3.5765   8.9613  14.4087   H         1 RES1   0.0000
    35 C15     -1.7372   8.4083  14.9351   C.ar      1 RES1   0.0000
    36 H10     -1.5483   7.9802  14.1306   H         1 RES1   0.0000
    37 C16      2.2337  10.4090  23.6103   C.ar      1 RES1   0.0000
    38 H11      2.8363  10.1198  24.2577   H         1 RES1   0.0000
    39 C17      2.1430   9.7027  22.4078   C.ar      1 RES1   0.0000
    40 H12      2.6810   8.9602  22.2550   H         1 RES1   0.0000
    41 C18      1.2287  10.1312  21.4346   C.ar      1 RES1   0.0000
    42 C19      0.4738  11.2415  21.7372   C.ar      1 RES1   0.0000
    43 H13     -0.1459  11.5566  21.1188   H         1 RES1   0.0000
    44 C20      0.6218  11.8906  22.9384   C.ar      1 RES1   0.0000
    45 H14      0.0974  12.6398  23.1066   H         1 RES1   0.0000
    46 C21     -0.0716   5.3599  17.4809   C.ar      1 RES1   0.0000
    47 H15      0.0762   5.8939  18.2281   H         1 RES1   0.0000
    48 C22     -0.6086   4.1087  17.6679   C.ar      1 RES1   0.0000
    49 H16     -0.7917   3.7951  18.5234   H         1 RES1   0.0000
    50 C23     -0.8704   3.3249  16.5615   C.ar      1 RES1   0.0000
    51 H17     -1.2648   2.4890  16.6554   H         1 RES1   0.0000
    52 C24     -0.5407   3.8009  15.3273   C.ar      1 RES1   0.0000
    53 H18     -0.7084   3.2800  14.5756   H         1 RES1   0.0000
    54 C25      0.0388   5.0446  15.1792   C.ar      1 RES1   0.0000
    55 C26      0.5125   5.6442  13.9230   C.ar      1 RES1   0.0000
    56 C27      0.5514   5.0862  12.6670   C.ar      1 RES1   0.0000
    57 H19      0.2297   4.2231  12.5429   H         1 RES1   0.0000
    58 C28      1.0497   5.7729  11.6027   C.ar      1 RES1   0.0000
    59 C29      1.5474   7.0615  11.8199   C.ar      1 RES1   0.0000
    60 H20      1.9036   7.5522  11.1136   H         1 RES1   0.0000
    61 C30      1.5046   7.5994  13.0857   C.ar      1 RES1   0.0000
    62 C31      1.9727   8.9190  13.5413   C.ar      1 RES1   0.0000
    63 C32      2.5662   9.8627  12.7314   C.ar      1 RES1   0.0000
    64 H21      2.7218   9.6770  11.8325   H         1 RES1   0.0000
    65 C33      2.9250  11.0731  13.2524   C.ar      1 RES1   0.0000
    66 H22      3.3282  11.7170  12.7162   H         1 RES1   0.0000
    67 C34      2.6806  11.3262  14.5906   C.ar      1 RES1   0.0000
    68 H23      2.9005  12.1501  14.9629   H         1 RES1   0.0000
    69 C35      2.1077  10.3441  15.3598   C.ar      1 RES1   0.0000
    70 H24      1.9491  10.5174  16.2596   H         1 RES1   0.0000
    71 C36      0.3358   3.4839   8.6780   C.ar      1 RES1   0.0000
    72 H25     -0.1638   2.7177   8.5074   H         1 RES1   0.0000
    73 C37      0.2920   4.0531   9.9282   C.ar      1 RES1   0.0000
    74 H26     -0.2627   3.6893  10.5808   H         1 RES1   0.0000
    75 C38      1.0823   5.1873  10.2355   C.ar      1 RES1   0.0000
    76 C39      1.8458   5.6711   9.2195   C.ar      1 RES1   0.0000
    77 H27      2.3973   6.4069   9.3633   H         1 RES1   0.0000
    78 C40      1.8062   5.0727   7.9661   C.ar      1 RES1   0.0000
    79 H28      2.3149   5.4412   7.2792   H         1 RES1   0.0000
    80 B1       5.8631   6.0759  12.1725   B         2 RES2  -1.0000
    81 F1       4.7164   6.6245  12.5664   F         2 RES2   0.0000
    82 F2       6.1737   5.1706  13.1031   F         2 RES2   0.0000
    83 F3       5.5245   5.4802  11.0511   F         2 RES2   0.0000
    84 F4       6.7484   7.0239  11.8978   F         2 RES2   0.0000
    85 B2      -1.1252  14.6321  20.7891   B         3 RES3  -1.0000
    86 F5      -0.9483  14.4242  22.0817   F         3 RES3   0.0000
    87 F6      -2.3564  15.0636  20.6543   F         3 RES3   0.0000
    88 F7      -0.9120  13.9367  19.6809   F         3 RES3   0.0000
    89 F8      -0.4525  15.7581  20.5967   F         3 RES3   0.0000
    90 O3       1.0583   4.5652   4.2432   O.3       4 RES4   0.0000
    91 H29      0.8652   3.7624   4.8100   H         4 RES4   0.0000
    92 H30      1.7184   4.4300   3.5027   H         4 RES4   0.0000
    93 O4       6.9238   7.0668  20.3357   O.3       5 RES5   0.0000
    94 H31      6.4185   7.0598  21.1916   H         5 RES5   0.0000
    95 H32      7.4025   6.2597  20.0532   H         5 RES5   0.0000
@<TRIPOS>BOND
     1     1     2    1
     2     2    12   ar
     3     3     1    1
     4     4     1    1
     5     5     1    1
     6     6     1    1
     7     7     1    1
     8     8    10    1
     9     9    11    1
    10    12    13    1
    11    14    12   ar
    12    15    14    1
    13    16    14   ar
    14    17    16    1
    15    18    16   ar
    16    19    18    1
    17    20     2   ar
    18    21     3   ar
    19    22    21   ar
    20    23    22    1
    21    24    22   ar
    22    25    24   ar
    23    26    25    1
    24    27     3   ar
    25    28     4   ar
    26    29    28   ar
    27    30    29    1
    28    31    29   ar
    29    32    31    1
    30    33    31   ar
    31    34    33    1
    32    35     4   ar
    33    36    35    1
    34    37     8   ar
    35    38    37    1
    36    39    37   ar
    37    40    39    1
    38    41    24    1
    39    42    41   ar
    40    43    42    1
    41    44     8   ar
    42    45    44    1
    43    46     5   ar
    44    47    46    1
    45    48    46   ar
    46    49    48    1
    47    50    48   ar
    48    51    50    1
    49    52    50   ar
    50    53    52    1
    51    54     5   ar
    52    55     6   ar
    53    56    55   ar
    54    57    56    1
    55    58    56   ar
    56    59    58   ar
    57    60    59    1
    58    61     6   ar
    59    62     7   ar
    60    63    62   ar
    61    64    63    1
    62    65    63   ar
    63    66    65    1
    64    67    65   ar
    65    68    67    1
    66    69     7   ar
    67    70    69    1
    68    71     9   ar
    69    72    71    1
    70    73    71   ar
    71    74    73    1
    72    75    58    1
    73    76    75   ar
    74    77    76    1
    75    78     9   ar
    76    79    78    1
    77    18    20   ar
    78    20    21    1
    79    25    27   ar
    80    27    28    1
    81    33    35   ar
    82    39    41   ar
    83    42    44   ar
    84    52    54   ar
    85    54    55    1
    86    59    61   ar
    87    61    62    1
    88    67    69   ar
    89    73    75   ar
    90    76    78   ar
    91    80    81    1
    92    82    80    1
    93    83    80    1
    94    84    80    1
    95    85    86    1
    96    87    85    1
    97    88    85    1
    98    89    85    1
    99    90    91    1
   100    92    90    1
   101    93    94    1
   102    95    93    1
@<TRIPOS>SUBSTRUCTURE
     1 RES1        1 GROUP             0 ****  ****    0  
     2 RES2       80 GROUP             0 ****  ****    0  
     3 RES3       85 GROUP             0 ****  ****    0  
     4 RES4       90 GROUP             0 ****  ****    0  
     5 RES5       93 GROUP             0 ****  ****    0  
@<TRIPOS>CRYSIN
    8.9330   10.6440   21.8160   97.3820   96.1350  105.5750     2     1
