@<TRIPOS>MOLECULE
PASFAR01
    78    80     6     0     0
SMALL
USER_CHARGES
****
Generated from the CSD

@<TRIPOS>ATOM
     1 Fe1      7.5748   6.0270   4.1269   Fe        1 RES1   2.0000
     2 N1       7.9209   4.5847   7.7539   N.4       1 RES1   1.0000
     3 N2       7.6191   7.1922   5.6970   N.2       1 RES1   0.0000
     4 N3       6.1878   7.2969   3.6007   N.2       1 RES1   0.0000
     5 N4       5.1512   9.1987   4.0268   N.pl3     1 RES1   0.0000
     6 H5       4.9108   9.9432   4.4321   H         1 RES1   0.0000
     7 N5       9.1285   4.9653   4.6634   N.2       1 RES1   0.0000
     8 N6       8.9821   7.0885   3.2471   N.2       1 RES1   0.0000
     9 N7      11.1157   7.2071   2.6916   N.pl3     1 RES1   0.0000
    10 H6      11.9705   7.0062   2.6288   H         1 RES1   0.0000
    11 N8       6.2983   4.7680   4.8712   N.2       1 RES1   0.0000
    12 N9       7.2969   4.9023   2.5377   N.2       1 RES1   0.0000
    13 N10      6.2773   3.1605   1.6524   N.pl3     1 RES1   0.0000
    14 H7       5.7542   2.4575   1.5691   H         1 RES1   0.0000
    15 C1       8.0691   4.0103   9.1613   C.3       1 RES1   0.0000
    16 H8       8.0553   3.0313   9.1170   H         1 RES1   0.0000
    17 H9       7.3278   4.3224   9.7231   H         1 RES1   0.0000
    18 H10      8.9196   4.3071   9.5483   H         1 RES1   0.0000
    19 C2       7.9578   6.1028   7.9592   C.3       1 RES1   0.0000
    20 H11      7.0332   6.3935   8.1614   H         1 RES1   0.0000
    21 H12      8.4951   6.2757   8.7712   H         1 RES1   0.0000
    22 C3       8.4906   7.0168   6.8642   C.3       1 RES1   0.0000
    23 H13      8.6640   7.9074   7.2579   H         1 RES1   0.0000
    24 H14      9.3580   6.6563   6.5515   H         1 RES1   0.0000
    25 C4       6.8766   8.2460   5.6476   C.2       1 RES1   0.0000
    26 H15      6.8712   8.9147   6.3247   H         1 RES1   0.0000
    27 C5       6.0599   8.3062   4.4682   C.2       1 RES1   0.0000
    28 C6       4.6715   8.7321   2.8336   C.2       1 RES1   0.0000
    29 H16      4.0144   9.1468   2.2867   H         1 RES1   0.0000
    30 C7       5.3182   7.5549   2.5760   C.2       1 RES1   0.0000
    31 H17      5.1859   7.0062   1.8108   H         1 RES1   0.0000
    32 C8       9.1340   4.0148   7.0136   C.3       1 RES1   0.0000
    33 H18      9.8942   4.6229   7.1910   H         1 RES1   0.0000
    34 H19      9.3552   3.1502   7.4401   H         1 RES1   0.0000
    35 C9       9.0970   3.7732   5.5096   C.3       1 RES1   0.0000
    36 H20      9.8690   3.2021   5.2687   H         1 RES1   0.0000
    37 H21      8.2745   3.2645   5.2984   H         1 RES1   0.0000
    38 C10     10.2572   5.3080   4.1346   C.2       1 RES1   0.0000
    39 H22     11.0615   4.8161   4.2536   H         1 RES1   0.0000
    40 C11     10.1743   6.5066   3.3497   C.2       1 RES1   0.0000
    41 C12      9.1745   8.2172   2.4890   C.2       1 RES1   0.0000
    42 H23      8.5021   8.8440   2.2495   H         1 RES1   0.0000
    43 C13     10.4953   8.2879   2.1376   C.2       1 RES1   0.0000
    44 H24     10.9037   8.9642   1.6100   H         1 RES1   0.0000
    45 C14      6.5685   4.0568   7.2773   C.3       1 RES1   0.0000
    46 H25      6.7176   3.1455   6.9196   H         1 RES1   0.0000
    47 H26      5.9915   3.9620   8.0759   H         1 RES1   0.0000
    48 C15      5.7706   4.8253   6.2328   C.3       1 RES1   0.0000
    49 H27      4.8452   4.4732   6.2243   H         1 RES1   0.0000
    50 H28      5.7248   5.7739   6.5106   H         1 RES1   0.0000
    51 C16      5.8471   3.8534   4.0748   C.2       1 RES1   0.0000
    52 H29      5.1984   3.2080   4.3317   H         1 RES1   0.0000
    53 C17      6.4304   3.9154   2.7600   C.2       1 RES1   0.0000
    54 C18      7.7084   4.7713   1.2385   C.2       1 RES1   0.0000
    55 H30      8.3275   5.3403   0.7957   H         1 RES1   0.0000
    56 C19      7.0843   3.6898   0.6834   C.2       1 RES1   0.0000
    57 H31      7.1909   3.3670  -0.2045   H         1 RES1   0.0000
    58 Cl1      4.5039   0.0355   0.5613   Cl        2 RES2   0.0000
    59 O1       4.4151   1.0709  -0.4045   O.3       2 RES2  -1.0000
    60 O2       3.2499  -0.6362   0.7020   O.2       2 RES2   0.0000
    61 O3       5.5118  -0.8977   0.1967   O.2       2 RES2   0.0000
    62 O4       4.8530   0.6335   1.8409   O.2       2 RES2   0.0000
    63 Cl2      3.4322   7.5006   7.7524   Cl        3 RES3   0.0000
    64 O5       3.2640   6.1049   8.0012   O.3       3 RES3  -1.0000
    65 O6       2.7379   7.8108   6.5191   O.2       3 RES3   0.0000
    66 O7       4.8182   7.7940   7.5755   O.2       3 RES3   0.0000
    67 O8       2.8804   8.2888   8.8181   O.2       3 RES3   0.0000
    68 Cl3      8.0587   0.0604   6.7539   Cl        4 RES4   0.0000
    69 O9       6.9849  -0.2545   5.8409   O.3       4 RES4  -1.0000
    70 O10      8.5882  -1.1807   7.2215   O.2       4 RES4   0.0000
    71 O11      9.0937   0.8090   6.1038   O.2       4 RES4   0.0000
    72 O12      7.5237   0.8143   7.8305   O.2       4 RES4   0.0000
    73 O13     13.4884   5.8540   3.0262   O.3       5 RES5   0.0000
    74 H1      13.7256   6.6209   3.3613   H         5 RES5   0.0000
    75 H2      14.0049   5.7609   2.4168   H         5 RES5   0.0000
    76 O14      3.9943  11.6079   4.5857   O.3       6 RES6   0.0000
    77 H3       4.0074  12.0637   3.9078   H         6 RES6   0.0000
    78 H4       4.2448  12.1226   5.1757   H         6 RES6   0.0000
@<TRIPOS>BOND
     1     1     3    1
     2     2    15    1
     3     3    22    1
     4     4     1    1
     5     5     6    1
     6     7     1    1
     7     8     1    1
     8     9    10    1
     9    11     1    1
    10    12     1    1
    11    13    14    1
    12    15    16    1
    13    17    15    1
    14    18    15    1
    15    19     2    1
    16    20    19    1
    17    21    19    1
    18    22    19    1
    19    23    22    1
    20    24    22    1
    21    25     3    2
    22    26    25    1
    23    27     4    2
    24    28     5    1
    25    29    28    1
    26    30     4    1
    27    31    30    1
    28    32     2    1
    29    33    32    1
    30    34    32    1
    31    35     7    1
    32    36    35    1
    33    37    35    1
    34    38     7    2
    35    39    38    1
    36    40     8    2
    37    41     8    1
    38    42    41    1
    39    43     9    1
    40    44    43    1
    41    45     2    1
    42    46    45    1
    43    47    45    1
    44    48    11    1
    45    49    48    1
    46    50    48    1
    47    51    11    2
    48    52    51    1
    49    53    12    2
    50    54    12    1
    51    55    54    1
    52    56    13    1
    53    57    56    1
    54     5    27    1
    55     9    40    1
    56    13    53    1
    57    25    27    1
    58    28    30    2
    59    32    35    1
    60    38    40    1
    61    41    43    2
    62    45    48    1
    63    51    53    1
    64    54    56    2
    65    58    59    1
    66    60    58    2
    67    61    58    2
    68    62    58    2
    69    63    64    1
    70    65    63    2
    71    66    63    2
    72    67    63    2
    73    68    69    1
    74    70    68    2
    75    71    68    2
    76    72    68    2
    77    73    74    1
    78    75    73    1
    79    76    77    1
    80    78    76    1
@<TRIPOS>SUBSTRUCTURE
     1 RES1        1 GROUP             0 ****  ****    0  
     2 RES2       58 GROUP             0 ****  ****    0  
     3 RES3       63 GROUP             0 ****  ****    0  
     4 RES4       68 GROUP             0 ****  ****    0  
     5 RES5       73 GROUP             0 ****  ****    0  
     6 RES6       76 GROUP             0 ****  ****    0  
@<TRIPOS>CRYSIN
   13.9630   11.7810   37.1820   90.0000   90.0000   90.0000    61     1
