@<TRIPOS>MOLECULE
PASQOR
   103   116     1     0     0
SMALL
NO_CHARGES
****
Generated from the CSD

@<TRIPOS>ATOM
     1 Fe1      7.9507   4.8547   0.0000   Fe        1 RES1   0.0000
     2 N1       7.3112   3.4241   1.2543   N.2       1 RES1   0.0000
     3 N2       9.5789   5.1095   1.1277   N.2       1 RES1   0.0000
     4 C1       5.1313   2.9072   0.2124   C.2       1 RES1   0.0000
     5 C2       6.1122   2.7432   1.1938   C.2       1 RES1   0.0000
     6 C3       5.9813   1.8606   2.3274   C.2       1 RES1   0.0000
     7 H1       5.2560   1.2739   2.5062   H         1 RES1   0.0000
     8 C4       7.0870   2.0258   3.0886   C.2       1 RES1   0.0000
     9 H2       7.2874   1.5765   3.9012   H         1 RES1   0.0000
    10 C5       7.9038   3.0161   2.4269   C.2       1 RES1   0.0000
    11 C6       9.0928   3.5213   2.9557   C.2       1 RES1   0.0000
    12 C7       9.8740   4.4871   2.3201   C.2       1 RES1   0.0000
    13 C8      11.1594   4.9263   2.8089   C.2       1 RES1   0.0000
    14 H3      11.5814   4.6505   3.6141   H         1 RES1   0.0000
    15 C9      11.6491   5.8036   1.9058   C.2       1 RES1   0.0000
    16 H4      12.4867   6.2495   1.9465   H         1 RES1   0.0000
    17 C10     10.6549   5.9323   0.8678   C.2       1 RES1   0.0000
    18 C11      3.8638   2.1089   0.3531   C.ar      1 RES1   0.0000
    19 C12      2.7868   2.6333   1.0642   C.ar      1 RES1   0.0000
    20 H5       2.8427   3.5100   1.4253   H         1 RES1   0.0000
    21 C13      1.6298   1.8816   1.2499   C.ar      1 RES1   0.0000
    22 H6       0.8991   2.2502   1.7322   H         1 RES1   0.0000
    23 C14      1.5395   0.6026   0.7368   C.ar      1 RES1   0.0000
    24 H7       0.7605   0.0817   0.8905   H         1 RES1   0.0000
    25 C15      2.5898   0.0802  -0.0035   C.ar      1 RES1   0.0000
    26 H8       2.5244  -0.7910  -0.3756   H         1 RES1   0.0000
    27 C16      3.7419   0.8397  -0.1983   C.ar      1 RES1   0.0000
    28 H9       4.4550   0.4844  -0.7157   H         1 RES1   0.0000
    29 C17      9.5463   3.0535   4.3067   C.ar      1 RES1   0.0000
    30 C18     10.2351   1.8621   4.4835   C.ar      1 RES1   0.0000
    31 H10     10.3894   1.2906   3.7410   H         1 RES1   0.0000
    32 C19     10.7022   1.4995   5.7466   C.ar      1 RES1   0.0000
    33 H11     11.1772   0.6847   5.8581   H         1 RES1   0.0000
    34 C20     10.4776   2.3186   6.8373   C.ar      1 RES1   0.0000
    35 H12     10.8090   2.0739   7.6933   H         1 RES1   0.0000
    36 C21      9.7721   3.4892   6.6773   C.ar      1 RES1   0.0000
    37 H13      9.6032   4.0484   7.4259   H         1 RES1   0.0000
    38 C22      9.3079   3.8526   5.4196   C.ar      1 RES1   0.0000
    39 H14      8.8187   4.6608   5.3182   H         1 RES1   0.0000
    40 C23      5.7960   6.9547   4.2795   C.ar      1 RES1   0.0000
    41 H15      6.6380   6.5779   4.5098   H         1 RES1   0.0000
    42 C24      4.9279   7.3906   5.2651   C.ar      1 RES1   0.0000
    43 H16      5.1745   7.3085   6.1796   H         1 RES1   0.0000
    44 C25      3.7091   7.9449   4.9322   C.ar      1 RES1   0.0000
    45 H17      3.1205   8.2371   5.6188   H         1 RES1   0.0000
    46 C26      3.3425   8.0771   3.6152   C.ar      1 RES1   0.0000
    47 H18      2.5061   8.4677   3.3915   H         1 RES1   0.0000
    48 C27      4.1914   7.6390   2.6114   C.ar      1 RES1   0.0000
    49 H19      3.9372   7.7236   1.6999   H         1 RES1   0.0000
    50 C28      5.4186   7.0755   2.9466   C.ar      1 RES1   0.0000
    51 C29      6.2855   6.5611   1.9171   C.1       1 RES1   0.0000
    52 N3       6.9622   6.0727   1.1294   N.1       1 RES1   0.0000
    53 N1A      8.5902   6.2852  -1.2543   N.2       1 RES1   0.0000
    54 N2A      6.3225   4.5999  -1.1277   N.2       1 RES1   0.0000
    55 C1A     10.7701   6.8022  -0.2124   C.2       1 RES1   0.0000
    56 C2A      9.7891   6.9661  -1.1938   C.2       1 RES1   0.0000
    57 C3A      9.9200   7.8488  -2.3274   C.2       1 RES1   0.0000
    58 H1A     10.6454   8.4355  -2.5062   H         1 RES1   0.0000
    59 C4A      8.8144   7.6836  -3.0886   C.2       1 RES1   0.0000
    60 H2A      8.6139   8.1328  -3.9012   H         1 RES1   0.0000
    61 C5A      7.9976   6.6932  -2.4269   C.2       1 RES1   0.0000
    62 C6A      6.8086   6.1880  -2.9557   C.2       1 RES1   0.0000
    63 C7A      6.0274   5.2222  -2.3201   C.2       1 RES1   0.0000
    64 C8A      4.7420   4.7831  -2.8089   C.2       1 RES1   0.0000
    65 H3A      4.3200   5.0588  -3.6141   H         1 RES1   0.0000
    66 C9A      4.2523   3.9058  -1.9058   C.2       1 RES1   0.0000
    67 H4A      3.4147   3.4598  -1.9465   H         1 RES1   0.0000
    68 C10A     5.2465   3.7770  -0.8678   C.2       1 RES1   0.0000
    69 C11A    12.0376   7.6005  -0.3531   C.ar      1 RES1   0.0000
    70 C12A    13.1145   7.0760  -1.0642   C.ar      1 RES1   0.0000
    71 H5A     13.0587   6.1993  -1.4253   H         1 RES1   0.0000
    72 C13A    14.2716   7.8277  -1.2499   C.ar      1 RES1   0.0000
    73 H6A     15.0023   7.4591  -1.7322   H         1 RES1   0.0000
    74 C14A    14.3619   9.1068  -0.7368   C.ar      1 RES1   0.0000
    75 H7A     15.1409   9.6277  -0.8905   H         1 RES1   0.0000
    76 C15A    13.3116   9.6292   0.0035   C.ar      1 RES1   0.0000
    77 H8A     13.3770  10.5003   0.3756   H         1 RES1   0.0000
    78 C16A    12.1595   8.8697   0.1983   C.ar      1 RES1   0.0000
    79 H9A     11.4464   9.2249   0.7157   H         1 RES1   0.0000
    80 C17A     6.3550   6.6559  -4.3067   C.ar      1 RES1   0.0000
    81 C18A     5.6663   7.8473  -4.4835   C.ar      1 RES1   0.0000
    82 H10A     5.5120   8.4187  -3.7410   H         1 RES1   0.0000
    83 C19A     5.1991   8.2099  -5.7466   C.ar      1 RES1   0.0000
    84 H11A     4.7242   9.0247  -5.8581   H         1 RES1   0.0000
    85 C20A     5.4237   7.3907  -6.8373   C.ar      1 RES1   0.0000
    86 H12A     5.0923   7.6354  -7.6933   H         1 RES1   0.0000
    87 C21A     6.1292   6.2202  -6.6773   C.ar      1 RES1   0.0000
    88 H13A     6.2981   5.6610  -7.4259   H         1 RES1   0.0000
    89 C22A     6.5934   5.8568  -5.4196   C.ar      1 RES1   0.0000
    90 H14A     7.0826   5.0486  -5.3182   H         1 RES1   0.0000
    91 C23A    10.1054   2.7547  -4.2795   C.ar      1 RES1   0.0000
    92 H15A     9.2634   3.1315  -4.5098   H         1 RES1   0.0000
    93 C24A    10.9735   2.3187  -5.2651   C.ar      1 RES1   0.0000
    94 H16A    10.7269   2.4009  -6.1796   H         1 RES1   0.0000
    95 C25A    12.1922   1.7644  -4.9322   C.ar      1 RES1   0.0000
    96 H17A    12.7808   1.4722  -5.6188   H         1 RES1   0.0000
    97 C26A    12.5588   1.6322  -3.6152   C.ar      1 RES1   0.0000
    98 H18A    13.3953   1.2416  -3.3915   H         1 RES1   0.0000
    99 C27A    11.7099   2.0703  -2.6114   C.ar      1 RES1   0.0000
   100 H19A    11.9642   1.9857  -1.6999   H         1 RES1   0.0000
   101 C28A    10.4828   2.6338  -2.9466   C.ar      1 RES1   0.0000
   102 C29A     9.6159   3.1482  -1.9171   C.1       1 RES1   0.0000
   103 N3A      8.9391   3.6366  -1.1294   N.1       1 RES1   0.0000
@<TRIPOS>BOND
     1     1     2    1
     2     2     5    1
     3     3     1    1
     4     4     5    1
     5     5     6    2
     6     6     7    1
     7     8     6    1
     8     9     8    1
     9    10     2    1
    10    11    10    1
    11    12     3    1
    12    13    12    1
    13    14    13    1
    14    15    13    2
    15    16    15    1
    16    17     3    2
    17    18     4    1
    18    19    18   ar
    19    20    19    1
    20    21    19   ar
    21    22    21    1
    22    23    21   ar
    23    24    23    1
    24    25    23   ar
    25    26    25    1
    26    27    18   ar
    27    28    27    1
    28    29    11    1
    29    30    29   ar
    30    31    30    1
    31    32    30   ar
    32    33    32    1
    33    34    32   ar
    34    35    34    1
    35    36    34   ar
    36    37    36    1
    37    38    29   ar
    38    39    38    1
    39    40    41    1
    40    42    40   ar
    41    43    42    1
    42    44    42   ar
    43    45    44    1
    44    46    44   ar
    45    47    46    1
    46    48    46   ar
    47    49    48    1
    48    50    40   ar
    49    51    50    1
    50    52     1    1
    51    53     1    1
    52    54     1    1
    53    55    17    1
    54    56    53    1
    55    57    56    1
    56    58    57    1
    57    59    57    2
    58    60    59    1
    59    61    53    1
    60    62    61    2
    61    63    54    2
    62    64    63    1
    63    65    64    1
    64    66    64    2
    65    67    66    1
    66    68     4    2
    67    69    55    1
    68    70    69   ar
    69    71    70    1
    70    72    70   ar
    71    73    72    1
    72    74    72   ar
    73    75    74    1
    74    76    74   ar
    75    77    76    1
    76    78    69   ar
    77    79    78    1
    78    80    62    1
    79    81    80   ar
    80    82    81    1
    81    83    81   ar
    82    84    83    1
    83    85    83   ar
    84    86    85    1
    85    87    85   ar
    86    88    87    1
    87    89    80   ar
    88    90    89    1
    89    91    92    1
    90    93    91   ar
    91    94    93    1
    92    95    93   ar
    93    96    95    1
    94    97    95   ar
    95    98    97    1
    96    99    97   ar
    97   100    99    1
    98   101    91   ar
    99   102   101    1
   100   103     1    1
   101     8    10    2
   102    11    12    2
   103    15    17    1
   104    25    27   ar
   105    36    38   ar
   106    48    50   ar
   107    51    52    3
   108    54    68    1
   109    55    56    2
   110    59    61    1
   111    62    63    1
   112    66    68    1
   113    76    78   ar
   114    87    89   ar
   115    99   101   ar
   116   102   103    3
@<TRIPOS>SUBSTRUCTURE
     1 RES1        1 GROUP             0 ****  ****    0  
@<TRIPOS>CRYSIN
   10.7512   10.9907   11.0421   73.6870   72.9500   62.0570     2     1
