@<TRIPOS>MOLECULE
PAVDUL
    73    81     1     0     0
SMALL
NO_CHARGES
****
Generated from the CSD

@<TRIPOS>ATOM
     1 Fe1      6.5531   1.4069  11.2860   Fe        1 RES1   0.0000
     2 S1       7.1191   2.8224   9.6044   S.3       1 RES1   0.0000
     3 S2       4.7870   2.8039  11.6788   S.3       1 RES1   0.0000
     4 S3       7.7218   2.8167  12.6561   S.3       1 RES1   0.0000
     5 N1       8.1313   0.0885  10.9745   N.3       1 RES1   0.0000
     6 N2       6.0444   0.0956  12.8119   N.3       1 RES1   0.0000
     7 N3       5.4913   0.1056  10.0965   N.3       1 RES1   0.0000
     8 C1       7.7009  -0.9760  10.0220   C.3       1 RES1   0.0000
     9 C2       6.5191  -0.5108   9.1642   C.3       1 RES1   0.0000
    10 C3       4.8183  -0.9161  10.9226   C.3       1 RES1   0.0000
    11 C4       4.7583  -0.5037  12.3785   C.3       1 RES1   0.0000
    12 C5       7.0670  -0.9517  12.9586   C.3       1 RES1   0.0000
    13 C6       8.3896  -0.4980  12.3379   C.3       1 RES1   0.0000
    14 C7       9.4305   0.7862  10.5434   C.3       1 RES1   0.0000
    15 C8       9.4565   1.2913   9.1529   C.ar      1 RES1   0.0000
    16 C9      10.4374   0.9717   8.3291   C.ar      1 RES1   0.0000
    17 C10     10.5652   1.5339   7.0379   C.ar      1 RES1   0.0000
    18 C11      9.6626   2.4058   6.5233   C.ar      1 RES1   0.0000
    19 C12      8.5957   2.7739   7.4081   C.ar      1 RES1   0.0000
    20 C13      8.4991   2.2288   8.7241   C.ar      1 RES1   0.0000
    21 C14      9.7931   2.9879   5.1035   C.3       1 RES1   0.0000
    22 C15      8.4000   3.1791   4.4715   C.3       1 RES1   0.0000
    23 C16     10.6200   2.0219   4.2345   C.3       1 RES1   0.0000
    24 C17     10.5105   4.3463   5.1893   C.3       1 RES1   0.0000
    25 C18      4.4531   0.8119   9.2207   C.3       1 RES1   0.0000
    26 C19      3.2113   1.3327   9.8549   C.ar      1 RES1   0.0000
    27 C20      2.0061   0.9974   9.3516   C.ar      1 RES1   0.0000
    28 C21      0.8635   1.5339   9.8775   C.ar      1 RES1   0.0000
    29 C22      0.8035   2.4486  10.8594   C.ar      1 RES1   0.0000
    30 C23      2.1183   2.7439  11.2815   C.ar      1 RES1   0.0000
    31 C24      3.3078   2.2317  10.8774   C.ar      1 RES1   0.0000
    32 C25     -0.5035   3.0422  11.4214   C.3       1 RES1   0.0000
    33 C26     -1.6383   3.0065  10.3831   C.3       1 RES1   0.0000
    34 C27     -0.8870   2.1660  12.6290   C.3       1 RES1   0.0000
    35 C28     -0.2765   4.4919  11.8887   C.3       1 RES1   0.0000
    36 C29      5.7783   0.7020  14.1391   C.3       1 RES1   0.0000
    37 C30      6.9496   1.2571  14.9133   C.ar      1 RES1   0.0000
    38 C31      7.2261   0.9032  16.2044   C.ar      1 RES1   0.0000
    39 C32      8.0922   1.4868  16.9674   C.ar      1 RES1   0.0000
    40 C33      8.9270   2.5085  16.4505   C.ar      1 RES1   0.0000
    41 C34      8.7991   2.7939  15.1458   C.ar      1 RES1   0.0000
    42 C35      7.8522   2.2417  14.3106   C.ar      1 RES1   0.0000
    43 C36     10.0018   3.3347  17.2653   C.3       1 RES1   0.0000
    44 C37      9.7226   4.8415  17.1073   C.3       1 RES1   0.0000
    45 C38      9.9418   2.9537  18.7573   C.3       1 RES1   0.0000
    46 C39     11.3948   3.0051  16.7033   C.3       1 RES1   0.0000
    47 H1       8.4313  -1.2057   9.4441   H         1 RES1   0.0000
    48 H2       7.4296  -1.7508  10.5208   H         1 RES1   0.0000
    49 H3       6.8270   0.1527   8.5435   H         1 RES1   0.0000
    50 H4       6.1487  -1.2528   8.6812   H         1 RES1   0.0000
    51 H5       3.9339  -1.0773  10.5863   H         1 RES1   0.0000
    52 H6       5.3348  -1.7223  10.8639   H         1 RES1   0.0000
    53 H7       4.5574  -1.2657  12.9270   H         1 RES1   0.0000
    54 H8       4.0565   0.1455  12.4665   H         1 RES1   0.0000
    55 H9       7.2052  -1.1344  13.8908   H         1 RES1   0.0000
    56 H10      6.7774  -1.7508  12.5139   H         1 RES1   0.0000
    57 H11      8.9948  -1.2400  12.2521   H         1 RES1   0.0000
    58 H12      8.7861   0.1727  12.8976   H         1 RES1   0.0000
    59 H13     10.1609   0.1798  10.6811   H         1 RES1   0.0000
    60 H14      9.5400   1.5525  11.1099   H         1 RES1   0.0000
    61 H15     11.1183   0.3753   8.6473   H         1 RES1   0.0000
    62 H16     11.2905   1.2343   6.4872   H         1 RES1   0.0000
    63 H17      7.9409   3.4032   7.0966   H         1 RES1   0.0000
    64 H18      4.1635   0.1641   8.5751   H         1 RES1   0.0000
    65 H19      4.8913   1.5382   8.7715   H         1 RES1   0.0000
    66 H20      1.9617   0.4010   8.6022   H         1 RES1   0.0000
    67 H21      0.0235   1.2186   9.5389   H         1 RES1   0.0000
    68 H22      2.1730   3.3775  11.9993   H         1 RES1   0.0000
    69 H23      5.4157   0.0043  14.6876   H         1 RES1   0.0000
    70 H24      5.1287   1.3998  14.0353   H         1 RES1   0.0000
    71 H25      6.7513   0.1555  16.5769   H         1 RES1   0.0000
    72 H26      8.1783   1.2343  17.8883   H         1 RES1   0.0000
    73 H27      9.4096   3.4317  14.7711   H         1 RES1   0.0000
@<TRIPOS>BOND
     1     1     2    1
     2     2    20    1
     3     3     1    1
     4     4     1    1
     5     5     1    1
     6     6     1    1
     7     7     1    1
     8     8     5    1
     9     9     7    1
    10    10     7    1
    11    11     6    1
    12    12     6    1
    13    13     5    1
    14    14     5    1
    15    15    14    1
    16    16    15   ar
    17    17    16   ar
    18    18    17   ar
    19    19    18   ar
    20    20    15   ar
    21    21    18    1
    22    22    21    1
    23    23    21    1
    24    24    21    1
    25    25     7    1
    26    26    25    1
    27    27    26   ar
    28    28    27   ar
    29    29    28   ar
    30    30    29   ar
    31    31     3    1
    32    32    29    1
    33    33    32    1
    34    34    32    1
    35    35    32    1
    36    36     6    1
    37    37    36    1
    38    38    37   ar
    39    39    38   ar
    40    40    39   ar
    41    41    40   ar
    42    42     4    1
    43    43    40    1
    44    44    43    1
    45    45    43    1
    46    46    43    1
    47    47     8    1
    48    48     8    1
    49    49     9    1
    50    50     9    1
    51    51    10    1
    52    52    10    1
    53    53    11    1
    54    54    11    1
    55    55    12    1
    56    56    12    1
    57    57    13    1
    58    58    13    1
    59    59    14    1
    60    60    14    1
    61    61    16    1
    62    62    17    1
    63    63    19    1
    64    64    25    1
    65    65    25    1
    66    66    27    1
    67    67    28    1
    68    68    30    1
    69    69    36    1
    70    70    36    1
    71    71    38    1
    72    72    39    1
    73    73    41    1
    74     8     9    1
    75    10    11    1
    76    12    13    1
    77    19    20   ar
    78    26    31   ar
    79    30    31   ar
    80    37    42   ar
    81    41    42   ar
@<TRIPOS>SUBSTRUCTURE
     1 RES1        1 GROUP             0 ****  ****    0  
@<TRIPOS>CRYSIN
   26.0870   14.2690   22.5720   90.0000   90.0000   90.0000    45     1
