@<TRIPOS>MOLECULE
PAVGEZ
    76    79     4     0     0
SMALL
USER_CHARGES
****
Generated from the CSD

@<TRIPOS>ATOM
     1 Fe1      7.1396   8.9258   2.5342   Fe        1 RES1   2.0000
     2 O1      10.2803   6.4588   5.4238   O.3       1 RES1   0.0000
     3 N1       8.6676   8.5017   3.7484   N.3       1 RES1   0.0000
     4 N2       7.2497   7.0106   2.1117   N.ar      1 RES1   0.0000
     5 N3       8.5928   9.1834   1.2466   N.ar      1 RES1   0.0000
     6 N4       7.3752  10.7513   3.2024   N.ar      1 RES1   0.0000
     7 N5       5.6961   8.6240   3.7895   N.1       1 RES1   0.0000
     8 N6       5.7585   9.2958   1.2366   N.1       1 RES1   0.0000
     9 C1       6.3053   6.1714   1.6841   C.ar      1 RES1   0.0000
    10 C2       6.5566   4.8209   1.4921   C.ar      1 RES1   0.0000
    11 C3       7.8171   4.3309   1.7689   C.ar      1 RES1   0.0000
    12 C4       8.7911   5.1843   2.2276   C.ar      1 RES1   0.0000
    13 C5       8.4841   6.5194   2.3822   C.ar      1 RES1   0.0000
    14 C6       9.4379   7.6135   2.7823   C.3       1 RES1   0.0000
    15 C7       9.6732   8.4351   1.5632   C.ar      1 RES1   0.0000
    16 C8      10.8036   8.4215   0.7791   C.ar      1 RES1   0.0000
    17 C9      10.8211   9.1997  -0.3814   C.ar      1 RES1   0.0000
    18 C10      9.7181   9.9632  -0.6856   C.ar      1 RES1   0.0000
    19 C11      8.6146   9.9355   0.1396   C.ar      1 RES1   0.0000
    20 C12      6.5364  11.7903   3.0466   C.ar      1 RES1   0.0000
    21 C13      6.8006  13.0433   3.5352   C.ar      1 RES1   0.0000
    22 C14      7.9875  13.2555   4.2358   C.ar      1 RES1   0.0000
    23 C15      8.8286  12.1925   4.4290   C.ar      1 RES1   0.0000
    24 C16      8.5063  10.9484   3.9017   C.ar      1 RES1   0.0000
    25 C17      9.4119   9.7713   4.0650   C.3       1 RES1   0.0000
    26 C18      8.2802   7.7782   5.0211   C.3       1 RES1   0.0000
    27 C19      9.4313   7.4180   5.8925   C.2       1 RES1   0.0000
    28 C20      9.8180   7.8404   7.1203   C.2       1 RES1   0.0000
    29 C21     10.9990   7.1002   7.4370   C.2       1 RES1   0.0000
    30 C22     11.2385   6.3285   6.4123   C.2       1 RES1   0.0000
    31 C23      4.7460   8.5335   4.4016   C.1       1 RES1   0.0000
    32 C24      3.5072   8.4285   5.1645   C.3       1 RES1   0.0000
    33 C25      4.8806   9.4029   0.5547   C.1       1 RES1   0.0000
    34 C26      3.6839   9.5569  -0.2929   C.3       1 RES1   0.0000
    35 H1       5.4350   6.5082   1.5046   H         1 RES1   0.0000
    36 H2       5.8728   4.2429   1.1767   H         1 RES1   0.0000
    37 H3       8.0096   3.4093   1.6442   H         1 RES1   0.0000
    38 H4       9.6608   4.8606   2.4333   H         1 RES1   0.0000
    39 H5      10.2850   7.2594   3.1775   H         1 RES1   0.0000
    40 H6      11.5556   7.8940   1.0209   H         1 RES1   0.0000
    41 H7      11.5822   9.2013  -0.9499   H         1 RES1   0.0000
    42 H8       9.7171  10.5090  -1.4635   H         1 RES1   0.0000
    43 H9       7.8545  10.4609  -0.0823   H         1 RES1   0.0000
    44 H10      5.7226  11.6492   2.5766   H         1 RES1   0.0000
    45 H11      6.1852  13.7542   3.3981   H         1 RES1   0.0000
    46 H12      8.2069  14.1168   4.5711   H         1 RES1   0.0000
    47 H13      9.6326  12.3060   4.9227   H         1 RES1   0.0000
    48 H14      9.7497   9.7366   4.9962   H         1 RES1   0.0000
    49 H15     10.1892   9.8619   3.4592   H         1 RES1   0.0000
    50 H16      7.6595   8.3515   5.5360   H         1 RES1   0.0000
    51 H17      7.7934   6.9505   4.7805   H         1 RES1   0.0000
    52 H18      9.3913   8.4952   7.6613   H         1 RES1   0.0000
    53 H19     11.5090   7.1581   8.2372   H         1 RES1   0.0000
    54 H20     11.9850   5.7442   6.3525   H         1 RES1   0.0000
    55 H21      2.9388   9.2038   4.9750   H         1 RES1   0.0000
    56 H22      3.7134   8.4011   6.1218   H         1 RES1   0.0000
    57 H23      3.0355   7.6076   4.9102   H         1 RES1   0.0000
    58 H24      3.3653   8.6730  -0.5722   H         1 RES1   0.0000
    59 H25      3.9097  10.0886  -1.0845   H         1 RES1   0.0000
    60 H26      2.9800  10.0117   0.2157   H         1 RES1   0.0000
    61 N7      10.7458   2.6806   5.1109   N.1       2 RES2   0.0000
    62 C27     11.1153   0.7086   5.9810   C.3       2 RES2   0.0000
    63 C28     10.8270   1.9246   5.5659   C.1       2 RES2   0.0000
    64 H27     11.1393   0.0988   5.2131   H         2 RES2   0.0000
    65 H28     10.4320   0.4095   6.6142   H         2 RES2   0.0000
    66 H29     11.9911   0.7125   6.4210   H         2 RES2   0.0000
    67 Cl1      8.7130   0.1481   3.0327   Cl        3 RES3   0.0000
    68 O2       8.2828  -0.2478   4.3268   O.3       3 RES3  -1.0000
    69 O3       9.8454  -0.5795   2.7125   O.2       3 RES3   0.0000
    70 O4       7.6835  -0.0313   2.1416   O.2       3 RES3   0.0000
    71 O5       9.0640   1.5124   3.0940   O.2       3 RES3   0.0000
    72 Cl2      2.3800   5.3133   2.8048   Cl        4 RES4   0.0000
    73 O6       2.0096   6.6227   2.7935   O.3       4 RES4  -1.0000
    74 O7       1.3115   4.4926   2.4208   O.2       4 RES4   0.0000
    75 O8       3.4934   4.9903   2.1054   O.2       4 RES4   0.0000
    76 O9       2.6914   4.9875   4.1972   O.2       4 RES4   0.0000
@<TRIPOS>BOND
     1     1     3    1
     2     2    27    1
     3     3    14    1
     4     4     1    1
     5     5     1    1
     6     6     1    1
     7     7     1    1
     8     8     1    1
     9     9     4   ar
    10    10     9   ar
    11    11    10   ar
    12    12    11   ar
    13    13     4   ar
    14    14    13    1
    15    15     5   ar
    16    16    15   ar
    17    17    16   ar
    18    18    17   ar
    19    19     5   ar
    20    20     6   ar
    21    21    20   ar
    22    22    21   ar
    23    23    22   ar
    24    24     6   ar
    25    25     3    1
    26    26     3    1
    27    27    26    1
    28    28    27    2
    29    29    28    1
    30    30     2    1
    31    31     7    3
    32    32    31    1
    33    33     8    3
    34    34    33    1
    35    35     9    1
    36    36    10    1
    37    37    11    1
    38    38    12    1
    39    39    14    1
    40    40    16    1
    41    41    17    1
    42    42    18    1
    43    43    19    1
    44    44    20    1
    45    45    21    1
    46    46    22    1
    47    47    23    1
    48    48    25    1
    49    49    25    1
    50    50    26    1
    51    51    26    1
    52    52    28    1
    53    53    29    1
    54    54    30    1
    55    55    32    1
    56    56    32    1
    57    57    32    1
    58    58    34    1
    59    59    34    1
    60    60    34    1
    61    12    13   ar
    62    14    15    1
    63    18    19   ar
    64    23    24   ar
    65    24    25    1
    66    29    30    2
    67    61    63    3
    68    62    63    1
    69    64    62    1
    70    65    62    1
    71    66    62    1
    72    67    68    1
    73    69    67    2
    74    70    67    2
    75    71    67    2
    76    72    73    1
    77    74    72    2
    78    75    72    2
    79    76    72    2
@<TRIPOS>SUBSTRUCTURE
     1 RES1        1 GROUP             0 ****  ****    0  
     2 RES2       61 GROUP             0 ****  ****    0  
     3 RES3       67 GROUP             0 ****  ****    0  
     4 RES4       72 GROUP             0 ****  ****    0  
@<TRIPOS>CRYSIN
   10.7363   12.2921   12.6522   86.1620   80.1680   70.7330     2     1
