@<TRIPOS>MOLECULE
PAZHUV
   179   183     6     0     0
SMALL
USER_CHARGES
****
Generated from the CSD

@<TRIPOS>ATOM
     1 Fe1      1.3491   6.5062  11.2561   Fe        1 RES1   0.0000
     2 N1       3.4433   8.7550  10.8040   N.1       1 RES1   0.0000
     3 N2      -0.6501   8.0594   9.4834   N.1       1 RES1   0.0000
     4 N3       0.4183   8.1115  13.7320   N.1       1 RES1   0.0000
     5 N4      -0.7154   4.2335  11.6871   N.1       1 RES1   0.0000
     6 N5       3.2715   4.9389  13.1525   N.1       1 RES1   0.0000
     7 N6       2.3115   4.9660   8.7646   N.1       1 RES1   0.0000
     8 C1       2.6434   7.9365  10.9934   C.1       1 RES1  -1.0000
     9 C2       0.0836   7.4757  10.1409   C.1       1 RES1  -1.0000
    10 C3       0.7377   7.4540  12.7736   C.1       1 RES1   0.0000
    11 C4       0.0410   5.0758  11.5116   C.1       1 RES1  -1.0000
    12 C5       2.5781   5.5334  12.4170   C.1       1 RES1   0.0000
    13 C6       2.0047   5.5736   9.6756   C.1       1 RES1   0.0000
    14 N7       1.1679   2.5760   7.7124   N.4       2 RES2   1.0000
    15 H1       1.5159   3.3607   8.0180   H         2 RES2   0.0000
    16 N8       1.6646  -0.3706  14.6539   N.4       2 RES2   1.0000
    17 H2       1.3117  -1.1662  14.3867   H         2 RES2   0.0000
    18 C7       1.3962   2.5075   6.2155   C.3       2 RES2   0.0000
    19 H3       0.9385   1.7303   5.8561   H         2 RES2   0.0000
    20 H4       1.0168   3.2966   5.7976   H         2 RES2   0.0000
    21 C8       2.8455   2.4205   5.8784   C.ar      2 RES2   0.0000
    22 C9       3.4431   1.2119   5.5023   C.ar      2 RES2   0.0000
    23 H5       2.9217   0.4435   5.4521   H         2 RES2   0.0000
    24 C10      4.7812   1.1391   5.2125   C.ar      2 RES2   0.0000
    25 H6       5.1620   0.3261   4.9702   H         2 RES2   0.0000
    26 C11      5.5738   2.2966   5.2822   C.ar      2 RES2   0.0000
    27 H7       6.4812   2.2531   5.0844   H         2 RES2   0.0000
    28 C12      5.0008   3.4998   5.6471   C.ar      2 RES2   0.0000
    29 H8       5.5245   4.2661   5.6973   H         2 RES2   0.0000
    30 C13      3.6439   3.5661   5.9369   C.ar      2 RES2   0.0000
    31 H9       3.2637   4.3813   6.1737   H         2 RES2   0.0000
    32 C14     -0.2958   2.5433   8.0654   C.3       2 RES2   0.0000
    33 H10     -0.3944   2.7042   9.0182   H         2 RES2   0.0000
    34 H11     -0.6459   1.6586   7.8787   H         2 RES2   0.0000
    35 C15     -1.1193   3.5716   7.3048   C.ar      2 RES2   0.0000
    36 C16     -1.9306   3.1564   6.2712   C.ar      2 RES2   0.0000
    37 H12     -1.9550   2.2575   6.0372   H         2 RES2   0.0000
    38 C17     -2.7190   4.0780   5.5719   C.ar      2 RES2   0.0000
    39 H13     -3.2972   3.7792   4.9061   H         2 RES2   0.0000
    40 C18     -2.6443   5.4008   5.8561   C.ar      2 RES2   0.0000
    41 H14     -3.1466   6.0084   5.3630   H         2 RES2   0.0000
    42 C19     -1.8196   5.8540   6.8841   C.ar      2 RES2   0.0000
    43 H15     -1.7804   6.7594   7.0986   H         2 RES2   0.0000
    44 C20     -1.0520   4.9247   7.5917   C.ar      2 RES2   0.0000
    45 H16     -0.4851   5.2204   8.2659   H         2 RES2   0.0000
    46 C21      1.9096   1.4271   8.3969   C.3       2 RES2   0.0000
    47 H17      1.6846   0.5967   7.9456   H         2 RES2   0.0000
    48 H18      2.8651   1.5662   8.2966   H         2 RES2   0.0000
    49 C22      1.5932   1.2880   9.8484   C.ar      2 RES2   0.0000
    50 C23      1.9848   2.2108  10.8095   C.ar      2 RES2   0.0000
    51 H19      2.4131   2.9901  10.5365   H         2 RES2   0.0000
    52 C24      1.7668   2.0162  12.1273   C.ar      2 RES2   0.0000
    53 H20      2.0964   2.6270  12.7458   H         2 RES2   0.0000
    54 C25      1.0633   0.9217  12.5563   C.ar      2 RES2   0.0000
    55 C26      0.6368  -0.0293  11.6537   C.ar      2 RES2   0.0000
    56 H21      0.1750  -0.7826  11.9462   H         2 RES2   0.0000
    57 C27      0.9086   0.1533  10.2886   C.ar      2 RES2   0.0000
    58 H22      0.6302  -0.4858   9.6729   H         2 RES2   0.0000
    59 C28      0.8032   0.7260  14.0440   C.3       2 RES2   0.0000
    60 H23     -0.1327   0.5032  14.1722   H         2 RES2   0.0000
    61 H24      0.9767   1.5597  14.5065   H         2 RES2   0.0000
    62 C29      1.5843  -0.3337  16.1474   C.3       2 RES2   0.0000
    63 H25      2.1029   0.4206  16.4706   H         2 RES2   0.0000
    64 H26      1.9886  -1.1412  16.5013   H         2 RES2   0.0000
    65 C30      0.1860  -0.2196  16.6851   C.ar      2 RES2   0.0000
    66 C31     -0.2516   0.9489  17.3120   C.ar      2 RES2   0.0000
    67 H27      0.3209   1.6793  17.3788   H         2 RES2   0.0000
    68 C32     -1.5256   1.0336  17.8357   C.ar      2 RES2   0.0000
    69 H28     -1.7862   1.8140  18.2676   H         2 RES2   0.0000
    70 C33     -2.4230  -0.0109  17.7354   C.ar      2 RES2   0.0000
    71 H29     -3.2837   0.0489  18.0809   H         2 RES2   0.0000
    72 C34     -1.9675  -1.1706  17.0807   C.ar      2 RES2   0.0000
    73 H30     -2.5547  -1.8858  16.9832   H         2 RES2   0.0000
    74 C35     -0.7138  -1.2923  16.5848   C.ar      2 RES2   0.0000
    75 H31     -0.4486  -2.0868  16.1781   H         2 RES2   0.0000
    76 C36      3.0805  -0.3250  14.1527   C.3       2 RES2   0.0000
    77 H32      3.4190   0.5771  14.2641   H         2 RES2   0.0000
    78 H33      3.0792  -0.5228  13.2027   H         2 RES2   0.0000
    79 C37      4.0187  -1.2815  14.8408   C.ar      2 RES2   0.0000
    80 C38      5.0465  -0.7826  15.6710   C.ar      2 RES2   0.0000
    81 H34      5.1136   0.1293  15.8382   H         2 RES2   0.0000
    82 C39      5.9487  -1.6586  16.2338   C.ar      2 RES2   0.0000
    83 H35      6.6331  -1.3325  16.7715   H         2 RES2   0.0000
    84 C40      5.8465  -3.0194  16.0053   C.ar      2 RES2   0.0000
    85 H36      6.4465  -3.6118  16.3954   H         2 RES2   0.0000
    86 C41      4.8420  -3.4781  15.1891   C.ar      2 RES2   0.0000
    87 H37      4.7792  -4.3889  15.0135   H         2 RES2   0.0000
    88 C42      3.9350  -2.6270  14.6263   C.ar      2 RES2   0.0000
    89 H38      3.2537  -2.9662  14.0942   H         2 RES2   0.0000
    90 N9       5.5246   8.8778   8.8669   N.4       3 RES3   1.0000
    91 H39      4.8645   8.9039   9.4918   H         3 RES3   0.0000
    92 N10      8.8271   3.9085  13.4423   N.4       3 RES3   1.0000
    93 H40      9.4969   3.8976  12.8266   H         3 RES3   0.0000
    94 C43      6.6869   9.7169   9.3831   C.3       3 RES3   0.0000
    95 H41      6.9599   9.3778  10.2496   H         3 RES3   0.0000
    96 H42      7.4376   9.6223   8.7786   H         3 RES3   0.0000
    97 C44      6.3473  11.1690   9.5141   C.ar      3 RES3   0.0000
    98 C45      6.9252  12.0602   8.5613   C.ar      3 RES3   0.0000
    99 H43      7.4205  11.7092   7.8592   H         3 RES3   0.0000
   100 C46      6.7758  13.3939   8.6532   C.ar      3 RES3   0.0000
   101 H44      7.2191  13.9743   8.0765   H         3 RES3   0.0000
   102 C47      5.9411  13.8525   9.6311   C.ar      3 RES3   0.0000
   103 H45      5.7590  14.7644   9.6478   H         3 RES3   0.0000
   104 C48      5.3501  13.0667  10.5978   C.ar      3 RES3   0.0000
   105 H46      4.8282  13.4352  11.2720   H         3 RES3   0.0000
   106 C49      5.5790  11.6418  10.5086   C.ar      3 RES3   0.0000
   107 H47      5.2002  11.0625  11.1327   H         3 RES3   0.0000
   108 C50      4.9718   9.4756   7.5945   C.3       3 RES3   0.0000
   109 H48      5.6995   9.5875   6.9621   H         3 RES3   0.0000
   110 H49      4.6165  10.3560   7.7923   H         3 RES3   0.0000
   111 C51      3.8694   8.6365   6.9315   C.ar      3 RES3   0.0000
   112 C52      2.6244   8.5887   7.4357   C.ar      3 RES3   0.0000
   113 H50      2.4228   9.0539   8.2158   H         3 RES3   0.0000
   114 C53      1.6302   7.8387   6.7922   C.ar      3 RES3   0.0000
   115 H51      0.7711   7.7909   7.1460   H         3 RES3   0.0000
   116 C54      1.9401   7.1822   5.6416   C.ar      3 RES3   0.0000
   117 H52      1.2821   6.7007   5.1958   H         3 RES3   0.0000
   118 C55      3.2225   7.2225   5.1262   C.ar      3 RES3   0.0000
   119 H53      3.4203   6.7551   4.3489   H         3 RES3   0.0000
   120 C56      4.2054   7.9452   5.7530   C.ar      3 RES3   0.0000
   121 H54      5.0693   7.9768   5.4103   H         3 RES3   0.0000
   122 C57      5.9320   7.4333   8.6894   C.3       3 RES3   0.0000
   123 H55      6.5552   7.3681   7.9483   H         3 RES3   0.0000
   124 H56      5.1473   6.9083   8.4638   H         3 RES3   0.0000
   125 C58      6.5785   6.8518   9.9375   C.ar      3 RES3   0.0000
   126 C59      7.9361   6.8138  10.0796   C.ar      3 RES3   0.0000
   127 H57      8.4853   7.1029   9.3887   H         3 RES3   0.0000
   128 C60      8.4890   6.3475  11.2525   C.ar      3 RES3   0.0000
   129 H58      9.4138   6.3671  11.3500   H         3 RES3   0.0000
   130 C61      7.7249   5.8519  12.2889   C.ar      3 RES3   0.0000
   131 C62      6.3188   5.8725  12.1273   C.ar      3 RES3   0.0000
   132 H59      5.7703   5.5617  12.8099   H         3 RES3   0.0000
   133 C63      5.7535   6.3551  10.9488   C.ar      3 RES3   0.0000
   134 H60      4.8313   6.3475  10.8374   H         3 RES3   0.0000
   135 C64      8.3298   5.3454  13.5676   C.3       3 RES3   0.0000
   136 H61      7.6655   5.3910  14.2725   H         3 RES3   0.0000
   137 H62      9.0710   5.9182  13.8184   H         3 RES3   0.0000
   138 C65      9.3981   3.3911  14.7684   C.3       3 RES3   0.0000
   139 H63      8.6587   3.1879  15.3646   H         3 RES3   0.0000
   140 H64      9.8727   2.5629  14.5984   H         3 RES3   0.0000
   141 C66     10.3357   4.3476  15.4760   C.ar      3 RES3   0.0000
   142 C67     11.6230   4.5465  15.0693   C.ar      3 RES3   0.0000
   143 H65     11.9556   4.0802  14.3393   H         3 RES3   0.0000
   144 C68     12.4366   5.4443  15.7490   C.ar      3 RES3   0.0000
   145 H66     13.3131   5.5834  15.4704   H         3 RES3   0.0000
   146 C69     11.9425   6.1236  16.8300   C.ar      3 RES3   0.0000
   147 H67     12.4934   6.7149  17.2925   H         3 RES3   0.0000
   148 C70     10.6491   5.9432  17.2395   C.ar      3 RES3   0.0000
   149 H68     10.3243   6.4160  17.9722   H         3 RES3   0.0000
   150 C71      9.8226   5.0628  16.5709   C.ar      3 RES3   0.0000
   151 H69      8.9413   4.9443  16.8384   H         3 RES3   0.0000
   152 C72      7.7421   2.9814  12.9631   C.3       3 RES3   0.0000
   153 H70      7.0190   2.9879  13.6094   H         3 RES3   0.0000
   154 H71      7.3915   3.3172  12.1245   H         3 RES3   0.0000
   155 C73      8.1925   1.5814  12.7653   C.ar      3 RES3   0.0000
   156 C74      8.8576   1.2152  11.6007   C.ar      3 RES3   0.0000
   157 H72      9.0610   1.8586  10.9600   H         3 RES3   0.0000
   158 C75      9.2199  -0.1120  11.3918   C.ar      3 RES3   0.0000
   159 H73      9.6431  -0.3478  10.5978   H         3 RES3   0.0000
   160 C76      8.9664  -1.0771  12.3223   C.ar      3 RES3   0.0000
   161 H74      9.2438  -1.9553  12.1914   H         3 RES3   0.0000
   162 C77      8.3078  -0.7250  13.4311   C.ar      3 RES3   0.0000
   163 H75      8.0980  -1.3847  14.0524   H         3 RES3   0.0000
   164 C78      7.9164   0.6043  13.6986   C.ar      3 RES3   0.0000
   165 H76      7.4791   0.8173  14.4926   H         3 RES3   0.0000
   166 Cl1      7.9078   9.1191   5.5574   Cl        4 RES4  -1.0000
   167 O1      10.2097  10.2179   7.5806   O.3       5 RES5   0.0000
   168 H77     10.4627   9.5756   8.0821   H         5 RES5   0.0000
   169 H78      9.7196  10.0103   6.9120   H         5 RES5   0.0000
   170 O2       4.4242   2.8727  14.7071   O.3       6 RES6   0.0000
   171 H79      4.4716   3.5509  14.2502   H         6 RES6   0.0000
   172 O3       6.6696   2.8172  16.5988   O.3       6 RES6   0.0000
   173 H80      6.5993   2.3184  17.2451   H         6 RES6   0.0000
   174 C79      4.3028   3.2368  16.0917   C.3       6 RES6   0.0000
   175 H81      4.0386   2.4607  16.6099   H         6 RES6   0.0000
   176 H82      3.6137   3.9128  16.1892   H         6 RES6   0.0000
   177 C80      5.6220   3.7770  16.6210   C.3       6 RES6   0.0000
   178 H83      5.8865   4.5432  16.0889   H         6 RES6   0.0000
   179 H84      5.4943   4.0802  17.5348   H         6 RES6   0.0000
@<TRIPOS>BOND
     1     1     8    1
     2     2     8    3
     3     3     9    3
     4     4    10    3
     5     5    11    3
     6     6    12    3
     7     7    13    3
     8     9     1    1
     9    10     1    1
    10    11     1    1
    11    12     1    1
    12    13     1    1
    13    14    15    1
    14    16    17    1
    15    18    14    1
    16    19    18    1
    17    20    18    1
    18    21    18    1
    19    22    21   ar
    20    23    22    1
    21    24    22   ar
    22    25    24    1
    23    26    24   ar
    24    27    26    1
    25    28    26   ar
    26    29    28    1
    27    30    21   ar
    28    31    30    1
    29    32    14    1
    30    33    32    1
    31    34    32    1
    32    35    32    1
    33    36    35   ar
    34    37    36    1
    35    38    36   ar
    36    39    38    1
    37    40    38   ar
    38    41    40    1
    39    42    40   ar
    40    43    42    1
    41    44    35   ar
    42    45    44    1
    43    46    14    1
    44    47    46    1
    45    48    46    1
    46    49    46    1
    47    50    49   ar
    48    51    50    1
    49    52    50   ar
    50    53    52    1
    51    54    52   ar
    52    55    54   ar
    53    56    55    1
    54    57    49   ar
    55    58    57    1
    56    59    16    1
    57    60    59    1
    58    61    59    1
    59    62    16    1
    60    63    62    1
    61    64    62    1
    62    65    62    1
    63    66    65   ar
    64    67    66    1
    65    68    66   ar
    66    69    68    1
    67    70    68   ar
    68    71    70    1
    69    72    70   ar
    70    73    72    1
    71    74    65   ar
    72    75    74    1
    73    76    16    1
    74    77    76    1
    75    78    76    1
    76    79    76    1
    77    80    79   ar
    78    81    80    1
    79    82    80   ar
    80    83    82    1
    81    84    82   ar
    82    85    84    1
    83    86    84   ar
    84    87    86    1
    85    88    79   ar
    86    89    88    1
    87    28    30   ar
    88    42    44   ar
    89    54    59    1
    90    55    57   ar
    91    72    74   ar
    92    86    88   ar
    93    90    91    1
    94    92    93    1
    95    94    90    1
    96    95    94    1
    97    96    94    1
    98    97    94    1
    99    98    97   ar
   100    99    98    1
   101   100    98   ar
   102   101   100    1
   103   102   100   ar
   104   103   102    1
   105   104   102   ar
   106   105   104    1
   107   106    97   ar
   108   107   106    1
   109   108    90    1
   110   109   108    1
   111   110   108    1
   112   111   108    1
   113   112   111   ar
   114   113   112    1
   115   114   112   ar
   116   115   114    1
   117   116   114   ar
   118   117   116    1
   119   118   116   ar
   120   119   118    1
   121   120   111   ar
   122   121   120    1
   123   122    90    1
   124   123   122    1
   125   124   122    1
   126   125   122    1
   127   126   125   ar
   128   127   126    1
   129   128   126   ar
   130   129   128    1
   131   130   128   ar
   132   131   130   ar
   133   132   131    1
   134   133   125   ar
   135   134   133    1
   136   135    92    1
   137   136   135    1
   138   137   135    1
   139   138    92    1
   140   139   138    1
   141   140   138    1
   142   141   138    1
   143   142   141   ar
   144   143   142    1
   145   144   142   ar
   146   145   144    1
   147   146   144   ar
   148   147   146    1
   149   148   146   ar
   150   149   148    1
   151   150   141   ar
   152   151   150    1
   153   152    92    1
   154   153   152    1
   155   154   152    1
   156   155   152    1
   157   156   155   ar
   158   157   156    1
   159   158   156   ar
   160   159   158    1
   161   160   158   ar
   162   161   160    1
   163   162   160   ar
   164   163   162    1
   165   164   155   ar
   166   165   164    1
   167   104   106   ar
   168   118   120   ar
   169   130   135    1
   170   131   133   ar
   171   148   150   ar
   172   162   164   ar
   173   167   168    1
   174   169   167    1
   175   170   171    1
   176   172   173    1
   177   174   170    1
   178   175   174    1
   179   176   174    1
   180   177   172    1
   181   178   177    1
   182   179   177    1
   183   174   177    1
@<TRIPOS>SUBSTRUCTURE
     1 RES1        1 GROUP             0 ****  ****    0  
     2 RES2       14 GROUP             0 ****  ****    0  
     3 RES3       90 GROUP             0 ****  ****    0  
     4 RES4      166 GROUP             0 ****  ****    0  
     5 RES5      167 GROUP             0 ****  ****    0  
     6 RES6      170 GROUP             0 ****  ****    0  
@<TRIPOS>CRYSIN
   11.7200   10.8690   27.9880   90.0000   95.4900   90.0000     7     1
