@<TRIPOS>MOLECULE
PAZHOP
    91    90     5     0     0
SMALL
USER_CHARGES
****
Generated from the CSD

@<TRIPOS>ATOM
     1 Fe1     -0.5791   7.4192   4.3229   Fe        1 RES1   0.0000
     2 N1      -0.2737   7.4376   1.2743   N.1       1 RES1   0.0000
     3 N2      -0.5791   4.3626   4.3229   N.1       1 RES1   0.0000
     4 N3       2.4833   7.3966   4.7725   N.1       1 RES1   0.0000
     5 N4      -0.5791  10.5536   4.3229   N.1       1 RES1   0.0000
     6 C1      -0.3750   7.4029   2.4182   C.1       1 RES1   0.0000
     7 C2      -0.5791   5.4612   4.3229   C.1       1 RES1  -1.0000
     8 C3       1.3426   7.4234   4.5831   C.1       1 RES1   0.0000
     9 C4      -0.5791   9.3211   4.3229   C.1       1 RES1  -1.0000
    10 N1A     -0.8845   7.4376   7.3715   N.1       1 RES1   0.0000
    11 N3A     -3.6415   7.3966   3.8733   N.1       1 RES1   0.0000
    12 C1A     -0.7832   7.4029   6.2275   C.1       1 RES1   0.0000
    13 C3A     -2.5008   7.4234   4.0626   C.1       1 RES1  -1.0000
    14 N5       3.3857   7.3919   7.5458   N.4       2 RES2   1.0000
    15 H1       2.8663   7.3840   6.7990   H         2 RES2   0.0000
    16 C5       3.0195   8.6583   8.3138   C.3       2 RES2   0.0000
    17 H2       2.0777   8.6118   8.5394   H         2 RES2   0.0000
    18 H3       3.5163   8.6591   9.1464   H         2 RES2   0.0000
    19 C6       3.2734   9.9868   7.6117   C.ar      2 RES2   0.0000
    20 C7       4.3836  10.7332   7.9455   C.ar      2 RES2   0.0000
    21 H4       4.9835  10.4527   8.5991   H         2 RES2   0.0000
    22 C8       4.5683  11.9626   7.2339   C.ar      2 RES2   0.0000
    23 H5       5.3126  12.4827   7.4336   H         2 RES2   0.0000
    24 C9       3.7193  12.4008   6.2958   C.ar      2 RES2   0.0000
    25 H6       3.8647  13.2014   5.8454   H         2 RES2   0.0000
    26 C10      2.6538  11.6332   6.0330   C.ar      2 RES2   0.0000
    27 H7       2.0579  11.9500   5.3932   H         2 RES2   0.0000
    28 C11      2.3597  10.4417   6.6088   C.ar      2 RES2   0.0000
    29 H8       1.6095   9.9499   6.3667   H         2 RES2   0.0000
    30 C12      2.9716   6.1818   8.3760   C.3       2 RES2   0.0000
    31 H9       3.4635   6.1799   9.2121   H         2 RES2   0.0000
    32 H10      2.0261   6.2414   8.5852   H         2 RES2   0.0000
    33 C13      3.2378   4.9096   7.6368   C.ar      2 RES2   0.0000
    34 C14      2.3884   4.4178   6.7013   C.ar      2 RES2   0.0000
    35 H11      1.6220   4.9111   6.5137   H         2 RES2   0.0000
    36 C15      2.5841   3.1995   5.9846   C.ar      2 RES2   0.0000
    37 H12      1.9841   2.8937   5.3431   H         2 RES2   0.0000
    38 C16      3.7497   2.4965   6.3209   C.ar      2 RES2   0.0000
    39 H13      3.9359   1.6975   5.8826   H         2 RES2   0.0000
    40 C17      4.6460   2.9599   7.2996   C.ar      2 RES2   0.0000
    41 H14      5.4187   2.4855   7.5054   H         2 RES2   0.0000
    42 C18      4.3505   4.1136   7.9299   C.ar      2 RES2   0.0000
    43 H15      4.9242   4.4005   8.6043   H         2 RES2   0.0000
    44 C19      4.8161   7.3872   7.0728   C.3       2 RES2   0.0000
    45 H16      4.9727   6.5960   6.5353   H         2 RES2   0.0000
    46 H17      4.9686   8.1642   6.5111   H         2 RES2   0.0000
    47 C20      5.7746   7.4077   8.2022   C.1       2 RES2   0.0000
    48 N5A      8.9549   7.3919   9.7458   N.4       2 RES2   1.0000
    49 H1A      9.4743   7.3840  10.4925   H         2 RES2   0.0000
    50 C5A      9.3211   8.6583   8.9778   C.3       2 RES2   0.0000
    51 H2A     10.2629   8.6118   8.7521   H         2 RES2   0.0000
    52 H3A      8.8243   8.6591   8.1452   H         2 RES2   0.0000
    53 C6A      9.0672   9.9868   9.6798   C.ar      2 RES2   0.0000
    54 C7A      7.9570  10.7332   9.3461   C.ar      2 RES2   0.0000
    55 H4A      7.3571  10.4527   8.6925   H         2 RES2   0.0000
    56 C8A      7.7723  11.9626  10.0576   C.ar      2 RES2   0.0000
    57 H5A      7.0280  12.4827   9.8579   H         2 RES2   0.0000
    58 C9A      8.6213  12.4008  10.9957   C.ar      2 RES2   0.0000
    59 H6A      8.4759  13.2014  11.4461   H         2 RES2   0.0000
    60 C10A     9.6868  11.6332  11.2585   C.ar      2 RES2   0.0000
    61 H7A     10.2827  11.9500  11.8983   H         2 RES2   0.0000
    62 C11A     9.9809  10.4417  10.6827   C.ar      2 RES2   0.0000
    63 H8A     10.7311   9.9499  10.9248   H         2 RES2   0.0000
    64 C12A     9.3690   6.1818   8.9155   C.3       2 RES2   0.0000
    65 H9A      8.8771   6.1799   8.0795   H         2 RES2   0.0000
    66 H10A    10.3145   6.2414   8.7063   H         2 RES2   0.0000
    67 C13A     9.1028   4.9096   9.6547   C.ar      2 RES2   0.0000
    68 C14A     9.9522   4.4178  10.5902   C.ar      2 RES2   0.0000
    69 H11A    10.7186   4.9111  10.7778   H         2 RES2   0.0000
    70 C15A     9.7565   3.1995  11.3069   C.ar      2 RES2   0.0000
    71 H12A    10.3565   2.8937  11.9485   H         2 RES2   0.0000
    72 C16A     8.5909   2.4965  10.9706   C.ar      2 RES2   0.0000
    73 H13A     8.4047   1.6975  11.4090   H         2 RES2   0.0000
    74 C17A     7.6946   2.9599   9.9919   C.ar      2 RES2   0.0000
    75 H14A     6.9219   2.4855   9.7861   H         2 RES2   0.0000
    76 C18A     7.9901   4.1136   9.3616   C.ar      2 RES2   0.0000
    77 H15A     7.4164   4.4005   8.6873   H         2 RES2   0.0000
    78 C19A     7.5245   7.3872  10.2188   C.3       2 RES2   0.0000
    79 H16A     7.3679   6.5960  10.7562   H         2 RES2   0.0000
    80 H17A     7.3720   8.1642  10.7804   H         2 RES2   0.0000
    81 C20A     6.5660   7.4077   9.0893   C.1       2 RES2   0.0000
    82 O1      14.0779  13.3827   4.3229   O.3       3 RES3   1.0000
    83 H18     14.1292  13.1604   5.1218   H         3 RES3   0.0000
    84 H18A    14.0266  13.1604   3.5240   H         3 RES3   0.0000
    85 O2       6.7494   9.3069   4.3229   O.3       4 RES4   1.0000
    86 H19      6.7494  10.1627   4.3229   H         4 RES4   0.0000
    87 H20      7.0121   8.9381   5.0422   H         4 RES4   0.0000
    88 H20A     6.4867   8.9381   3.6036   H         4 RES4   0.0000
    89 O3       5.0176   7.4077   3.1064   O.3       5 RES5   0.0000
    90 H21      4.3899   7.0026   3.5223   H         5 RES5   0.0000
    91 H22      5.3727   8.0618   3.5275   H         5 RES5   0.0000
@<TRIPOS>BOND
     1     1     6    1
     2     2     6    3
     3     3     7    3
     4     4     8    3
     5     5     9    3
     6     7     1    1
     7     8     1    1
     8     9     1    1
     9    10    12    3
    10    11    13    3
    11    12     1    1
    12    13     1    1
    13    14    15    1
    14    16    14    1
    15    17    16    1
    16    18    16    1
    17    19    16    1
    18    20    19   ar
    19    21    20    1
    20    22    20   ar
    21    23    22    1
    22    24    22   ar
    23    25    24    1
    24    26    24   ar
    25    27    26    1
    26    28    19   ar
    27    29    28    1
    28    30    14    1
    29    31    30    1
    30    32    30    1
    31    33    30    1
    32    34    33   ar
    33    35    34    1
    34    36    34   ar
    35    37    36    1
    36    38    36   ar
    37    39    38    1
    38    40    38   ar
    39    41    40    1
    40    42    33   ar
    41    43    42    1
    42    44    14    1
    43    45    44    1
    44    46    44    1
    45    47    44    1
    46    48    49    1
    47    50    48    1
    48    51    50    1
    49    52    50    1
    50    53    50    1
    51    54    53   ar
    52    55    54    1
    53    56    54   ar
    54    57    56    1
    55    58    56   ar
    56    59    58    1
    57    60    58   ar
    58    61    60    1
    59    62    53   ar
    60    63    62    1
    61    64    48    1
    62    65    64    1
    63    66    64    1
    64    67    64    1
    65    68    67   ar
    66    69    68    1
    67    70    68   ar
    68    71    70    1
    69    72    70   ar
    70    73    72    1
    71    74    72   ar
    72    75    74    1
    73    76    67   ar
    74    77    76    1
    75    78    48    1
    76    79    78    1
    77    80    78    1
    78    81    47    3
    79    26    28   ar
    80    40    42   ar
    81    60    62   ar
    82    74    76   ar
    83    78    81    1
    84    82    83    1
    85    84    82    1
    86    85    86    1
    87    87    85    1
    88    88    85    1
    89    89    90    1
    90    91    89    1
@<TRIPOS>SUBSTRUCTURE
     1 RES1        1 GROUP             0 ****  ****    0  
     2 RES2       14 GROUP             0 ****  ****    0  
     3 RES3       82 GROUP             0 ****  ****    0  
     4 RES4       85 GROUP             0 ****  ****    0  
     5 RES5       89 GROUP             0 ****  ****    0  
@<TRIPOS>CRYSIN
   14.6570   15.7610    8.7230   90.0000   97.6300   90.0000     5     1
