@<TRIPOS>MOLECULE
PEDHOZ
   101   109     1     0     0
SMALL
NO_CHARGES
****
Generated from the CSD

@<TRIPOS>ATOM
     1 Fe1      4.1296   0.1516   9.5464   Fe        1 RES1   0.0000
     2 S1       3.6473  -0.8696   7.5594   S.3       1 RES1   0.0000
     3 S2       5.6853   1.4247   8.4363   S.3       1 RES1   0.0000
     4 N1       2.5310   1.1391   9.2603   N.2       1 RES1   0.0000
     5 O1       4.2014   1.1827  11.1609   O.3       1 RES1   0.0000
     6 O2       3.1178  -1.1612  10.4769   O.3       1 RES1   0.0000
     7 N2       5.6281  -0.8692  10.1388   N.2       1 RES1   0.0000
     8 C1       1.9551   1.2326   7.9944   C.ar      1 RES1   0.0000
     9 C2       2.4085   0.3076   7.0313   C.ar      1 RES1   0.0000
    10 C3       6.8814  -0.7505   9.5664   C.ar      1 RES1   0.0000
    11 C4       2.9979   1.5846  11.4781   C.ar      1 RES1   0.0000
    12 C5       3.3392  -2.6308  12.3790   C.ar      1 RES1   0.0000
    13 C6       2.0190   1.5667  10.4370   C.ar      1 RES1   0.0000
    14 C7       1.8273  -2.8765  12.4858   C.3       1 RES1   0.0000
    15 C8       4.9913  -0.3625   6.4462   C.3       1 RES1   0.0000
    16 H1       5.7664  -0.9259   6.6006   H         1 RES1   0.0000
    17 H2       4.7109  -0.4842   5.5262   H         1 RES1   0.0000
    18 C9       9.3105  -0.3317   8.2240   C.ar      1 RES1   0.0000
    19 H3      10.1136  -0.2123   7.7703   H         1 RES1   0.0000
    20 C10      2.6507   2.0427  12.7840   C.ar      1 RES1   0.0000
    21 C11      5.2849  -1.6244  11.2358   C.ar      1 RES1   0.0000
    22 C12      0.6601   1.8764  10.7240   C.ar      1 RES1   0.0000
    23 H4       0.0188   1.8253  10.0524   H         1 RES1   0.0000
    24 C13      6.1544  -2.1673  12.2036   C.ar      1 RES1   0.0000
    25 H5       7.0676  -1.9999  12.1582   H         1 RES1   0.0000
    26 C14      5.6403  -2.9524  13.2256   C.ar      1 RES1   0.0000
    27 C15      4.2613  -3.1990  13.2718   C.ar      1 RES1   0.0000
    28 H6       3.9393  -3.7702  13.9300   H         1 RES1   0.0000
    29 C16      0.5754   2.2021   6.2772   C.ar      1 RES1   0.0000
    30 H7      -0.0362   2.8504   6.0122   H         1 RES1   0.0000
    31 C17      0.3002   2.2501  11.9963   C.ar      1 RES1   0.0000
    32 C18      8.2720   0.5439   8.0390   C.ar      1 RES1   0.0000
    33 H8       8.3784   1.2792   7.4797   H         1 RES1   0.0000
    34 C19      1.0202   2.1924   7.5750   C.ar      1 RES1   0.0000
    35 H9       0.7004   2.8230   8.1799   H         1 RES1   0.0000
    36 C20      3.8703  -1.7976  11.3586   C.ar      1 RES1   0.0000
    37 C21      1.3194   2.3614  12.9896   C.ar      1 RES1   0.0000
    38 H10      1.0727   2.6684  13.8325   H         1 RES1   0.0000
    39 C22      9.1483  -1.4018   9.0993   C.ar      1 RES1   0.0000
    40 H11      9.8617  -1.9808   9.2453   H         1 RES1   0.0000
    41 C23      3.7033   2.1169  13.9080   C.3       1 RES1   0.0000
    42 C24      7.0677   0.3359   8.6831   C.ar      1 RES1   0.0000
    43 C25      1.9269   0.3230   5.7415   C.ar      1 RES1   0.0000
    44 H12      2.2203  -0.3120   5.1282   H         1 RES1   0.0000
    45 C26      6.5299  -3.5428  14.3130   C.3       1 RES1   0.0000
    46 C27      7.9597  -1.6247   9.7546   C.ar      1 RES1   0.0000
    47 H13      7.8722  -2.3559  10.3215   H         1 RES1   0.0000
    48 C28      5.3668   1.0698   6.6678   C.3       1 RES1   0.0000
    49 H14      4.6494   1.6408   6.3505   H         1 RES1   0.0000
    50 H15      6.1621   1.2754   6.1514   H         1 RES1   0.0000
    51 C29      1.0880  -1.5575  12.6963   C.3       1 RES1   0.0000
    52 H16      1.4179  -1.1290  13.4900   H         1 RES1   0.0000
    53 H17      0.1485  -1.7284  12.7921   H         1 RES1   0.0000
    54 H18      1.2337  -0.9843  11.9399   H         1 RES1   0.0000
    55 C30     -1.1671   2.4835  12.4061   C.3       1 RES1   0.0000
    56 C31      1.3186  -3.5324  11.1991   C.3       1 RES1   0.0000
    57 H19      1.5563  -2.9866  10.4460   H         1 RES1   0.0000
    58 H20      0.3640  -3.6220  11.2411   H         1 RES1   0.0000
    59 H21      1.7177  -4.4005  11.1036   H         1 RES1   0.0000
    60 C32      3.0957   2.6463  15.2186   C.3       1 RES1   0.0000
    61 H22      2.7356   3.5236  15.0737   H         1 RES1   0.0000
    62 H23      3.7770   2.6870  15.8942   H         1 RES1   0.0000
    63 H24      2.3947   2.0563  15.5078   H         1 RES1   0.0000
    64 C33      1.0117   1.2783   5.3588   C.ar      1 RES1   0.0000
    65 H25      0.6917   1.2978   4.4855   H         1 RES1   0.0000
    66 C34     -2.1116   2.2894  11.2326   C.3       1 RES1   0.0000
    67 H26     -1.8931   2.9152  10.5391   H         1 RES1   0.0000
    68 H27     -3.0153   2.4341  11.5224   H         1 RES1   0.0000
    69 H28     -2.0230   1.3944  10.8964   H         1 RES1   0.0000
    70 C35     -1.3289   3.9354  12.9035   C.3       1 RES1   0.0000
    71 H29     -0.7309   4.0906  13.6380   H         1 RES1   0.0000
    72 H30     -2.2340   4.0755  13.1931   H         1 RES1   0.0000
    73 H31     -1.1242   4.5434  12.1896   H         1 RES1   0.0000
    74 C36      4.8157   3.0600  13.4903   C.3       1 RES1   0.0000
    75 H32      5.1925   2.7625  12.6587   H         1 RES1   0.0000
    76 H33      5.4982   3.0692  14.1653   H         1 RES1   0.0000
    77 H34      4.4608   3.9454  13.3819   H         1 RES1   0.0000
    78 C37      1.4819  -3.7958  13.6497   C.3       1 RES1   0.0000
    79 H35      1.8351  -4.6721  13.4808   H         1 RES1   0.0000
    80 H36      0.5276  -3.8481  13.7438   H         1 RES1   0.0000
    81 H37      1.8642  -3.4464  14.4578   H         1 RES1   0.0000
    82 C38      4.2712   0.7300  14.1807   C.3       1 RES1   0.0000
    83 H38      3.5591   0.1349  14.4244   H         1 RES1   0.0000
    84 H39      4.9069   0.7804  14.8983   H         1 RES1   0.0000
    85 H40      4.7066   0.4019  13.3902   H         1 RES1   0.0000
    86 C39      6.1130  -2.9835  15.6539   C.3       1 RES1   0.0000
    87 H41      6.2613  -2.0347  15.6650   H         1 RES1   0.0000
    88 H42      6.6300  -3.3964  16.3486   H         1 RES1   0.0000
    89 H43      5.1804  -3.1622  15.7994   H         1 RES1   0.0000
    90 C40      6.4170  -5.0741  14.3545   C.3       1 RES1   0.0000
    91 H44      5.5065  -5.3228  14.5314   H         1 RES1   0.0000
    92 H45      6.9830  -5.4177  15.0495   H         1 RES1   0.0000
    93 H46      6.6898  -5.4380  13.5096   H         1 RES1   0.0000
    94 C41      8.0168  -3.2558  14.0882   C.3       1 RES1   0.0000
    95 H47      8.2860  -3.6116  13.2376   H         1 RES1   0.0000
    96 H48      8.5316  -3.6675  14.7849   H         1 RES1   0.0000
    97 H49      8.1642  -2.3069  14.0982   H         1 RES1   0.0000
    98 C42     -1.5252   1.5277  13.5238   C.3       1 RES1   0.0000
    99 H50     -1.4305   0.6242  13.2144   H         1 RES1   0.0000
   100 H51     -2.4332   1.6796  13.7960   H         1 RES1   0.0000
   101 H52     -0.9387   1.6742  14.2696   H         1 RES1   0.0000
@<TRIPOS>BOND
     1     1     2    1
     2     2     9    1
     3     3     1    1
     4     4     1    1
     5     5     1    1
     6     6     1    1
     7     7     1    1
     8     8     4    1
     9     9     8   ar
    10    10     7    1
    11    11     5    1
    12    12    14    1
    13    13     4    1
    14    14    51    1
    15    15     2    1
    16    16    15    1
    17    17    15    1
    18    18    19    1
    19    20    11   ar
    20    21     7    1
    21    22    13   ar
    22    23    22    1
    23    24    21   ar
    24    25    24    1
    25    26    24   ar
    26    27    12   ar
    27    28    27    1
    28    29    30    1
    29    31    22   ar
    30    32    18   ar
    31    33    32    1
    32    34     8   ar
    33    35    34    1
    34    36     6    1
    35    37    20   ar
    36    38    37    1
    37    39    18   ar
    38    40    39    1
    39    41    20    1
    40    42     3    1
    41    43     9   ar
    42    44    43    1
    43    45    26    1
    44    46    10   ar
    45    47    46    1
    46    48     3    1
    47    49    48    1
    48    50    48    1
    49    51    52    1
    50    53    51    1
    51    54    51    1
    52    55    31    1
    53    56    14    1
    54    57    56    1
    55    58    56    1
    56    59    56    1
    57    60    41    1
    58    61    60    1
    59    62    60    1
    60    63    60    1
    61    64    29   ar
    62    65    64    1
    63    66    55    1
    64    67    66    1
    65    68    66    1
    66    69    66    1
    67    70    55    1
    68    71    70    1
    69    72    70    1
    70    73    70    1
    71    74    41    1
    72    75    74    1
    73    76    74    1
    74    77    74    1
    75    78    14    1
    76    79    78    1
    77    80    78    1
    78    81    78    1
    79    82    41    1
    80    83    82    1
    81    84    82    1
    82    85    82    1
    83    86    45    1
    84    87    86    1
    85    88    86    1
    86    89    86    1
    87    90    45    1
    88    91    90    1
    89    92    90    1
    90    93    90    1
    91    94    45    1
    92    95    94    1
    93    96    94    1
    94    97    94    1
    95    98    55    1
    96    99    98    1
    97   100    98    1
    98   101    98    1
    99    10    42   ar
   100    11    13   ar
   101    12    36   ar
   102    15    48    1
   103    21    36   ar
   104    26    27   ar
   105    29    34   ar
   106    31    37   ar
   107    32    42   ar
   108    39    46   ar
   109    43    64   ar
@<TRIPOS>SUBSTRUCTURE
     1 RES1        1 GROUP             0 ****  ****    0  
@<TRIPOS>CRYSIN
   10.5398   12.5795   16.7332  104.1510   93.9310  113.2750     2     1
