@<TRIPOS>MOLECULE
PEDLIU
    73    79     3     0     0
SMALL
USER_CHARGES
****
Generated from the CSD

@<TRIPOS>ATOM
     1 Fe1      4.8662   2.4379   4.2226   Fe        1 RES1   1.0000
     2 O1       5.7021   4.0561   4.7201   O.3       1 RES1   0.0000
     3 O2       3.9128   1.9468   5.7782   O.3       1 RES1   0.0000
     4 O3       0.0813  -2.1422   8.4690   O.2       1 RES1   0.0000
     5 O4       0.7438  -3.2773   6.8074   O.2       1 RES1   0.0000
     6 O5       9.6451   7.4109   1.2551   O.2       1 RES1   0.0000
     7 O6       9.9940   8.2915   3.1964   O.2       1 RES1   0.0000
     8 N1       6.0002   2.4838   2.3118   N.3       1 RES1   0.0000
     9 N2       3.8475   0.7622   3.1950   N.3       1 RES1   0.0000
    10 N3       9.4237   7.4785   2.4634   N.pl3     1 RES1   0.0000
    11 N4       0.7301  -2.2752   7.4494   N.pl3     1 RES1   0.0000
    12 N5       3.2571   3.4384   3.2156   N.ar      1 RES1   0.0000
    13 N6       6.5240   1.1400   4.6485   N.ar      1 RES1   0.0000
    14 C1       6.1483   3.8775   1.8062   C.3       1 RES1   0.0000
    15 H1       5.2664   4.2410   1.6299   H         1 RES1   0.0000
    16 H2       6.6312   3.8549   0.9658   H         1 RES1   0.0000
    17 C2       3.7686  -0.4438   4.0685   C.3       1 RES1   0.0000
    18 H3       4.6706  -0.7323   4.2793   H         1 RES1   0.0000
    19 H4       3.3410  -1.1594   3.5711   H         1 RES1   0.0000
    20 C3       2.4722   1.1853   2.8285   C.3       1 RES1   0.0000
    21 H5       1.8660   0.9473   3.5463   H         1 RES1   0.0000
    22 H6       2.1944   0.7039   2.0335   H         1 RES1   0.0000
    23 C4       7.3441   1.8790   2.5034   C.3       1 RES1   0.0000
    24 H7       7.9916   2.5890   2.6301   H         1 RES1   0.0000
    25 H8       7.5884   1.3977   1.6974   H         1 RES1   0.0000
    26 C5       5.1854   1.6919   1.3419   C.3       1 RES1   0.0000
    27 H9       5.7289   1.4606   0.5731   H         1 RES1   0.0000
    28 H10      4.4379   2.2271   1.0333   H         1 RES1   0.0000
    29 C6       4.6730   0.4386   1.9922   C.3       1 RES1   0.0000
    30 H11      4.1372  -0.0586   1.3557   H         1 RES1   0.0000
    31 H12      5.4225  -0.1187   2.2540   H         1 RES1   0.0000
    32 C7       6.5792   4.8657   4.1374   C.ar      1 RES1   0.0000
    33 C8       6.8733   4.8038   2.7582   C.ar      1 RES1   0.0000
    34 C9       7.8156   5.6624   2.2361   C.ar      1 RES1   0.0000
    35 H13      8.0287   5.6246   1.3323   H         1 RES1   0.0000
    36 C10      8.4489   6.5837   3.0586   C.ar      1 RES1   0.0000
    37 C11      8.1660   6.6651   4.4005   C.ar      1 RES1   0.0000
    38 H14      8.5925   7.2926   4.9378   H         1 RES1   0.0000
    39 C12      7.2465   5.8028   4.9323   C.ar      1 RES1   0.0000
    40 H15      7.0596   5.8415   5.8430   H         1 RES1   0.0000
    41 C13      3.1429   0.9320   6.1461   C.ar      1 RES1   0.0000
    42 C14      3.0148  -0.2330   5.3566   C.ar      1 RES1   0.0000
    43 C15      2.2017  -1.2510   5.8030   C.ar      1 RES1   0.0000
    44 H16      2.0969  -2.0169   5.2850   H         1 RES1   0.0000
    45 C16      1.5440  -1.1450   7.0058   C.ar      1 RES1   0.0000
    46 C17      1.6405  -0.0060   7.7801   C.ar      1 RES1   0.0000
    47 H17      1.1728   0.0639   8.5819   H         1 RES1   0.0000
    48 C18      2.4412   1.0227   7.3447   C.ar      1 RES1   0.0000
    49 H18      2.5160   1.7933   7.8600   H         1 RES1   0.0000
    50 C19      2.3685   2.6559   2.5695   C.ar      1 RES1   0.0000
    51 C20      1.4077   3.2050   1.7415   C.ar      1 RES1   0.0000
    52 H19      0.7957   2.6557   1.3061   H         1 RES1   0.0000
    53 C21      1.3623   4.5560   1.5665   C.ar      1 RES1   0.0000
    54 H20      0.7345   4.9304   0.9906   H         1 RES1   0.0000
    55 C22      2.2443   5.3638   2.2402   C.ar      1 RES1   0.0000
    56 H21      2.2121   6.2885   2.1479   H         1 RES1   0.0000
    57 C23      3.1728   4.7672   3.0503   C.ar      1 RES1   0.0000
    58 H22      3.7728   5.3082   3.5091   H         1 RES1   0.0000
    59 C24      7.4195   0.9437   3.6648   C.ar      1 RES1   0.0000
    60 C25      8.3796  -0.0454   3.7364   C.ar      1 RES1   0.0000
    61 H23      8.9790  -0.1774   3.0379   H         1 RES1   0.0000
    62 C26      8.4313  -0.8339   4.8703   C.ar      1 RES1   0.0000
    63 H24      9.0522  -1.5223   4.9337   H         1 RES1   0.0000
    64 C27      7.5559  -0.5923   5.9022   C.ar      1 RES1   0.0000
    65 H25      7.6026  -1.0914   6.6862   H         1 RES1   0.0000
    66 C28      6.6228   0.3838   5.7631   C.ar      1 RES1   0.0000
    67 H26      6.0278   0.5363   6.4616   H         1 RES1   0.0000
    68 Cl1      8.6349   2.5247  -1.4049   Cl        2 RES2   0.0000
    69 O7       7.2440   2.2082  -1.3295   O.3       2 RES2  -1.0000
    70 O8       8.8536   3.7364  -0.6834   O.2       2 RES2   0.0000
    71 O9       9.3658   1.4388  -0.8060   O.2       2 RES2   0.0000
    72 O10      8.9828   2.6974  -2.7417   O.2       2 RES2   0.0000
    73 O11     12.2608   0.9527  -0.5897   O.3       3 RES3   0.0000
@<TRIPOS>BOND
     1     1     2    1
     2     2    32    1
     3     3     1    1
     4     4    11    2
     5     5    11    2
     6     6    10    2
     7     7    10    2
     8     8     1    1
     9     9     1    1
    10    10    36    1
    11    11    45    1
    12    12     1    1
    13    13     1    1
    14    14     8    1
    15    15    14    1
    16    16    14    1
    17    17     9    1
    18    18    17    1
    19    19    17    1
    20    20     9    1
    21    21    20    1
    22    22    20    1
    23    23     8    1
    24    24    23    1
    25    25    23    1
    26    26     8    1
    27    27    26    1
    28    28    26    1
    29    29     9    1
    30    30    29    1
    31    31    29    1
    32    32    33   ar
    33    33    14    1
    34    34    33   ar
    35    35    34    1
    36    36    34   ar
    37    37    36   ar
    38    38    37    1
    39    39    32   ar
    40    40    39    1
    41    41     3    1
    42    42    17    1
    43    43    42   ar
    44    44    43    1
    45    45    43   ar
    46    46    45   ar
    47    47    46    1
    48    48    41   ar
    49    49    48    1
    50    50    12   ar
    51    51    50   ar
    52    52    51    1
    53    53    51   ar
    54    54    53    1
    55    55    53   ar
    56    56    55    1
    57    57    12   ar
    58    58    57    1
    59    59    13   ar
    60    60    59   ar
    61    61    60    1
    62    62    60   ar
    63    63    62    1
    64    64    62   ar
    65    65    64    1
    66    66    13   ar
    67    67    66    1
    68    20    50    1
    69    23    59    1
    70    26    29    1
    71    37    39   ar
    72    41    42   ar
    73    46    48   ar
    74    55    57   ar
    75    64    66   ar
    76    68    69    1
    77    70    68    2
    78    71    68    2
    79    72    68    2
@<TRIPOS>SUBSTRUCTURE
     1 RES1        1 GROUP             0 ****  ****    0  
     2 RES2       68 GROUP             0 ****  ****    0  
     3 RES3       73 GROUP             0 ****  ****    0  
@<TRIPOS>CRYSIN
    9.8420   11.4880   14.4810   72.2000   82.1100   70.4200     2     1
