@<TRIPOS>MOLECULE
PEDTAX
   101   109     1     0     0
SMALL
NO_CHARGES
****
Generated from the CSD

@<TRIPOS>ATOM
     1 Fe1      0.2125   6.3743   6.3361   Fe        1 RES1   0.0000
     2 S1       0.6853   7.3996   8.3090   S.3       1 RES1   0.0000
     3 S2      -1.3351   5.1074   7.4446   S.3       1 RES1   0.0000
     4 O1       0.1404   5.3618   4.7050   O.3       1 RES1   0.0000
     5 O2       1.2346   7.6714   5.3953   O.3       1 RES1   0.0000
     6 N1       1.8075   5.3735   6.6423   N.2       1 RES1   0.0000
     7 N2      -1.2789   7.4030   5.7491   N.2       1 RES1   0.0000
     8 C1      -0.9238   8.1534   4.6578   C.ar      1 RES1   0.0000
     9 C2       0.0971   9.7400   2.6403   C.ar      1 RES1   0.0000
    10 H1       0.4240  10.3144   1.9856   H         1 RES1   0.0000
    11 C3      -1.2899   9.5112   2.6764   C.ar      1 RES1   0.0000
    12 C4       3.0584   4.2174   2.8856   C.ar      1 RES1   0.0000
    13 H2       3.3160   3.9221   2.0418   H         1 RES1   0.0000
    14 C5       0.4766   8.3148   4.5257   C.ar      1 RES1   0.0000
    15 C6       4.0590   4.3232   3.8935   C.ar      1 RES1   0.0000
    16 C7      -1.7955   8.7166   3.6891   C.ar      1 RES1   0.0000
    17 H3      -2.7092   8.5507   3.7352   H         1 RES1   0.0000
    18 C8       2.5170   9.4009   3.4265   C.3       1 RES1   0.0000
    19 C9       1.0065   9.1682   3.5114   C.ar      1 RES1   0.0000
    20 C10      2.3987   5.3089   7.8846   C.ar      1 RES1   0.0000
    21 C11      1.7222   4.5295   3.0853   C.ar      1 RES1   0.0000
    22 C12      3.6960   4.6731   5.1689   C.ar      1 RES1   0.0000
    23 H4       4.3335   4.7135   5.8438   H         1 RES1   0.0000
    24 C13     -2.1865  10.1038   1.5914   C.3       1 RES1   0.0000
    25 C14      2.3281   4.9758   5.4503   C.ar      1 RES1   0.0000
    26 C15     -0.6556   6.9051   9.4524   C.3       1 RES1   0.0000
    27 H5      -0.3623   7.0258  10.3686   H         1 RES1   0.0000
    28 H6      -1.4311   7.4690   9.3065   H         1 RES1   0.0000
    29 C16      2.4161   6.2342  10.1349   C.ar      1 RES1   0.0000
    30 H7       2.1127   6.8669  10.7453   H         1 RES1   0.0000
    31 C17      1.9333   6.2418   8.8548   C.ar      1 RES1   0.0000
    32 C18      1.3677   4.9572   4.3795   C.ar      1 RES1   0.0000
    33 C19     -2.5349   7.2717   6.3058   C.ar      1 RES1   0.0000
    34 C20      3.3322   4.3538   8.2997   C.ar      1 RES1   0.0000
    35 H8       3.6479   3.7242   7.6922   H         1 RES1   0.0000
    36 C21     -1.0379   5.4390   9.2259   C.3       1 RES1   0.0000
    37 H9      -1.8398   5.2326   9.7305   H         1 RES1   0.0000
    38 H10     -0.3245   4.8657   9.5460   H         1 RES1   0.0000
    39 C22     -4.8240   7.9351   6.7854   C.ar      1 RES1   0.0000
    40 H11     -5.5329   8.5205   6.6445   H         1 RES1   0.0000
    41 C23      3.7934   4.3326   9.6049   C.ar      1 RES1   0.0000
    42 H12      4.3981   3.6768   9.8662   H         1 RES1   0.0000
    43 C24     -2.7304   6.2020   7.2021   C.ar      1 RES1   0.0000
    44 C25     -3.6340   8.1475   6.1265   C.ar      1 RES1   0.0000
    45 H13     -3.5511   8.8769   5.5561   H         1 RES1   0.0000
    46 C26      1.3019   3.9963   0.6243   C.3       1 RES1   0.0000
    47 H14      1.9855   4.6110   0.3477   H         1 RES1   0.0000
    48 H15      0.6176   3.9550  -0.0476   H         1 RES1   0.0000
    49 H16      1.6850   3.1246   0.7453   H         1 RES1   0.0000
    50 C27      0.6897   4.4749   1.9499   C.3       1 RES1   0.0000
    51 C28      5.8997   5.0836   2.3698   C.3       1 RES1   0.0000
    52 H17      5.3410   4.9335   1.6033   H         1 RES1   0.0000
    53 H18      6.8190   4.9543   2.1257   H         1 RES1   0.0000
    54 H19      5.7755   5.9822   2.6846   H         1 RES1   0.0000
    55 C29      5.5188   4.0907   3.4863   C.3       1 RES1   0.0000
    56 C30      3.3657   5.2822  10.5327   C.ar      1 RES1   0.0000
    57 H20      3.7029   5.2824  11.3995   H         1 RES1   0.0000
    58 C31      2.8778  10.3451   2.2534   C.3       1 RES1   0.0000
    59 H21      2.5858   9.9548   1.4271   H         1 RES1   0.0000
    60 H22      3.8285  10.4751   2.2288   H         1 RES1   0.0000
    61 H23      2.4424  11.1918   2.3794   H         1 RES1   0.0000
    62 C32     -1.7438   9.5630   0.2233   C.3       1 RES1   0.0000
    63 H24     -0.8423   9.8421   0.0464   H         1 RES1   0.0000
    64 H25     -2.3249   9.9046  -0.4592   H         1 RES1   0.0000
    65 H26     -1.7860   8.6038   0.2301   H         1 RES1   0.0000
    66 C33      3.2720   8.0825   3.1891   C.3       1 RES1   0.0000
    67 H27      3.0667   7.4646   3.8939   H         1 RES1   0.0000
    68 H28      4.2170   8.2524   3.1772   H         1 RES1   0.0000
    69 H29      3.0044   7.7075   2.3464   H         1 RES1   0.0000
    70 C34     -2.0508  11.6479   1.5788   C.3       1 RES1   0.0000
    71 H30     -2.2983  11.9992   2.4371   H         1 RES1   0.0000
    72 H31     -2.6285  12.0149   0.9046   H         1 RES1   0.0000
    73 H32     -1.1416  11.8880   1.3848   H         1 RES1   0.0000
    74 C35      0.0923   5.8768   1.7030   C.3       1 RES1   0.0000
    75 H33     -0.3725   6.1699   2.4899   H         1 RES1   0.0000
    76 H34     -0.5208   5.8379   0.9650   H         1 RES1   0.0000
    77 H35      0.7987   6.4942   1.4997   H         1 RES1   0.0000
    78 C36     -4.9871   6.8569   7.6613   C.ar      1 RES1   0.0000
    79 H36     -5.7926   6.7351   8.1108   H         1 RES1   0.0000
    80 C37      3.0415  10.0503   4.7034   C.3       1 RES1   0.0000
    81 H37      2.6231  10.9057   4.8239   H         1 RES1   0.0000
    82 H38      3.9925  10.1659   4.6368   H         1 RES1   0.0000
    83 H39      2.8403   9.4871   5.4549   H         1 RES1   0.0000
    84 C38     -3.9428   5.9744   7.8547   C.ar      1 RES1   0.0000
    85 H40     -4.0452   5.2374   8.4122   H         1 RES1   0.0000
    86 C39      6.4745   4.3276   4.6468   C.3       1 RES1   0.0000
    87 H41      6.3917   5.2346   4.9495   H         1 RES1   0.0000
    88 H42      7.3760   4.1682   4.3566   H         1 RES1   0.0000
    89 H43      6.2594   3.7289   5.3655   H         1 RES1   0.0000
    90 C40     -3.6570   9.7636   1.7864   C.3       1 RES1   0.0000
    91 H44     -3.7728   8.8109   1.7475   H         1 RES1   0.0000
    92 H45     -4.1761  10.1770   1.0926   H         1 RES1   0.0000
    93 H46     -3.9503  10.0866   2.6414   H         1 RES1   0.0000
    94 C41     -0.4348   3.4998   2.3226   C.3       1 RES1   0.0000
    95 H47     -0.0748   2.6146   2.4101   H         1 RES1   0.0000
    96 H48     -1.1049   3.5066   1.6350   H         1 RES1   0.0000
    97 H49     -0.8287   3.7693   3.1556   H         1 RES1   0.0000
    98 C42      5.6992   2.6589   2.9626   C.3       1 RES1   0.0000
    99 H50      5.4421   2.0341   3.6443   H         1 RES1   0.0000
   100 H51      6.6191   2.5169   2.7282   H         1 RES1   0.0000
   101 H52      5.1481   2.5301   2.1865   H         1 RES1   0.0000
@<TRIPOS>BOND
     1     1     2    1
     2     2    26    1
     3     3     1    1
     4     4     1    1
     5     5     1    1
     6     6     1    1
     7     7     1    1
     8     8     7    1
     9     9    10    1
    10    11     9   ar
    11    12    13    1
    12    14     5    1
    13    15    12   ar
    14    16     8   ar
    15    17    16    1
    16    18    19    1
    17    19     9   ar
    18    20     6    1
    19    21    12   ar
    20    22    15   ar
    21    23    22    1
    22    24    11    1
    23    25     6    1
    24    26    27    1
    25    28    26    1
    26    29    30    1
    27    31     2    1
    28    32     4    1
    29    33     7    1
    30    34    20   ar
    31    35    34    1
    32    36     3    1
    33    37    36    1
    34    38    36    1
    35    39    40    1
    36    41    34   ar
    37    42    41    1
    38    43     3    1
    39    44    33   ar
    40    45    44    1
    41    46    47    1
    42    48    46    1
    43    49    46    1
    44    50    21    1
    45    51    52    1
    46    53    51    1
    47    54    51    1
    48    55    15    1
    49    56    29   ar
    50    57    56    1
    51    58    18    1
    52    59    58    1
    53    60    58    1
    54    61    58    1
    55    62    24    1
    56    63    62    1
    57    64    62    1
    58    65    62    1
    59    66    18    1
    60    67    66    1
    61    68    66    1
    62    69    66    1
    63    70    24    1
    64    71    70    1
    65    72    70    1
    66    73    70    1
    67    74    50    1
    68    75    74    1
    69    76    74    1
    70    77    74    1
    71    78    39   ar
    72    79    78    1
    73    80    18    1
    74    81    80    1
    75    82    80    1
    76    83    80    1
    77    84    43   ar
    78    85    84    1
    79    86    55    1
    80    87    86    1
    81    88    86    1
    82    89    86    1
    83    90    24    1
    84    91    90    1
    85    92    90    1
    86    93    90    1
    87    94    50    1
    88    95    94    1
    89    96    94    1
    90    97    94    1
    91    98    55    1
    92    99    98    1
    93   100    98    1
    94   101    98    1
    95     8    14   ar
    96    11    16   ar
    97    14    19   ar
    98    20    31   ar
    99    21    32   ar
   100    22    25   ar
   101    25    32   ar
   102    26    36    1
   103    29    31   ar
   104    33    43   ar
   105    39    44   ar
   106    41    56   ar
   107    46    50    1
   108    51    55    1
   109    78    84   ar
@<TRIPOS>SUBSTRUCTURE
     1 RES1        1 GROUP             0 ****  ****    0  
@<TRIPOS>CRYSIN
   10.4955   12.4702   16.5270  103.9100   94.6570  113.3250     2     1
