@<TRIPOS>MOLECULE
PEDWAW
    28    30     2     0     0
SMALL
NO_CHARGES
****
Generated from the CSD

@<TRIPOS>ATOM
     1 Fe1      1.7470   3.6601  -1.0607   Fe        1 RES1   0.0000
     2 P1       0.7574   4.3642   0.9244   P.3       1 RES1   0.0000
     3 P2       2.9117   1.9789  -0.0075   P.3       1 RES1   0.0000
     4 C1       2.7948   5.4400  -1.3246   C.2       1 RES1   0.0000
     5 C2       3.0891   4.5386  -2.3578   C.2       1 RES1   0.0000
     6 C3       0.1728   3.4298  -2.3653   C.2       1 RES1   0.0000
     7 C4       0.2894   2.2487  -1.6336   C.2       1 RES1   0.0000
     8 C5       0.2407   2.9182   1.9688   C.3       1 RES1   0.0000
     9 C6       1.3836   2.0036   2.3891   C.3       1 RES1   0.0000
    10 C7       1.9281   1.0824   1.2671   C.3       1 RES1   0.0000
    11 C8      -0.8463   5.3232   0.8543   C.3       1 RES1   0.0000
    12 C9      -2.0595   4.4399   0.5929   C.3       1 RES1   0.0000
    13 C10     -0.7928   6.4237  -0.2051   C.3       1 RES1   0.0000
    14 C11      1.7709   5.3495   2.1677   C.3       1 RES1   0.0000
    15 C12      1.2355   5.3133   3.6136   C.3       1 RES1   0.0000
    16 C13      1.9659   6.8087   1.7587   C.3       1 RES1   0.0000
    17 C14      3.6268   0.5675  -1.0232   C.3       1 RES1   0.0000
    18 C15      4.0005   1.0692  -2.4291   C.3       1 RES1   0.0000
    19 C16      2.7173  -0.6564  -1.1282   C.3       1 RES1   0.0000
    20 C17      4.4043   2.5086   0.9957   C.3       1 RES1   0.0000
    21 C18      5.5659   2.9511   0.0976   C.3       1 RES1   0.0000
    22 C19      4.8967   1.4789   2.0138   C.3       1 RES1   0.0000
    23 C20      4.4194   7.0044  11.9453   C.3       2 RES2   0.0000
    24 C21      3.6588   8.0539  11.1698   C.3       2 RES2   0.0000
    25 C22      4.0513   6.8975  13.2599   C.3       2 RES2   0.0000
    26 C22B     3.5446   9.5525  11.7565   C.3       2 RES2   0.0000
    27 C20B     3.1764   9.4456  13.0711   C.3       2 RES2   0.0000
    28 C21B     3.9370   8.3961  13.8466   C.3       2 RES2   0.0000
@<TRIPOS>BOND
     1     1     2    1
     2     2     8    1
     3     3     1    1
     4     4     1   un
     5     5     1   un
     6     6     1   un
     7     7     1   un
     8     8     9    1
     9     9    10    1
    10    10     3    1
    11    11     2    1
    12    12    11    1
    13    13    11    1
    14    14     2    1
    15    15    14    1
    16    16    14    1
    17    17     3    1
    18    18    17    1
    19    19    17    1
    20    20     3    1
    21    21    20    1
    22    22    20    1
    23     4     5    2
    24     6     7    2
    25    23    24    1
    26    24    26    1
    27    25    23    1
    28    26    27    1
    29    27    28    1
    30    28    25    1
@<TRIPOS>SUBSTRUCTURE
     1 RES1        1 GROUP             0 ****  ****    0  
     2 RES2       23 GROUP             0 ****  ****    0  
@<TRIPOS>CRYSIN
   11.6700   16.4500   12.6730   90.0000   99.2500   90.0000   231     1
