@<TRIPOS>MOLECULE
PEJQIF01
    84    88     2     0     0
SMALL
USER_CHARGES
****
Generated from the CSD

@<TRIPOS>ATOM
     1 Fe1      0.0000   0.0000   0.0000   Fe        1 RES1   2.0000
     2 Cl1      4.6991  -1.4789   3.5759   Cl        1 RES1   0.0000
     3 Cl2     -4.5687  -4.1057   0.7817   Cl        1 RES1   0.0000
     4 Cl3      5.0034  -1.9434  -2.7450   Cl        1 RES1   0.0000
     5 N1       1.1903   0.3933   1.5980   N.2       1 RES1   0.0000
     6 N2       1.9181   1.5519   1.4923   N.2       1 RES1   0.0000
     7 N3       2.6720   1.8153   2.4488   N.2       1 RES1   0.0000
     8 N4       2.4228   0.6460   3.1207   N.pl3     1 RES1   0.0000
     9 N5      -1.2455  -1.1870   1.1899   N.2       1 RES1   0.0000
    10 N6       1.1364  -1.4700  -0.4427   N.2       1 RES1   0.0000
    11 N7      -2.3469  -0.5179   1.6137   N.2       1 RES1   0.0000
    12 N8       1.8392  -2.0840   0.5191   N.2       1 RES1   0.0000
    13 N9      -3.0069  -1.3276   2.2238   N.2       1 RES1   0.0000
    14 N10     -2.2458  -2.4630   2.1872   N.pl3     1 RES1   0.0000
    15 N11      2.5401  -3.0112  -0.1413   N.2       1 RES1   0.0000
    16 N12      2.2751  -2.8813  -1.4588   N.pl3     1 RES1   0.0000
    17 C1       1.5953  -0.1673   2.6278   C.2       1 RES1   0.0000
    18 C2       2.9553   0.2776   4.3932   C.3       1 RES1   0.0000
    19 C3       4.3246   0.1477   4.2383   C.3       1 RES1   0.0000
    20 C4      -1.1558  -2.4114   1.5331   C.2       1 RES1   0.0000
    21 C5       1.4429  -1.9274  -1.5635   C.2       1 RES1   0.0000
    22 C6      -2.5728  -3.6910   2.8475   C.3       1 RES1   0.0000
    23 C7       2.7062  -3.5166  -2.6236   C.3       1 RES1   0.0000
    24 C8      -3.9433  -3.5914   2.6330   C.3       1 RES1   0.0000
    25 C9       4.0849  -3.3404  -2.9878   C.3       1 RES1   0.0000
    26 H1       1.2686  -1.1069   3.0558   H         1 RES1   0.0000
    27 H2       2.6989   1.0714   5.0975   H         1 RES1   0.0000
    28 H3       2.5083  -0.6549   4.7302   H         1 RES1   0.0000
    29 H4       4.7241   0.3310   5.2179   H         1 RES1   0.0000
    30 H5       4.6484   0.9379   3.5215   H         1 RES1   0.0000
    31 H6      -0.3974  -3.1482   1.3584   H         1 RES1   0.0000
    32 H7       1.0607  -1.5999  -2.5252   H         1 RES1   0.0000
    33 H8      -2.1327  -4.5239   2.3075   H         1 RES1   0.0000
    34 H9      -2.2353  -3.7035   3.8919   H         1 RES1   0.0000
    35 H10      2.4542  -4.5951  -2.6476   H         1 RES1   0.0000
    36 H11      2.1855  -2.9169  -3.3519   H         1 RES1   0.0000
    37 H12     -4.1866  -2.5805   2.8988   H         1 RES1   0.0000
    38 H13     -4.3953  -4.1715   3.4158   H         1 RES1   0.0000
    39 H14      4.3091  -3.7764  -3.9547   H         1 RES1   0.0000
    40 H15      4.4970  -3.9135  -2.1788   H         1 RES1   0.0000
    41 Cl1B    -4.6991   1.4789  -3.5759   Cl        1 RES1   0.0000
    42 Cl2B     4.5687   4.1057  -0.7817   Cl        1 RES1   0.0000
    43 Cl3B    -5.0034   1.9434   2.7450   Cl        1 RES1   0.0000
    44 N1B     -1.1903  -0.3933  -1.5980   N.2       1 RES1   0.0000
    45 N2B     -1.9181  -1.5519  -1.4923   N.2       1 RES1   0.0000
    46 N3B     -2.6720  -1.8153  -2.4488   N.2       1 RES1   0.0000
    47 N4B     -2.4228  -0.6460  -3.1207   N.pl3     1 RES1   0.0000
    48 N5B      1.2455   1.1870  -1.1899   N.2       1 RES1   0.0000
    49 N6B     -1.1364   1.4700   0.4427   N.2       1 RES1   0.0000
    50 N7B      2.3469   0.5179  -1.6137   N.2       1 RES1   0.0000
    51 N8B     -1.8392   2.0840  -0.5191   N.2       1 RES1   0.0000
    52 N9B      3.0069   1.3276  -2.2238   N.2       1 RES1   0.0000
    53 N10B     2.2458   2.4630  -2.1872   N.pl3     1 RES1   0.0000
    54 N11B    -2.5401   3.0112   0.1413   N.2       1 RES1   0.0000
    55 N12B    -2.2751   2.8813   1.4588   N.pl3     1 RES1   0.0000
    56 C1B     -1.5953   0.1673  -2.6278   C.2       1 RES1   0.0000
    57 C2B     -2.9553  -0.2776  -4.3932   C.3       1 RES1   0.0000
    58 C3B     -4.3246  -0.1477  -4.2383   C.3       1 RES1   0.0000
    59 C4B      1.1558   2.4114  -1.5331   C.2       1 RES1   0.0000
    60 C5B     -1.4429   1.9274   1.5635   C.2       1 RES1   0.0000
    61 C6B      2.5728   3.6910  -2.8475   C.3       1 RES1   0.0000
    62 C7B     -2.7062   3.5166   2.6236   C.3       1 RES1   0.0000
    63 C8B      3.9433   3.5914  -2.6330   C.3       1 RES1   0.0000
    64 C9B     -4.0849   3.3404   2.9878   C.3       1 RES1   0.0000
    65 H1B     -1.2686   1.1069  -3.0558   H         1 RES1   0.0000
    66 H2B     -2.6989  -1.0714  -5.0975   H         1 RES1   0.0000
    67 H3B     -2.5083   0.6549  -4.7302   H         1 RES1   0.0000
    68 H4B     -4.7241  -0.3310  -5.2179   H         1 RES1   0.0000
    69 H5B     -4.6484  -0.9379  -3.5215   H         1 RES1   0.0000
    70 H6B      0.3974   3.1482  -1.3584   H         1 RES1   0.0000
    71 H7B     -1.0607   1.5999   2.5252   H         1 RES1   0.0000
    72 H8B      2.1327   4.5239  -2.3075   H         1 RES1   0.0000
    73 H9B      2.2353   3.7035  -3.8919   H         1 RES1   0.0000
    74 H10B    -2.4542   4.5951   2.6476   H         1 RES1   0.0000
    75 H11B    -2.1855   2.9169   3.3519   H         1 RES1   0.0000
    76 H12B     4.1866   2.5805  -2.8988   H         1 RES1   0.0000
    77 H13B     4.3953   4.1715  -3.4158   H         1 RES1   0.0000
    78 H14B    -4.3091   3.7764   3.9547   H         1 RES1   0.0000
    79 H15B    -4.4970   3.9135   2.1788   H         1 RES1   0.0000
    80 Cl4     -0.1468   5.8811   0.0680   Cl        2 RES2   0.0000
    81 O1      -0.8397   4.6289  -0.9785   O.3       2 RES2  -1.0000
    82 O2       1.4498   5.6789   0.1674   O.2       2 RES2   0.0000
    83 O3      -0.5449   7.3980  -0.5599   O.2       2 RES2   0.0000
    84 O4      -0.7292   5.6540   1.6744   O.2       2 RES2   0.0000
@<TRIPOS>BOND
     1     1     5    1
     2     2    19    1
     3     3    24    1
     4     4    25    1
     5     5     6    1
     6     6     7    2
     7     7     8    1
     8     8    17    1
     9     9     1    1
    10    10     1    1
    11    11     9    1
    12    12    10    1
    13    13    11    2
    14    14    13    1
    15    15    12    2
    16    16    15    1
    17    17     5    2
    18    18     8    1
    19    19    18    1
    20    20     9    2
    21    21    10    2
    22    22    14    1
    23    23    16    1
    24    24    22    1
    25    25    23    1
    26    26    17    1
    27    27    18    1
    28    28    18    1
    29    29    19    1
    30    30    19    1
    31    31    20    1
    32    32    21    1
    33    33    22    1
    34    34    22    1
    35    35    23    1
    36    36    23    1
    37    37    24    1
    38    38    24    1
    39    39    25    1
    40    40    25    1
    41    41    58    1
    42    42    63    1
    43    43    64    1
    44    44     1    1
    45    45    44    1
    46    46    45    2
    47    47    46    1
    48    48     1    1
    49    49     1    1
    50    50    48    1
    51    51    49    1
    52    52    50    2
    53    53    52    1
    54    54    51    2
    55    55    54    1
    56    56    44    2
    57    57    47    1
    58    58    57    1
    59    59    48    2
    60    60    49    2
    61    61    53    1
    62    62    55    1
    63    63    61    1
    64    64    62    1
    65    65    56    1
    66    66    57    1
    67    67    57    1
    68    68    58    1
    69    69    58    1
    70    70    59    1
    71    71    60    1
    72    72    61    1
    73    73    61    1
    74    74    62    1
    75    75    62    1
    76    76    63    1
    77    77    63    1
    78    78    64    1
    79    79    64    1
    80    14    20    1
    81    16    21    1
    82    47    56    1
    83    53    59    1
    84    55    60    1
    85    80    81    1
    86    82    80    2
    87    83    80    2
    88    84    80    2
@<TRIPOS>SUBSTRUCTURE
     1 RES1        1 GROUP             0 ****  ****    0  
     2 RES2       80 GROUP             0 ****  ****    0  
@<TRIPOS>CRYSIN
   11.6161   17.7966   10.4652   90.0000   90.3467   90.0000    14     1
