@<TRIPOS>MOLECULE
PEJQIF
    84    88     2     0     0
SMALL
USER_CHARGES
****
Generated from the CSD

@<TRIPOS>ATOM
     1 Fe1      0.0000   0.0000   0.0000   Fe        1 RES1   2.0000
     2 Cl1      4.9504  -1.4228   3.6185   Cl        1 RES1   0.0000
     3 Cl2     -4.6638  -4.2253   0.7687   Cl        1 RES1   0.0000
     4 Cl3      4.8465  -1.9571  -2.9058   Cl        1 RES1   0.0000
     5 N1       1.2965   0.4623   1.6834   N.2       1 RES1   0.0000
     6 N2       2.1224   1.5433   1.4624   N.2       1 RES1   0.0000
     7 N3       2.8884   1.7070   2.4416   N.2       1 RES1   0.0000
     8 N4       2.5638   0.6422   3.2410   N.pl3     1 RES1   0.0000
     9 N5      -1.2489  -1.2789   1.2372   N.2       1 RES1   0.0000
    10 N6       1.3117  -1.6818  -0.4896   N.2       1 RES1   0.0000
    11 N7      -2.2886  -0.5540   1.7860   N.2       1 RES1   0.0000
    12 N8       2.1748  -2.1459   0.5107   N.2       1 RES1   0.0000
    13 N9      -3.0825  -1.3095   2.4416   N.2       1 RES1   0.0000
    14 N10     -2.5092  -2.5309   2.2946   N.pl3     1 RES1   0.0000
    15 N11      2.8961  -3.0831  -0.0677   N.2       1 RES1   0.0000
    16 N12      2.5496  -3.1263  -1.3789   N.pl3     1 RES1   0.0000
    17 C1       1.6418  -0.1151   2.7599   C.2       1 RES1   0.0000
    18 C2       3.1145   0.3436   4.5670   C.3       1 RES1   0.0000
    19 C3       4.5976   0.2177   4.3238   C.3       1 RES1   0.0000
    20 C4      -1.4613  -2.5561   1.5407   C.2       1 RES1   0.0000
    21 C5       1.5992  -2.2305  -1.5872   C.2       1 RES1   0.0000
    22 C6      -3.0321  -3.7918   2.8614   C.3       1 RES1   0.0000
    23 C7       3.0281  -3.9429  -2.4723   C.3       1 RES1   0.0000
    24 C8      -4.4293  -3.6659   2.5600   C.3       1 RES1   0.0000
    25 C9       4.4287  -3.6695  -2.9682   C.3       1 RES1   0.0000
    26 H1       1.1965  -1.0145   3.2294   H         1 RES1   0.0000
    27 H2       2.8697   1.1404   5.2966   H         1 RES1   0.0000
    28 H3       2.6899  -0.6098   4.9276   H         1 RES1   0.0000
    29 H4       5.0877   0.3759   5.2871   H         1 RES1   0.0000
    30 H5       4.8777   1.0217   3.5952   H         1 RES1   0.0000
    31 H6      -0.8516  -3.4357   1.2901   H         1 RES1   0.0000
    32 H7       1.1300  -2.0416  -2.5621   H         1 RES1   0.0000
    33 H8      -2.6113  -4.6246   2.2840   H         1 RES1   0.0000
    34 H9      -2.8025  -3.9033   3.9442   H         1 RES1   0.0000
    35 H10      2.9430  -5.0384  -2.2417   H         1 RES1   0.0000
    36 H11      2.3762  -3.6893  -3.3140   H         1 RES1   0.0000
    37 H12     -4.6877  -2.6298   2.7282   H         1 RES1   0.0000
    38 H13     -4.9748  -4.2523   3.3118   H         1 RES1   0.0000
    39 H14      4.6273  -4.1444  -3.9421   H         1 RES1   0.0000
    40 H15      5.0578  -4.0886  -2.1677   H         1 RES1   0.0000
    41 Cl1B    -4.9504   1.4228  -3.6185   Cl        1 RES1   0.0000
    42 Cl2B     4.6638   4.2253  -0.7687   Cl        1 RES1   0.0000
    43 Cl3B    -4.8465   1.9571   2.9058   Cl        1 RES1   0.0000
    44 N1B     -1.2965  -0.4623  -1.6834   N.2       1 RES1   0.0000
    45 N2B     -2.1224  -1.5433  -1.4624   N.2       1 RES1   0.0000
    46 N3B     -2.8884  -1.7070  -2.4416   N.2       1 RES1   0.0000
    47 N4B     -2.5638  -0.6422  -3.2410   N.pl3     1 RES1   0.0000
    48 N5B      1.2489   1.2789  -1.2372   N.2       1 RES1   0.0000
    49 N6B     -1.3117   1.6818   0.4896   N.2       1 RES1   0.0000
    50 N7B      2.2886   0.5540  -1.7860   N.2       1 RES1   0.0000
    51 N8B     -2.1748   2.1459  -0.5107   N.2       1 RES1   0.0000
    52 N9B      3.0825   1.3095  -2.4416   N.2       1 RES1   0.0000
    53 N10B     2.5092   2.5309  -2.2946   N.pl3     1 RES1   0.0000
    54 N11B    -2.8961   3.0831   0.0677   N.2       1 RES1   0.0000
    55 N12B    -2.5496   3.1263   1.3789   N.pl3     1 RES1   0.0000
    56 C1B     -1.6418   0.1151  -2.7599   C.2       1 RES1   0.0000
    57 C2B     -3.1145  -0.3436  -4.5670   C.3       1 RES1   0.0000
    58 C3B     -4.5976  -0.2177  -4.3238   C.3       1 RES1   0.0000
    59 C4B      1.4613   2.5561  -1.5407   C.2       1 RES1   0.0000
    60 C5B     -1.5992   2.2305   1.5872   C.2       1 RES1   0.0000
    61 C6B      3.0321   3.7918  -2.8614   C.3       1 RES1   0.0000
    62 C7B     -3.0281   3.9429   2.4723   C.3       1 RES1   0.0000
    63 C8B      4.4293   3.6659  -2.5600   C.3       1 RES1   0.0000
    64 C9B     -4.4287   3.6695   2.9682   C.3       1 RES1   0.0000
    65 H1B     -1.1965   1.0145  -3.2294   H         1 RES1   0.0000
    66 H2B     -2.8697  -1.1404  -5.2966   H         1 RES1   0.0000
    67 H3B     -2.6899   0.6098  -4.9276   H         1 RES1   0.0000
    68 H4B     -5.0877  -0.3759  -5.2871   H         1 RES1   0.0000
    69 H5B     -4.8777  -1.0217  -3.5952   H         1 RES1   0.0000
    70 H6B      0.8516   3.4357  -1.2901   H         1 RES1   0.0000
    71 H7B     -1.1300   2.0416   2.5621   H         1 RES1   0.0000
    72 H8B      2.6113   4.6246  -2.2840   H         1 RES1   0.0000
    73 H9B      2.8025   3.9033  -3.9442   H         1 RES1   0.0000
    74 H10B    -2.9430   5.0384   2.2417   H         1 RES1   0.0000
    75 H11B    -2.3762   3.6893   3.3140   H         1 RES1   0.0000
    76 H12B     4.6877   2.6298  -2.7282   H         1 RES1   0.0000
    77 H13B     4.9748   4.2523  -3.3118   H         1 RES1   0.0000
    78 H14B    -4.6273   4.1444   3.9421   H         1 RES1   0.0000
    79 H15B    -5.0578   4.0886   2.1677   H         1 RES1   0.0000
    80 Cl4     -0.1011   5.9323   0.1311   Cl        2 RES2   0.0000
    81 O1       0.2785   5.7165  -1.6348   O.3       2 RES2  -1.0000
    82 O2       1.2114   6.6015   0.9644   O.2       2 RES2   0.0000
    83 O3      -1.4727   7.0008   0.2971   O.2       2 RES2   0.0000
    84 O4      -0.3922   4.3404   0.8681   O.2       2 RES2   0.0000
@<TRIPOS>BOND
     1     1     5    1
     2     2    19    1
     3     3    24    1
     4     4    25    1
     5     5     6    1
     6     6     7    2
     7     7     8    1
     8     8    17    1
     9     9     1    1
    10    10     1    1
    11    11     9    1
    12    12    10    1
    13    13    11    2
    14    14    13    1
    15    15    12    2
    16    16    15    1
    17    17     5    2
    18    18     8    1
    19    19    18    1
    20    20     9    2
    21    21    10    2
    22    22    14    1
    23    23    16    1
    24    24    22    1
    25    25    23    1
    26    26    17    1
    27    27    18    1
    28    28    18    1
    29    29    19    1
    30    30    19    1
    31    31    20    1
    32    32    21    1
    33    33    22    1
    34    34    22    1
    35    35    23    1
    36    36    23    1
    37    37    24    1
    38    38    24    1
    39    39    25    1
    40    40    25    1
    41    41    58    1
    42    42    63    1
    43    43    64    1
    44    44     1    1
    45    45    44    1
    46    46    45    2
    47    47    46    1
    48    48     1    1
    49    49     1    1
    50    50    48    1
    51    51    49    1
    52    52    50    2
    53    53    52    1
    54    54    51    2
    55    55    54    1
    56    56    44    2
    57    57    47    1
    58    58    57    1
    59    59    48    2
    60    60    49    2
    61    61    53    1
    62    62    55    1
    63    63    61    1
    64    64    62    1
    65    65    56    1
    66    66    57    1
    67    67    57    1
    68    68    58    1
    69    69    58    1
    70    70    59    1
    71    71    60    1
    72    72    61    1
    73    73    61    1
    74    74    62    1
    75    75    62    1
    76    76    63    1
    77    77    63    1
    78    78    64    1
    79    79    64    1
    80    14    20    1
    81    16    21    1
    82    47    56    1
    83    53    59    1
    84    55    60    1
    85    80    81    1
    86    82    80    2
    87    83    80    2
    88    84    80    2
@<TRIPOS>SUBSTRUCTURE
     1 RES1        1 GROUP             0 ****  ****    0  
     2 RES2       80 GROUP             0 ****  ****    0  
@<TRIPOS>CRYSIN
   12.1657   17.9877   10.5748   90.0000   90.5937   90.0000    14     1
