@<TRIPOS>MOLECULE
PEMDEQ
    94    92     2     0     0
SMALL
USER_CHARGES
****
Generated from the CSD

@<TRIPOS>ATOM
     1 Gd1      4.7610   0.2612   4.8492   Gd        1 RES1   3.0000
     2 S1       3.5434   2.4877   2.3224   S.o       1 RES1   0.0000
     3 S2       2.3302  -1.1365   2.6593   S.o       1 RES1   0.0000
     4 S3       6.8415  -2.0284   3.0063   S.o       1 RES1   0.0000
     5 S4       7.3734   1.9242   3.0724   S.o       1 RES1   0.0000
     6 O1       4.4970   2.1868   3.4739   O.2       1 RES1   0.0000
     7 O2       3.6291  -0.3902   2.8668   O.2       1 RES1   0.0000
     8 O3       5.9690  -1.7307   4.2033   O.2       1 RES1   0.0000
     9 O4       6.9525   0.8600   4.0714   O.2       1 RES1   0.0000
    10 C1       3.7346   4.2269   2.0619   C.3       1 RES1   0.0000
    11 H1       3.2449   4.4916   1.2550   H         1 RES1   0.0000
    12 H2       4.6844   4.4384   1.9532   H         1 RES1   0.0000
    13 H3       3.3784   4.7127   2.8358   H         1 RES1   0.0000
    14 C2       4.3769   1.9359   0.8418   C.3       1 RES1   0.0000
    15 H4       3.8177   2.1294   0.0601   H         1 RES1   0.0000
    16 H5       4.5373   0.9706   0.8961   H         1 RES1   0.0000
    17 H6       5.2336   2.4047   0.7545   H         1 RES1   0.0000
    18 C3       1.8767  -0.8239   0.9718   C.3       1 RES1   0.0000
    19 H7       1.6669   0.1276   0.8612   H         1 RES1   0.0000
    20 H8       1.0906  -1.3608   0.7390   H         1 RES1   0.0000
    21 H9       2.6230  -1.0642   0.3821   H         1 RES1   0.0000
    22 C4       2.7767  -2.8162   2.5371   C.3       1 RES1   0.0000
    23 H10      1.9735  -3.3573   2.3839   H         1 RES1   0.0000
    24 H11      3.2077  -3.1011   3.3692   H         1 RES1   0.0000
    25 H12      3.3985  -2.9352   1.7903   H         1 RES1   0.0000
    26 C5       6.5433  -3.7294   2.6321   C.3       1 RES1   0.0000
    27 H13      7.1908  -4.0345   1.9629   H         1 RES1   0.0000
    28 H14      5.6353  -3.8314   2.2791   H         1 RES1   0.0000
    29 H15      6.6398  -4.2641   3.4487   H         1 RES1   0.0000
    30 C6       8.4902  -2.2336   3.6815   C.3       1 RES1   0.0000
    31 H16      9.0945  -2.5525   2.9774   H         1 RES1   0.0000
    32 H17      8.4663  -2.8874   4.4108   H         1 RES1   0.0000
    33 H18      8.8135  -1.3735   4.0229   H         1 RES1   0.0000
    34 C7       7.5692   3.4126   4.0306   C.3       1 RES1   0.0000
    35 H19      6.6878   3.7410   4.3080   H         1 RES1   0.0000
    36 H20      8.0151   4.0951   3.4875   H         1 RES1   0.0000
    37 H21      8.1110   3.2212   4.8240   H         1 RES1   0.0000
    38 C8       9.0925   1.5511   2.7369   C.3       1 RES1   0.0000
    39 H22      9.4659   2.2378   2.1453   H         1 RES1   0.0000
    40 H23      9.1570   0.6751   2.3004   H         1 RES1   0.0000
    41 H24      9.5936   1.5351   3.5787   H         1 RES1   0.0000
    42 O1A      5.0250   2.1868   6.2244   O.2       1 RES1   0.0000
    43 S1A      5.9786   2.4877   7.3760   S.o       1 RES1   0.0000
    44 C1A      5.7874   4.2269   7.6365   C.3       1 RES1   0.0000
    45 H1A      6.2771   4.4916   8.4434   H         1 RES1   0.0000
    46 H2A      4.8376   4.4384   7.7451   H         1 RES1   0.0000
    47 H3A      6.1436   4.7127   6.8625   H         1 RES1   0.0000
    48 C2A      5.1451   1.9359   8.8565   C.3       1 RES1   0.0000
    49 H4A      5.7043   2.1294   9.6382   H         1 RES1   0.0000
    50 H5A      4.9847   0.9706   8.8022   H         1 RES1   0.0000
    51 H6A      4.2884   2.4047   8.9438   H         1 RES1   0.0000
    52 O2A      5.8929  -0.3902   6.8315   O.2       1 RES1   0.0000
    53 S2A      7.1918  -1.1365   7.0391   S.o       1 RES1   0.0000
    54 C3A      7.6453  -0.8239   8.7266   C.3       1 RES1   0.0000
    55 H7A      7.8551   0.1276   8.8371   H         1 RES1   0.0000
    56 H8A      8.4314  -1.3608   8.9593   H         1 RES1   0.0000
    57 H9A      6.8990  -1.0642   9.3162   H         1 RES1   0.0000
    58 C4A      6.7453  -2.8162   7.1613   C.3       1 RES1   0.0000
    59 H10A     7.5485  -3.3573   7.3145   H         1 RES1   0.0000
    60 H11A     6.3142  -3.1011   6.3291   H         1 RES1   0.0000
    61 H12A     6.1235  -2.9352   7.9080   H         1 RES1   0.0000
    62 O3A      3.5530  -1.7307   5.4951   O.2       1 RES1   0.0000
    63 S3A      2.6805  -2.0284   6.6920   S.o       1 RES1   0.0000
    64 C5A      2.9787  -3.7294   7.0662   C.3       1 RES1   0.0000
    65 H13A     2.3312  -4.0345   7.7354   H         1 RES1   0.0000
    66 H14A     3.8867  -3.8314   7.4192   H         1 RES1   0.0000
    67 H15A     2.8822  -4.2641   6.2496   H         1 RES1   0.0000
    68 C6A      1.0318  -2.2336   6.0168   C.3       1 RES1   0.0000
    69 H16A     0.4275  -2.5525   6.7209   H         1 RES1   0.0000
    70 H17A     1.0557  -2.8874   5.2875   H         1 RES1   0.0000
    71 H18A     0.7085  -1.3735   5.6755   H         1 RES1   0.0000
    72 O4A      2.5695   0.8600   5.6270   O.2       1 RES1   0.0000
    73 S4A      2.1486   1.9242   6.6259   S.o       1 RES1   0.0000
    74 C7A      1.9528   3.4126   5.6677   C.3       1 RES1   0.0000
    75 H19A     2.8342   3.7410   5.3903   H         1 RES1   0.0000
    76 H20A     1.5069   4.0951   6.2108   H         1 RES1   0.0000
    77 H21A     1.4110   3.2212   4.8744   H         1 RES1   0.0000
    78 C8A      0.4295   1.5511   6.9615   C.3       1 RES1   0.0000
    79 H22A     0.0561   2.2378   7.5531   H         1 RES1   0.0000
    80 H23A     0.3650   0.6751   7.3979   H         1 RES1   0.0000
    81 H24A    -0.0716   1.5351   6.1197   H         1 RES1   0.0000
    82 Fe1      0.0000   5.3155   0.0000   Fe        2 RES2  -3.0000
    83 N1      -2.8004   4.1248   0.6032   N.1       2 RES2   0.0000
    84 N2       0.5471   5.2825   3.0336   N.1       2 RES2   0.0000
    85 N3      -1.1398   8.1859   0.2425   N.1       2 RES2   0.0000
    86 C9      -1.7641   4.5671   0.3705   C.1       2 RES2   0.0000
    87 C10      0.3421   5.3006   1.9125   C.1       2 RES2   0.0000
    88 C11     -0.7054   7.1206   0.1474   C.1       2 RES2   0.0000
    89 C9B      1.7641   6.0639  -0.3705   C.1       2 RES2   0.0000
    90 N1B      2.8004   6.5062  -0.6032   N.1       2 RES2   0.0000
    91 C10B    -0.3421   5.3304  -1.9125   C.1       2 RES2   0.0000
    92 N2B     -0.5471   5.3485  -3.0336   N.1       2 RES2   0.0000
    93 C11B     0.7054   3.5104  -0.1474   C.1       2 RES2   0.0000
    94 N3B      1.1398   2.4451  -0.2425   N.1       2 RES2   0.0000
@<TRIPOS>BOND
     1     1     6    1
     2     2     6    2
     3     3     7    2
     4     4     8    2
     5     5     9    2
     6     7     1    1
     7     8     1    1
     8     9     1    1
     9    10     2    1
    10    11    10    1
    11    12    10    1
    12    13    10    1
    13    14     2    1
    14    15    14    1
    15    16    14    1
    16    17    14    1
    17    18     3    1
    18    19    18    1
    19    20    18    1
    20    21    18    1
    21    22     3    1
    22    23    22    1
    23    24    22    1
    24    25    22    1
    25    26     4    1
    26    27    26    1
    27    28    26    1
    28    29    26    1
    29    30     4    1
    30    31    30    1
    31    32    30    1
    32    33    30    1
    33    34     5    1
    34    35    34    1
    35    36    34    1
    36    37    34    1
    37    38     5    1
    38    39    38    1
    39    40    38    1
    40    41    38    1
    41    42     1    1
    42    43    42    2
    43    44    43    1
    44    45    44    1
    45    46    44    1
    46    47    44    1
    47    48    43    1
    48    49    48    1
    49    50    48    1
    50    51    48    1
    51    52     1    1
    52    53    52    2
    53    54    53    1
    54    55    54    1
    55    56    54    1
    56    57    54    1
    57    58    53    1
    58    59    58    1
    59    60    58    1
    60    61    58    1
    61    62     1    1
    62    63    62    2
    63    64    63    1
    64    65    64    1
    65    66    64    1
    66    67    64    1
    67    68    63    1
    68    69    68    1
    69    70    68    1
    70    71    68    1
    71    72     1    1
    72    73    72    2
    73    74    73    1
    74    75    74    1
    75    76    74    1
    76    77    74    1
    77    78    73    1
    78    79    78    1
    79    80    78    1
    80    81    78    1
    81    82    86    1
    82    83    86    3
    83    84    87    3
    84    85    88    3
    85    87    82    1
    86    88    82    1
    87    89    82    1
    88    90    89    3
    89    91    82    1
    90    92    91    3
    91    93    82    1
    92    94    93    3
@<TRIPOS>SUBSTRUCTURE
     1 RES1        1 GROUP             0 ****  ****    0  
     2 RES2       82 GROUP             0 ****  ****    0  
@<TRIPOS>CRYSIN
    9.9200   10.6310   19.4130   90.0000   92.3500   90.0000    13     1
