@<TRIPOS>MOLECULE
PEPNUW
    83    92     4     0     0
SMALL
USER_CHARGES
****
Generated from the CSD

@<TRIPOS>ATOM
     1 Fe1      5.6576   3.8466   5.8463   Fe        1 RES1   2.0000
     2 N1       6.3704   5.6831   6.0734   N.ar      1 RES1   0.0000
     3 N2       4.2041   4.5742   4.7324   N.ar      1 RES1   0.0000
     4 N3       4.3046   4.0122   7.2838   N.ar      1 RES1   0.0000
     5 N4       5.0996   1.9790   5.5842   N.ar      1 RES1   0.0000
     6 N5       6.9750   3.0252   7.0811   N.ar      1 RES1   0.0000
     7 N6       6.9664   3.8023   4.3699   N.ar      1 RES1   0.0000
     8 C1       3.0414   4.7943   5.4380   C.ar      1 RES1   0.0000
     9 C2       7.6240   4.9924   4.2023   C.ar      1 RES1   0.0000
    10 C3       1.9533   4.6707   7.6463   C.ar      1 RES1   0.0000
    11 C4       7.2822   6.0149   5.1339   C.ar      1 RES1   0.0000
    12 C5       3.1052   5.5239   2.8437   C.ar      1 RES1   0.0000
    13 H1       3.1614   5.8050   1.9588   H         1 RES1   0.0000
    14 C6       6.8366   1.6353   7.1396   C.ar      1 RES1   0.0000
    15 C7       7.8814   7.2659   5.0462   C.ar      1 RES1   0.0000
    16 C8       3.0944   4.4828   6.8257   C.ar      1 RES1   0.0000
    17 C9       5.8134   1.1038   6.2995   C.ar      1 RES1   0.0000
    18 C10      1.8700   5.2920   4.8689   C.ar      1 RES1   0.0000
    19 C11      5.6231  -0.2996   6.2819   C.ar      1 RES1   0.0000
    20 C12      7.2800   2.8119   3.5532   C.ar      1 RES1   0.0000
    21 H2       6.8561   1.9892   3.6487   H         1 RES1   0.0000
    22 C13      2.1047   4.3524   9.0068   C.ar      1 RES1   0.0000
    23 C14      8.7261   2.8339   8.6599   C.ar      1 RES1   0.0000
    24 H3       9.3729   3.2639   9.1725   H         1 RES1   0.0000
    25 C15      1.9274   5.6814   3.5357   C.ar      1 RES1   0.0000
    26 H4       1.1800   6.0437   3.1186   H         1 RES1   0.0000
    27 C16      8.5476   5.2378   3.1907   C.ar      1 RES1   0.0000
    28 C17      4.1219   1.4627   4.8201   C.ar      1 RES1   0.0000
    29 C18      9.1057   6.5075   3.0874   C.ar      1 RES1   0.0000
    30 H5       9.6919   6.6836   2.3857   H         1 RES1   0.0000
    31 C19      8.8570   4.1730   2.3721   C.ar      1 RES1   0.0000
    32 C20      7.6262   0.8211   7.9504   C.ar      1 RES1   0.0000
    33 C21      0.7149   5.4613   5.7187   C.ar      1 RES1   0.0000
    34 H6      -0.0779   5.7829   5.3542   H         1 RES1   0.0000
    35 C22      0.7679   5.1600   7.0421   C.ar      1 RES1   0.0000
    36 H7       0.0087   5.2785   7.5664   H         1 RES1   0.0000
    37 C23      8.6071   1.4457   8.7437   C.ar      1 RES1   0.0000
    38 H8       9.1587   0.9497   9.3050   H         1 RES1   0.0000
    39 C24      3.3053   3.9072   9.4629   C.ar      1 RES1   0.0000
    40 C25      4.2192   4.9483   3.4597   C.ar      1 RES1   0.0000
    41 H9       4.9947   4.8214   2.9607   H         1 RES1   0.0000
    42 C26      6.4526  -1.0919   7.0928   C.ar      1 RES1   0.0000
    43 H10      6.3402  -2.0146   7.0655   H         1 RES1   0.0000
    44 C27      7.9257   3.5720   7.8568   C.ar      1 RES1   0.0000
    45 H11      8.0382   4.4946   7.8412   H         1 RES1   0.0000
    46 C28      7.4910   8.2190   5.9857   C.ar      1 RES1   0.0000
    47 H12      7.8630   9.0723   5.9681   H         1 RES1   0.0000
    48 C29      3.8623   0.1083   4.7032   C.ar      1 RES1   0.0000
    49 H13      3.2069  -0.2015   4.1223   H         1 RES1   0.0000
    50 C30      7.3914  -0.5976   7.8978   C.ar      1 RES1   0.0000
    51 H14      7.8965  -1.1715   8.4279   H         1 RES1   0.0000
    52 C31      5.9897   6.6226   6.9368   C.ar      1 RES1   0.0000
    53 C32      8.2545   2.9812   2.5260   C.ar      1 RES1   0.0000
    54 H15      8.4719   2.2719   1.9666   H         1 RES1   0.0000
    55 C33      6.5413   7.8872   6.9485   C.ar      1 RES1   0.0000
    56 C34      8.8364   7.4623   3.9372   C.ar      1 RES1   0.0000
    57 H16      9.2572   8.2867   3.8436   H         1 RES1   0.0000
    58 C35      4.5869  -0.7567   5.4575   C.ar      1 RES1   0.0000
    59 H17      4.3933  -1.6658   5.4263   H         1 RES1   0.0000
    60 C36      4.3814   3.7599   8.6072   C.ar      1 RES1   0.0000
    61 H18      3.6557   2.0653   4.2295   H         1 RES1   0.0000
    62 H19      6.2082   8.5661   7.7769   H         1 RES1   0.0000
    63 H20      9.3015   4.3677   1.6762   H         1 RES1   0.0000
    64 H21      5.6782   6.3484   7.7574   H         1 RES1   0.0000
    65 H22      5.2240   3.3181   8.6930   H         1 RES1   0.0000
    66 H23      1.3736   4.3677   9.6091   H         1 RES1   0.0000
    67 H24      3.3529   3.7413  10.4862   H         1 RES1   0.0000
    68 B1       6.5165  -1.2155   1.9881   B         2 RES2  -1.0000
    69 F1       6.6073  -2.2245   2.7950   F         2 RES2   0.0000
    70 F2       7.6943  -1.1275   1.3605   F         2 RES2   0.0000
    71 F3       5.6015  -1.5067   1.1363   F         2 RES2   0.0000
    72 F4       6.3348  -0.0796   2.6332   F         2 RES2   0.0000
    73 C37      6.6041   6.7394   0.5906   C.2       3 RES3   0.0000
    74 C38      6.3012   7.7772   1.6119   C.2       3 RES3   0.0000
    75 O1       6.2298   5.6120   0.5789   O.2       3 RES3   0.0000
    76 O2       5.7064   7.6282   2.6176   O.2       3 RES3   0.0000
    77 O3       6.8323   8.8945   1.1948   O.3       3 RES3   0.0000
    78 O4       7.3482   7.2558  -0.3645   O.3       3 RES3   0.0000
    79 B2       7.5699   8.6253  -0.0916   B         3 RES3  -1.0000
    80 F5       8.9370   8.8996   0.1871   F         3 RES3   0.0000
    81 F6       7.1654   9.4870  -1.0369   F         3 RES3   0.0000
    82 O5      10.3074  -2.1263   1.3137   O.3       4 RES4   0.0000
    83 H25      9.6584  -1.1850   1.2864   H         4 RES4   0.0000
@<TRIPOS>BOND
     1     1     2    1
     2     2    11   ar
     3     3     1    1
     4     4     1    1
     5     5     1    1
     6     6     1    1
     7     7     1    1
     8     8     3   ar
     9     9     7   ar
    10    10    16   ar
    11    11     9   ar
    12    12    13    1
    13    14     6   ar
    14    15    11   ar
    15    16     4   ar
    16    17     5   ar
    17    18     8   ar
    18    19    17   ar
    19    20     7   ar
    20    21    20    1
    21    22    10   ar
    22    23    24    1
    23    25    12   ar
    24    26    25    1
    25    27     9   ar
    26    28     5   ar
    27    29    27   ar
    28    30    29    1
    29    31    27   ar
    30    32    14   ar
    31    33    18   ar
    32    34    33    1
    33    35    10   ar
    34    36    35    1
    35    37    23   ar
    36    38    37    1
    37    39    22   ar
    38    40     3   ar
    39    41    40    1
    40    42    19   ar
    41    43    42    1
    42    44     6   ar
    43    45    44    1
    44    46    15   ar
    45    47    46    1
    46    48    28   ar
    47    49    48    1
    48    50    32   ar
    49    51    50    1
    50    52     2   ar
    51    53    20   ar
    52    54    53    1
    53    55    46   ar
    54    56    15   ar
    55    57    56    1
    56    58    19   ar
    57    59    58    1
    58    60     4   ar
    59    61    28    1
    60    62    55    1
    61    63    31    1
    62    64    52    1
    63    65    60    1
    64    66    22    1
    65    67    39    1
    66     8    16   ar
    67    12    40   ar
    68    14    17   ar
    69    18    25   ar
    70    23    44   ar
    71    29    56   ar
    72    31    53   ar
    73    32    37   ar
    74    33    35   ar
    75    39    60   ar
    76    42    50   ar
    77    48    58   ar
    78    52    55   ar
    79    68    69    1
    80    70    68    1
    81    71    68    1
    82    72    68    1
    83    73    74    1
    84    74    76    2
    85    75    73    2
    86    77    74    1
    87    78    73    1
    88    79    77    1
    89    80    79    1
    90    81    79    1
    91    78    79    1
    92    82    83    1
@<TRIPOS>SUBSTRUCTURE
     1 RES1        1 GROUP             0 ****  ****    0  
     2 RES2       68 GROUP             0 ****  ****    0  
     3 RES3       73 GROUP             0 ****  ****    0  
     4 RES4       82 GROUP             0 ****  ****    0  
@<TRIPOS>CRYSIN
   10.8157   16.9290   19.4910   90.0000   90.0000   90.0000    29     1
