@<TRIPOS>MOLECULE
PEPPAE
    75    78     1     0     0
SMALL
NO_CHARGES
****
Generated from the CSD

@<TRIPOS>ATOM
     1 Se1      5.9674   4.3719   2.7555   Se        1 RES1   0.0000
     2 Fe1      5.5423   2.1702   1.6885   Fe        1 RES1   0.0000
     3 H1       5.3293   1.6769   2.9760   H         1 RES1   0.0000
     4 C1       5.7558   4.7814  -0.7271   C.3       1 RES1   0.0000
     5 H2       6.0803   4.9978  -1.6038   H         1 RES1   0.0000
     6 H3       6.1683   5.3604  -0.0802   H         1 RES1   0.0000
     7 H4       4.8036   4.8995  -0.7003   H         1 RES1   0.0000
     8 C2       5.6202   2.2942  -1.9317   C.3       1 RES1   0.0000
     9 H5       6.0005   2.7963  -2.6552   H         1 RES1   0.0000
    10 H6       4.6614   2.3308  -1.9834   H         1 RES1   0.0000
    11 H7       5.9093   1.3808  -1.9887   H         1 RES1   0.0000
    12 C3       7.9973   3.0690  -0.6397   C.3       1 RES1   0.0000
    13 H8       8.1639   3.4352  -1.5112   H         1 RES1   0.0000
    14 H9       8.3581   2.1799  -0.5934   H         1 RES1   0.0000
    15 H10      8.4177   3.6189   0.0249   H         1 RES1   0.0000
    16 C4       8.9465   2.8535   2.6873   C.3       1 RES1   0.0000
    17 H11      9.6787   2.4666   3.1738   H         1 RES1   0.0000
    18 H12      8.6936   3.6844   3.0954   H         1 RES1   0.0000
    19 H13      9.2145   3.0118   1.7785   H         1 RES1   0.0000
    20 C5       8.5181   0.1621   2.4503   C.3       1 RES1   0.0000
    21 H14      9.3029   0.2023   3.0027   H         1 RES1   0.0000
    22 H15      8.7792   0.1040   1.5290   H         1 RES1   0.0000
    23 H16      8.0011  -0.6108   2.6855   H         1 RES1   0.0000
    24 C6       7.2800   1.5682   4.5602   C.3       1 RES1   0.0000
    25 H17      8.1219   1.3640   4.9719   H         1 RES1   0.0000
    26 H18      6.6483   0.8731   4.7616   H         1 RES1   0.0000
    27 H19      6.9532   2.4048   4.8988   H         1 RES1   0.0000
    28 C7       6.5389  -0.6820  -0.1123   C.3       1 RES1   0.0000
    29 H20      6.2746  -1.5776  -0.3368   H         1 RES1   0.0000
    30 H21      7.3795  -0.7017   0.3493   H         1 RES1   0.0000
    31 H22      6.6281  -0.1649  -0.9160   H         1 RES1   0.0000
    32 C8       5.0933  -1.1860   2.3113   C.3       1 RES1   0.0000
    33 H23      4.9723  -2.0507   1.9121   H         1 RES1   0.0000
    34 H24      4.3369  -0.9790   2.8655   H         1 RES1   0.0000
    35 H25      5.8903  -1.1897   2.8459   H         1 RES1   0.0000
    36 C9       3.7917  -0.3916  -0.0196   C.3       1 RES1   0.0000
    37 H26      3.8422  -1.3274  -0.2281   H         1 RES1   0.0000
    38 H27      3.7805   0.1171  -0.8340   H         1 RES1   0.0000
    39 H28      2.9900  -0.2173   0.4794   H         1 RES1   0.0000
    40 C10      2.5645   3.7322   0.5863   C.ar      1 RES1   0.0000
    41 C11      2.3188   3.1486  -0.6896   C.ar      1 RES1   0.0000
    42 H29      2.5275   2.2530  -0.8304   H         1 RES1   0.0000
    43 C12      1.7710   3.8924  -1.7268   C.ar      1 RES1   0.0000
    44 H30      1.6268   3.4896  -2.5536   H         1 RES1   0.0000
    45 C13      1.4433   5.2039  -1.5521   C.ar      1 RES1   0.0000
    46 H31      1.0729   5.6901  -2.2525   H         1 RES1   0.0000
    47 C14      1.6650   5.8091  -0.3279   C.ar      1 RES1   0.0000
    48 H32      1.4499   6.7056  -0.2032   H         1 RES1   0.0000
    49 C15      2.2198   5.0634   0.7324   C.ar      1 RES1   0.0000
    50 H33      2.3594   5.4784   1.5539   H         1 RES1   0.0000
    51 C16      3.2131   3.8999   3.3270   C.ar      1 RES1   0.0000
    52 C17      4.3347   4.6690   3.6834   C.ar      1 RES1   0.0000
    53 C18      4.2065   5.6564   4.6707   C.ar      1 RES1   0.0000
    54 H34      4.9435   6.1773   4.8970   H         1 RES1   0.0000
    55 C19      2.9905   5.8691   5.3176   C.ar      1 RES1   0.0000
    56 H35      2.9207   6.5211   5.9769   H         1 RES1   0.0000
    57 C20      1.8728   5.0915   4.9701   C.ar      1 RES1   0.0000
    58 H36      1.0597   5.2320   5.3978   H         1 RES1   0.0000
    59 C21      1.9785   4.1144   3.9864   C.ar      1 RES1   0.0000
    60 H37      1.2376   3.6001   3.7619   H         1 RES1   0.0000
    61 C22      2.1427   1.4820   2.3345   C.ar      1 RES1   0.0000
    62 C23      2.3821   0.7054   3.4981   C.ar      1 RES1   0.0000
    63 H38      3.1316   0.8712   4.0220   H         1 RES1   0.0000
    64 C24      1.4973  -0.2979   3.8545   C.ar      1 RES1   0.0000
    65 H39      1.6637  -0.8047   4.6154   H         1 RES1   0.0000
    66 C25      0.3666  -0.5611   3.0954   C.ar      1 RES1   0.0000
    67 H40     -0.2037  -1.2628   3.3110   H         1 RES1   0.0000
    68 C26      0.1203   0.2520   2.0137   C.ar      1 RES1   0.0000
    69 H41     -0.6606   0.1265   1.5236   H         1 RES1   0.0000
    70 C27      0.9863   1.2366   1.6395   C.ar      1 RES1   0.0000
    71 H42      0.7882   1.7556   0.8928   H         1 RES1   0.0000
    72 P1       6.1738   3.0118  -0.3304   P.3       1 RES1   0.0000
    73 P2       7.5031   1.6900   2.7108   P.3       1 RES1   0.0000
    74 P3       5.2511   0.0899   0.9810   P.3       1 RES1   0.0000
    75 P4       3.4328   2.7541   1.8998   P.3       1 RES1   0.0000
@<TRIPOS>BOND
     1     1     2    1
     2     2     3    1
     3     4     5    1
     4     6     4    1
     5     7     4    1
     6     8     9    1
     7    10     8    1
     8    11     8    1
     9    12    13    1
    10    14    12    1
    11    15    12    1
    12    16    17    1
    13    18    16    1
    14    19    16    1
    15    20    21    1
    16    22    20    1
    17    23    20    1
    18    24    25    1
    19    26    24    1
    20    27    24    1
    21    28    29    1
    22    30    28    1
    23    31    28    1
    24    32    33    1
    25    34    32    1
    26    35    32    1
    27    36    37    1
    28    38    36    1
    29    39    36    1
    30    40    41   ar
    31    41    42    1
    32    43    41   ar
    33    44    43    1
    34    45    43   ar
    35    46    45    1
    36    47    45   ar
    37    48    47    1
    38    49    40   ar
    39    50    49    1
    40    51    52   ar
    41    52     1    1
    42    53    52   ar
    43    54    53    1
    44    55    53   ar
    45    56    55    1
    46    57    55   ar
    47    58    57    1
    48    59    51   ar
    49    60    59    1
    50    61    62   ar
    51    62    63    1
    52    64    62   ar
    53    65    64    1
    54    66    64   ar
    55    67    66    1
    56    68    66   ar
    57    69    68    1
    58    70    61   ar
    59    71    70    1
    60    72     2    1
    61    73     2    1
    62    74     2    1
    63    75     2    1
    64     4    72    1
    65     8    72    1
    66    12    72    1
    67    16    73    1
    68    20    73    1
    69    24    73    1
    70    28    74    1
    71    32    74    1
    72    36    74    1
    73    40    75    1
    74    47    49   ar
    75    51    75    1
    76    57    59   ar
    77    61    75    1
    78    68    70   ar
@<TRIPOS>SUBSTRUCTURE
     1 RES1        1 GROUP             0 ****  ****    0  
@<TRIPOS>CRYSIN
   18.2570    9.3680   18.0830   90.0000   99.7790   90.0000    14     1
