@<TRIPOS>MOLECULE
PEPWIS
    77    79     3     0     0
SMALL
USER_CHARGES
****
Generated from the CSD

@<TRIPOS>ATOM
     1 Fe1     -0.7111   2.3911   4.5201   Fe        1 RES1   2.0000
     2 O1      -1.8490   3.8285   3.5412   O.2       1 RES1   0.0000
     3 O2      -3.1110   0.5618   3.1598   O.3       1 RES1   0.0000
     4 O3       1.7082   4.5394   5.2806   O.3       1 RES1   0.0000
     5 O4       0.7698   2.2113   3.1167   O.2       1 RES1   0.0000
     6 N1      -2.3221   5.4542   2.0616   N.am      1 RES1   0.0000
     7 N2      -0.0638   0.6734   5.7917   N.3       1 RES1   0.0000
     8 N3      -1.8949   0.7038   3.8443   N.2       1 RES1   0.0000
     9 N4      -1.8272   2.9336   6.3696   N.3       1 RES1   0.0000
    10 N5       0.4481   3.9608   5.4879   N.2       1 RES1   0.0000
    11 N6       1.9439   1.8845   1.2369   N.am      1 RES1   0.0000
    12 C1      -1.6666   4.3827   2.4399   C.2       1 RES1   0.0000
    13 H1      -1.0236   4.0120   1.8473   H         1 RES1   0.0000
    14 C2      -2.0616   6.0840   0.7709   C.3       1 RES1   0.0000
    15 H2      -1.4110   5.5472   0.2706   H         1 RES1   0.0000
    16 H3      -1.7013   6.9849   0.9132   H         1 RES1   0.0000
    17 H4      -2.8964   6.1431   0.2619   H         1 RES1   0.0000
    18 C3      -3.2826   6.0857   2.9557   C.3       1 RES1   0.0000
    19 H5      -3.9097   5.4113   3.2896   H         1 RES1   0.0000
    20 H6      -3.7762   6.7779   2.4689   H         1 RES1   0.0000
    21 H7      -2.8072   6.4934   3.7104   H         1 RES1   0.0000
    22 C4       1.3598   0.7634   6.1945   C.3       1 RES1   0.0000
    23 H8       1.6022  -0.0288   6.7171   H         1 RES1   0.0000
    24 H9       1.4953   1.5675   6.7380   H         1 RES1   0.0000
    25 H10      1.9231   0.8123   5.3936   H         1 RES1   0.0000
    26 C5      -0.2816  -0.5942   5.0479   C.3       1 RES1   0.0000
    27 H11     -0.3383  -1.3523   5.6817   H         1 RES1   0.0000
    28 H12      0.4768  -0.7586   4.4332   H         1 RES1   0.0000
    29 C6      -1.5557  -0.4839   4.2681   C.2       1 RES1   0.0000
    30 C7      -3.4468  -0.7434   3.2122   C.2       1 RES1   0.0000
    31 H13     -4.2308  -1.1132   2.8234   H         1 RES1   0.0000
    32 C8      -2.5203  -1.4525   3.8904   C.2       1 RES1   0.0000
    33 H14     -2.5153  -2.3849   4.0718   H         1 RES1   0.0000
    34 C9      -0.9432   0.7044   6.9926   C.3       1 RES1   0.0000
    35 H15     -0.5175   0.1928   7.7263   H         1 RES1   0.0000
    36 H16     -1.8075   0.2713   6.7782   H         1 RES1   0.0000
    37 C10     -1.1923   2.1303   7.4503   C.3       1 RES1   0.0000
    38 H17     -1.7817   2.1228   8.2449   H         1 RES1   0.0000
    39 H18     -0.3327   2.5479   7.7106   H         1 RES1   0.0000
    40 C11     -1.6161   4.3776   6.6329   C.3       1 RES1   0.0000
    41 H19     -1.7827   4.5694   7.5901   H         1 RES1   0.0000
    42 H20     -2.2551   4.9110   6.0955   H         1 RES1   0.0000
    43 C12     -0.2152   4.7658   6.2787   C.2       1 RES1   0.0000
    44 C13      1.7341   5.6897   5.9806   C.2       1 RES1   0.0000
    45 H21      2.4778   6.2789   6.0187   H         1 RES1   0.0000
    46 C14      0.5613   5.8947   6.6205   C.2       1 RES1   0.0000
    47 H22      0.3167   6.6282   7.1728   H         1 RES1   0.0000
    48 C15     -3.2822   2.6663   6.2919   C.3       1 RES1   0.0000
    49 H23     -3.7172   2.9867   7.1100   H         1 RES1   0.0000
    50 H24     -3.4327   1.7030   6.1985   H         1 RES1   0.0000
    51 H25     -3.6589   3.1326   5.5175   H         1 RES1   0.0000
    52 C16      0.9319   1.6297   2.0226   C.2       1 RES1   0.0000
    53 H26      0.2958   0.9776   1.7530   H         1 RES1   0.0000
    54 C17      2.0917   1.2308  -0.0548   C.3       1 RES1   0.0000
    55 H27      1.4280   0.5144  -0.1362   H         1 RES1   0.0000
    56 H28      2.9925   0.8515  -0.1275   H         1 RES1   0.0000
    57 H29      1.9551   1.8866  -0.7700   H         1 RES1   0.0000
    58 C18      2.8924   2.9288   1.6043   C.3       1 RES1   0.0000
    59 H30      2.4253   3.7887   1.6605   H         1 RES1   0.0000
    60 H31      3.5968   2.9842   0.9254   H         1 RES1   0.0000
    61 H32      3.2919   2.7162   2.4742   H         1 RES1   0.0000
    62 S1      -1.4250   2.7512  -1.4370   S.o2      2 RES2   0.0000
    63 F1      -1.8564   3.5342  -3.8890   F         2 RES2   0.0000
    64 F2      -1.1448   5.0959  -2.5894   F         2 RES2   0.0000
    65 F3       0.2154   3.5959  -3.3008   F         2 RES2   0.0000
    66 O5      -2.7926   3.0952  -1.1536   O.2       2 RES2   0.0000
    67 O6      -0.4676   3.1589  -0.4425   O.2       2 RES2   0.0000
    68 O7      -1.2326   1.4175  -1.9545   O.3       2 RES2  -1.0000
    69 C19     -1.0313   3.7983  -2.8758   C.3       2 RES2   0.0000
    70 S2       4.9849   7.9698   7.2963   S.o2      3 RES3   0.0000
    71 F4       3.6367  10.1410   6.6748   F         3 RES3   0.0000
    72 F5       2.3985   8.4614   7.1884   F         3 RES3   0.0000
    73 F6       3.4250   9.5370   8.7254   F         3 RES3   0.0000
    74 O8       6.1068   8.8610   7.4242   O.2       3 RES3   0.0000
    75 O9       4.7788   7.4207   5.9766   O.3       3 RES3  -1.0000
    76 O10      4.8298   7.0361   8.3778   O.2       3 RES3   0.0000
    77 C20      3.5463   9.0803   7.4806   C.3       3 RES3   0.0000
@<TRIPOS>BOND
     1     1     2    1
     2     2    12    2
     3     3     8    1
     4     4    10    1
     5     5     1    1
     6     6    12   am
     7     7     1    1
     8     8     1    1
     9     9     1    1
    10    10     1    1
    11    11    52   am
    12    12    13    1
    13    14     6    1
    14    15    14    1
    15    16    14    1
    16    17    14    1
    17    18     6    1
    18    19    18    1
    19    20    18    1
    20    21    18    1
    21    22     7    1
    22    23    22    1
    23    24    22    1
    24    25    22    1
    25    26     7    1
    26    27    26    1
    27    28    26    1
    28    29     8    2
    29    30     3    1
    30    31    30    1
    31    32    29    1
    32    33    32    1
    33    34     7    1
    34    35    34    1
    35    36    34    1
    36    37     9    1
    37    38    37    1
    38    39    37    1
    39    40     9    1
    40    41    40    1
    41    42    40    1
    42    43    10    2
    43    44     4    1
    44    45    44    1
    45    46    43    1
    46    47    46    1
    47    48     9    1
    48    49    48    1
    49    50    48    1
    50    51    48    1
    51    52     5    2
    52    53    52    1
    53    54    11    1
    54    55    54    1
    55    56    54    1
    56    57    54    1
    57    58    11    1
    58    59    58    1
    59    60    58    1
    60    61    58    1
    61    26    29    1
    62    30    32    2
    63    34    37    1
    64    40    43    1
    65    44    46    2
    66    62    66    2
    67    63    69    1
    68    64    69    1
    69    65    69    1
    70    67    62    2
    71    68    62    1
    72    69    62    1
    73    70    74    2
    74    71    77    1
    75    72    77    1
    76    73    77    1
    77    75    70    1
    78    76    70    2
    79    77    70    1
@<TRIPOS>SUBSTRUCTURE
     1 RES1        1 GROUP             0 ****  ****    0  
     2 RES2       62 GROUP             0 ****  ****    0  
     3 RES3       70 GROUP             0 ****  ****    0  
@<TRIPOS>CRYSIN
    7.6666   11.6490   17.5354   94.6880   92.3700   91.0240     2     1
