@<TRIPOS>MOLECULE
PEQNAB01
    87    88     2     0     0
SMALL
USER_CHARGES
****
Generated from the CSD

@<TRIPOS>ATOM
     1 C1      10.2949   0.9373   6.2581   C.2       1 RES1   0.0000
     2 N1      10.4216   0.1672   5.1972   N.pl3     1 RES1   0.0000
     3 H1      10.0644  -0.6364   5.2106   H         1 RES1   0.0000
     4 C2      11.1353   0.6028   3.9995   C.3       1 RES1   0.0000
     5 H2      10.4955   1.0043   3.3612   H         1 RES1   0.0000
     6 H3      11.5539  -0.1801   3.5610   H         1 RES1   0.0000
     7 C3      12.2246   1.6353   4.3535   C.3       1 RES1   0.0000
     8 C4      11.5342   2.7246   5.1813   C.3       1 RES1   0.0000
     9 H4      12.2127   3.3607   5.5199   H         1 RES1   0.0000
    10 H5      10.9033   3.2256   4.6068   H         1 RES1   0.0000
    11 N2      10.8114   2.1445   6.3036   N.pl3     1 RES1   1.0000
    12 H6      10.7178   2.6187   7.0385   H         1 RES1   0.0000
    13 C5      13.3245   0.9224   5.1555   C.3       1 RES1   0.0000
    14 H7      12.8992   0.4921   5.9394   H         1 RES1   0.0000
    15 H8      13.6941   0.1987   4.5895   H         1 RES1   0.0000
    16 C6      14.4814   1.7598   5.6542   C.3       1 RES1   0.0000
    17 H9      14.1637   2.3564   6.3778   H         1 RES1   0.0000
    18 H10     14.8144   2.3284   4.9151   H         1 RES1   0.0000
    19 C7      15.6338   0.8946   6.1840   C.3       1 RES1   0.0000
    20 H11     15.2974   0.2934   6.8809   H         1 RES1   0.0000
    21 H12     16.3298   1.4731   6.5587   H         1 RES1   0.0000
    22 H13     16.0090   0.3648   5.4492   H         1 RES1   0.0000
    23 C8      12.7309   2.3003   3.0683   C.3       1 RES1   0.0000
    24 H14     11.9519   2.6761   2.5851   H         1 RES1   0.0000
    25 H15     13.3159   3.0580   3.3207   H         1 RES1   0.0000
    26 C9      13.4987   1.4002   2.1104   C.3       1 RES1   0.0000
    27 H16     14.3062   1.0540   2.5678   H         1 RES1   0.0000
    28 H17     12.9332   0.6256   1.8675   H         1 RES1   0.0000
    29 C10     13.9172   2.1220   0.8485   C.3       1 RES1   0.0000
    30 H18     13.1187   2.3812   0.3411   H         1 RES1   0.0000
    31 H19     14.4738   1.5305   0.3024   H         1 RES1   0.0000
    32 H20     14.4272   2.9245   1.0854   H         1 RES1   0.0000
    33 C11      9.5934   0.4446   7.4632   C.ar      1 RES1   0.0000
    34 C12      9.8764  -0.8311   7.9662   C.ar      1 RES1   0.0000
    35 H21     10.4973  -1.3955   7.5192   H         1 RES1   0.0000
    36 C13      8.6782   1.2642   8.1101   C.ar      1 RES1   0.0000
    37 H22      8.4844   2.1251   7.7604   H         1 RES1   0.0000
    38 C1C      7.6293  -0.9373  10.9699   C.2       1 RES1   0.0000
    39 N1C      7.5026  -0.1672  12.0308   N.pl3     1 RES1   1.0000
    40 H1C      7.8598   0.6364  12.0174   H         1 RES1   0.0000
    41 C2C      6.7889  -0.6028  13.2285   C.3       1 RES1   0.0000
    42 H2C      7.4287  -1.0043  13.8668   H         1 RES1   0.0000
    43 H3C      6.3703   0.1801  13.6670   H         1 RES1   0.0000
    44 C3C      5.6996  -1.6353  12.8745   C.3       1 RES1   0.0000
    45 C4C      6.3900  -2.7246  12.0467   C.3       1 RES1   0.0000
    46 H4C      5.7115  -3.3607  11.7081   H         1 RES1   0.0000
    47 H5C      7.0209  -3.2256  12.6212   H         1 RES1   0.0000
    48 N2C      7.1128  -2.1445  10.9244   N.pl3     1 RES1   0.0000
    49 H6C      7.2064  -2.6187  10.1895   H         1 RES1   0.0000
    50 C5C      4.5997  -0.9224  12.0725   C.3       1 RES1   0.0000
    51 H7C      5.0250  -0.4921  11.2886   H         1 RES1   0.0000
    52 H8C      4.2301  -0.1987  12.6385   H         1 RES1   0.0000
    53 C6C      3.4428  -1.7598  11.5738   C.3       1 RES1   0.0000
    54 H9C      3.7605  -2.3564  10.8502   H         1 RES1   0.0000
    55 H10C     3.1098  -2.3284  12.3129   H         1 RES1   0.0000
    56 C7C      2.2904  -0.8946  11.0440   C.3       1 RES1   0.0000
    57 H11C     2.6268  -0.2934  10.3471   H         1 RES1   0.0000
    58 H12C     1.5944  -1.4731  10.6693   H         1 RES1   0.0000
    59 H13C     1.9152  -0.3648  11.7788   H         1 RES1   0.0000
    60 C8C      5.1933  -2.3003  14.1597   C.3       1 RES1   0.0000
    61 H14C     5.9723  -2.6761  14.6429   H         1 RES1   0.0000
    62 H15C     4.6083  -3.0580  13.9073   H         1 RES1   0.0000
    63 C9C      4.4255  -1.4002  15.1176   C.3       1 RES1   0.0000
    64 H16C     3.6180  -1.0540  14.6602   H         1 RES1   0.0000
    65 H17C     4.9910  -0.6256  15.3605   H         1 RES1   0.0000
    66 C10C     4.0070  -2.1220  16.3795   C.3       1 RES1   0.0000
    67 H18C     4.8055  -2.3812  16.8869   H         1 RES1   0.0000
    68 H19C     3.4504  -1.5305  16.9256   H         1 RES1   0.0000
    69 H20C     3.4970  -2.9245  16.1426   H         1 RES1   0.0000
    70 C11C     8.3308  -0.4446   9.7648   C.ar      1 RES1   0.0000
    71 C12C     8.0478   0.8311   9.2618   C.ar      1 RES1   0.0000
    72 H21C     7.4269   1.3955   9.7088   H         1 RES1   0.0000
    73 C13C     9.2460  -1.2642   9.1179   C.ar      1 RES1   0.0000
    74 H22C     9.4398  -2.1251   9.4676   H         1 RES1   0.0000
    75 Fe1      8.9630   5.1738   1.9695   Fe        2 RES2   0.0000
    76 C14      8.6374   3.5726   3.0347   C.1       2 RES2   0.0000
    77 N3       8.4090   2.5934   3.5963   N.1       2 RES2   0.0000
    78 C15     10.1712   4.2276   0.7968   C.1       2 RES2  -1.0000
    79 N4      10.8760   3.7160   0.0431   N.1       2 RES2   0.0000
    80 C14A    10.5116   5.6939   3.0347   C.1       2 RES2  -1.0000
    81 C14B     7.7373   6.2563   3.0347   C.1       2 RES2  -1.0000
    82 N3A     11.4737   5.9858   3.5963   N.1       2 RES2   0.0000
    83 N3B      7.0035   6.9437   3.5963   N.1       2 RES2   0.0000
    84 C15A     9.1774   6.6947   0.7968   C.1       2 RES2   0.0000
    85 C15B     7.5378   4.6005   0.7968   C.1       2 RES2   0.0000
    86 N4A      9.2681   7.5609   0.0431   N.1       2 RES2   0.0000
    87 N4B      6.7423   4.2460   0.0431   N.1       2 RES2   0.0000
@<TRIPOS>BOND
     1     1     2   un
     2     2     3    1
     3     4     2    1
     4     5     4    1
     5     6     4    1
     6     7     4    1
     7     8     7    1
     8     9     8    1
     9    10     8    1
    10    11     1   un
    11    12    11    1
    12    13     7    1
    13    14    13    1
    14    15    13    1
    15    16    13    1
    16    17    16    1
    17    18    16    1
    18    19    16    1
    19    20    19    1
    20    21    19    1
    21    22    19    1
    22    23     7    1
    23    24    23    1
    24    25    23    1
    25    26    23    1
    26    27    26    1
    27    28    26    1
    28    29    26    1
    29    30    29    1
    30    31    29    1
    31    32    29    1
    32    33     1    1
    33    34    33   ar
    34    35    34    1
    35    36    33   ar
    36    37    36    1
    37    38    39   un
    38    39    40    1
    39    41    39    1
    40    42    41    1
    41    43    41    1
    42    44    41    1
    43    45    44    1
    44    46    45    1
    45    47    45    1
    46    48    38   un
    47    49    48    1
    48    50    44    1
    49    51    50    1
    50    52    50    1
    51    53    50    1
    52    54    53    1
    53    55    53    1
    54    56    53    1
    55    57    56    1
    56    58    56    1
    57    59    56    1
    58    60    44    1
    59    61    60    1
    60    62    60    1
    61    63    60    1
    62    64    63    1
    63    65    63    1
    64    66    63    1
    65    67    66    1
    66    68    66    1
    67    69    66    1
    68    70    38    1
    69    71    36   ar
    70    72    71    1
    71    73    34   ar
    72    74    73    1
    73     8    11    1
    74    45    48    1
    75    70    71   ar
    76    70    73   ar
    77    75    76    1
    78    76    77    3
    79    78    75    1
    80    79    78    3
    81    80    75    1
    82    81    75    1
    83    82    80    3
    84    83    81    3
    85    84    75    1
    86    85    75    1
    87    86    84    3
    88    87    85    3
@<TRIPOS>SUBSTRUCTURE
     1 RES1        1 GROUP             0 ****  ****    0  
     2 RES2       75 GROUP             0 ****  ****    0  
@<TRIPOS>CRYSIN
   17.9242   17.9242    8.6140   90.0000   90.0000  120.0000   147     1
