@<TRIPOS>MOLECULE
PEQNAB
    87    88     2     0     0
SMALL
USER_CHARGES
****
Generated from the CSD

@<TRIPOS>ATOM
     1 C1      -1.3328  14.5855   6.6629   C.2       1 RES1   0.0000
     2 N1      -1.4595  15.3556   7.7238   N.pl3     1 RES1   0.0000
     3 H1      -1.1023  16.1592   7.7104   H         1 RES1   0.0000
     4 C2      -2.1732  14.9201   8.9215   C.3       1 RES1   0.0000
     5 H2      -2.5918  15.7029   9.3600   H         1 RES1   0.0000
     6 H3      -1.5334  14.5185   9.5598   H         1 RES1   0.0000
     7 C3      -3.2625  13.8875   8.5675   C.3       1 RES1   0.0000
     8 C4      -2.5721  12.7982   7.7397   C.3       1 RES1   0.0000
     9 H4      -1.9412  12.2972   8.3142   H         1 RES1   0.0000
    10 H5      -3.2506  12.1621   7.4011   H         1 RES1   0.0000
    11 N2      -1.8493  13.3783   6.6174   N.pl3     1 RES1   1.0000
    12 H6      -1.7557  12.9041   5.8825   H         1 RES1   0.0000
    13 C5      -4.3624  14.6004   7.7655   C.3       1 RES1   0.0000
    14 H7      -4.7320  15.3241   8.3315   H         1 RES1   0.0000
    15 H8      -3.9371  15.0307   6.9816   H         1 RES1   0.0000
    16 C6      -5.5193  13.7630   7.2668   C.3       1 RES1   0.0000
    17 H9      -5.8523  13.1944   8.0059   H         1 RES1   0.0000
    18 H10     -5.2016  13.1664   6.5432   H         1 RES1   0.0000
    19 C7      -6.6717  14.6282   6.7370   C.3       1 RES1   0.0000
    20 H11     -6.3353  15.2294   6.0401   H         1 RES1   0.0000
    21 H12     -7.0469  15.1580   7.4718   H         1 RES1   0.0000
    22 H13     -7.3677  14.0497   6.3623   H         1 RES1   0.0000
    23 C8      -3.7688  13.2225   9.8527   C.3       1 RES1   0.0000
    24 H14     -4.3538  12.4648   9.6003   H         1 RES1   0.0000
    25 H15     -2.9898  12.8467  10.3359   H         1 RES1   0.0000
    26 C9      -4.5366  14.1227  10.8106   C.3       1 RES1   0.0000
    27 H16     -3.9711  14.8972  11.0535   H         1 RES1   0.0000
    28 H17     -5.3441  14.4688  10.3532   H         1 RES1   0.0000
    29 C10     -4.9551  13.4008  12.0725   C.3       1 RES1   0.0000
    30 H18     -4.1566  13.1416  12.5799   H         1 RES1   0.0000
    31 H19     -5.4651  12.5983  11.8356   H         1 RES1   0.0000
    32 H20     -5.5117  13.9923  12.6186   H         1 RES1   0.0000
    33 C11     -0.6313  15.0782   5.4578   C.ar      1 RES1   0.0000
    34 C12     -0.9143  16.3539   4.9548   C.ar      1 RES1   0.0000
    35 H21     -1.5352  16.9183   5.4018   H         1 RES1   0.0000
    36 C13      0.2839  14.2586   4.8109   C.ar      1 RES1   0.0000
    37 H22      0.4777  13.3977   5.1606   H         1 RES1   0.0000
    38 C1C      1.3328  16.4601   1.9511   C.2       1 RES1   0.0000
    39 N1C      1.4595  15.6900   0.8902   N.pl3     1 RES1   1.0000
    40 H1C      1.1023  14.8864   0.9036   H         1 RES1   0.0000
    41 C2C      2.1732  16.1256  -0.3075   C.3       1 RES1   0.0000
    42 H2C      2.5918  15.3427  -0.7460   H         1 RES1   0.0000
    43 H3C      1.5334  16.5271  -0.9458   H         1 RES1   0.0000
    44 C3C      3.2625  17.1581   0.0465   C.3       1 RES1   0.0000
    45 C4C      2.5721  18.2474   0.8743   C.3       1 RES1   0.0000
    46 H4C      1.9412  18.7485   0.2998   H         1 RES1   0.0000
    47 H5C      3.2506  18.8835   1.2129   H         1 RES1   0.0000
    48 N2C      1.8493  17.6673   1.9966   N.pl3     1 RES1   0.0000
    49 H6C      1.7557  18.1415   2.7315   H         1 RES1   0.0000
    50 C5C      4.3624  16.4452   0.8485   C.3       1 RES1   0.0000
    51 H7C      4.7320  15.7215   0.2825   H         1 RES1   0.0000
    52 H8C      3.9371  16.0149   1.6324   H         1 RES1   0.0000
    53 C6C      5.5193  17.2826   1.3472   C.3       1 RES1   0.0000
    54 H9C      5.8523  17.8512   0.6081   H         1 RES1   0.0000
    55 H10C     5.2016  17.8792   2.0708   H         1 RES1   0.0000
    56 C7C      6.6717  16.4174   1.8770   C.3       1 RES1   0.0000
    57 H11C     6.3353  15.8162   2.5739   H         1 RES1   0.0000
    58 H12C     7.0469  15.8876   1.1422   H         1 RES1   0.0000
    59 H13C     7.3677  16.9959   2.2517   H         1 RES1   0.0000
    60 C8C      3.7688  17.8231  -1.2387   C.3       1 RES1   0.0000
    61 H14C     4.3538  18.5808  -0.9863   H         1 RES1   0.0000
    62 H15C     2.9898  18.1989  -1.7219   H         1 RES1   0.0000
    63 C9C      4.5366  16.9230  -2.1966   C.3       1 RES1   0.0000
    64 H16C     3.9711  16.1484  -2.4395   H         1 RES1   0.0000
    65 H17C     5.3441  16.5768  -1.7392   H         1 RES1   0.0000
    66 C10C     4.9551  17.6448  -3.4585   C.3       1 RES1   0.0000
    67 H18C     4.1566  17.9040  -3.9659   H         1 RES1   0.0000
    68 H19C     5.4651  18.4473  -3.2216   H         1 RES1   0.0000
    69 H20C     5.5117  17.0534  -4.0046   H         1 RES1   0.0000
    70 C11C     0.6313  15.9674   3.1562   C.ar      1 RES1   0.0000
    71 C12C     0.9143  14.6917   3.6592   C.ar      1 RES1   0.0000
    72 H21C     1.5352  14.1273   3.2122   H         1 RES1   0.0000
    73 C13C    -0.2839  16.7870   3.8031   C.ar      1 RES1   0.0000
    74 H22C    -0.4777  17.6479   3.4534   H         1 RES1   0.0000
    75 Fe1     -0.0009  10.3491   2.3375   Fe        2 RES2   0.0000
    76 C14      0.3247  11.9502   1.2723   C.1       2 RES2   0.0000
    77 N3       0.5531  12.9294   0.7107   N.1       2 RES2   0.0000
    78 C15     -1.2091  11.2952   3.5102   C.1       2 RES2  -1.0000
    79 N4      -1.9139  11.8068   4.2639   N.1       2 RES2   0.0000
    80 C14A    -1.5495   9.8289   1.2723   C.1       2 RES2  -1.0000
    81 C14B     1.2248   9.2665   1.2723   C.1       2 RES2  -1.0000
    82 N3A     -2.5116   9.5371   0.7107   N.1       2 RES2   0.0000
    83 N3B      1.9586   8.5791   0.7107   N.1       2 RES2   0.0000
    84 C15A    -0.2153   8.8281   3.5102   C.1       2 RES2   0.0000
    85 C15B     1.4243  10.9223   3.5102   C.1       2 RES2   0.0000
    86 N4A     -0.3060   7.9620   4.2639   N.1       2 RES2   0.0000
    87 N4B      2.2198  11.2769   4.2639   N.1       2 RES2   0.0000
@<TRIPOS>BOND
     1     1     2   un
     2     2     3    1
     3     4     2    1
     4     5     4    1
     5     6     4    1
     6     7     4    1
     7     8     7    1
     8     9     8    1
     9    10     8    1
    10    11     1   un
    11    12    11    1
    12    13     7    1
    13    14    13    1
    14    15    13    1
    15    16    13    1
    16    17    16    1
    17    18    16    1
    18    19    16    1
    19    20    19    1
    20    21    19    1
    21    22    19    1
    22    23     7    1
    23    24    23    1
    24    25    23    1
    25    26    23    1
    26    27    26    1
    27    28    26    1
    28    29    26    1
    29    30    29    1
    30    31    29    1
    31    32    29    1
    32    33     1    1
    33    34    33   ar
    34    35    34    1
    35    36    33   ar
    36    37    36    1
    37    38    39   un
    38    39    40    1
    39    41    39    1
    40    42    41    1
    41    43    41    1
    42    44    41    1
    43    45    44    1
    44    46    45    1
    45    47    45    1
    46    48    38   un
    47    49    48    1
    48    50    44    1
    49    51    50    1
    50    52    50    1
    51    53    50    1
    52    54    53    1
    53    55    53    1
    54    56    53    1
    55    57    56    1
    56    58    56    1
    57    59    56    1
    58    60    44    1
    59    61    60    1
    60    62    60    1
    61    63    60    1
    62    64    63    1
    63    65    63    1
    64    66    63    1
    65    67    66    1
    66    68    66    1
    67    69    66    1
    68    70    38    1
    69    71    36   ar
    70    72    71    1
    71    73    34   ar
    72    74    73    1
    73     8    11    1
    74    45    48    1
    75    70    71   ar
    76    70    73   ar
    77    75    76    1
    78    76    77    3
    79    78    75    1
    80    79    78    3
    81    80    75    1
    82    81    75    1
    83    82    80    3
    84    83    81    3
    85    84    75    1
    86    85    75    1
    87    86    84    3
    88    87    85    3
@<TRIPOS>SUBSTRUCTURE
     1 RES1        1 GROUP             0 ****  ****    0  
     2 RES2       75 GROUP             0 ****  ****    0  
@<TRIPOS>CRYSIN
   17.9242   17.9242    8.6140   90.0000   90.0000  120.0000   147     1
