@<TRIPOS>MOLECULE
PERNOP
    90    96     3     0     0
SMALL
USER_CHARGES
****
Generated from the CSD

@<TRIPOS>ATOM
     1 Fe1      4.2968   4.4517   0.0000   Fe        1 RES1   1.0000
     2 O1       4.1399   4.8399   1.8777   O.3       1 RES1   0.0000
     3 O2       3.0046   5.8870   4.0011   O.3       1 RES1   0.0000
     4 N1       2.1338   4.0618   0.0193   N.3       1 RES1   0.0000
     5 N2       4.9085   2.5393   0.5492   N.2       1 RES1   0.0000
     6 C1       1.5059   3.5062  -1.1912   C.3       1 RES1   0.0000
     7 C2       1.6141   2.6978   0.0205   C.3       1 RES1   0.0000
     8 C3       1.2737   5.0251   0.7636   C.3       1 RES1   0.0000
     9 C4       1.3788   6.4426   0.2529   C.3       1 RES1   0.0000
    10 C5       5.8651   1.8199  -0.3686   C.2       1 RES1   0.0000
    11 C6       4.7286   2.0086   1.7211   C.2       1 RES1   0.0000
    12 C7       4.0166   2.6158   2.7991   C.ar      1 RES1   0.0000
    13 C8       3.6569   1.8163   3.9011   C.ar      1 RES1   0.0000
    14 C9       3.0642   2.3363   4.9899   C.ar      1 RES1   0.0000
    15 C10      2.8077   3.6843   5.0622   C.ar      1 RES1   0.0000
    16 C11      3.1599   4.5408   4.0179   C.ar      1 RES1   0.0000
    17 C12      3.7740   4.0012   2.8533   C.ar      1 RES1   0.0000
    18 C13      2.3670   6.4746   5.1380   C.3       1 RES1   0.0000
    19 C14      2.3589   7.9223   4.9610   C.3       1 RES1   0.0000
    20 H1       2.0742   3.2854  -1.9391   H         1 RES1   0.0000
    21 H2       0.6385   3.8534  -1.4308   H         1 RES1   0.0000
    22 H3       0.8058   2.5375   0.5227   H         1 RES1   0.0000
    23 H4       2.2449   1.9677   0.0145   H         1 RES1   0.0000
    24 H5       1.5440   5.0162   1.6910   H         1 RES1   0.0000
    25 H6       0.3572   4.7278   0.7166   H         1 RES1   0.0000
    26 H7       0.7551   6.9803   0.7479   H         1 RES1   0.0000
    27 H8       1.1327   6.4408  -0.6745   H         1 RES1   0.0000
    28 H10      5.6311   1.1948  -1.0575   H         1 RES1   0.0000
    29 H11      5.0966   1.1307   1.8789   H         1 RES1   0.0000
    30 H12      3.8300   0.8690   3.8541   H         1 RES1   0.0000
    31 H13      2.8218   1.7700   5.7330   H         1 RES1   0.0000
    32 H14      2.3939   4.0653   5.8462   H         1 RES1   0.0000
    33 H15      2.8775   6.2681   5.9317   H         1 RES1   0.0000
    34 H16      1.4720   6.1310   5.2476   H         1 RES1   0.0000
    35 H17      1.9512   8.3693   5.7137   H         1 RES1   0.0000
    36 H18      3.2629   8.2429   4.8478   H         1 RES1   0.0000
    37 H19      1.8495   8.1057   4.1625   H         1 RES1   0.0000
    38 O1E      4.4536   4.0636  -1.8777   O.3       1 RES1   0.0000
    39 N1E      6.4597   4.8417  -0.0193   N.3       1 RES1   0.0000
    40 N2E      3.6850   6.3642  -0.5492   N.2       1 RES1   0.0000
    41 C5E      2.7284   7.0836   0.3686   C.2       1 RES1   0.0000
    42 C4E      7.2147   2.4609  -0.2529   C.3       1 RES1   0.0000
    43 C12E     4.8195   4.9023  -2.8533   C.ar      1 RES1   0.0000
    44 C1E      7.0876   5.3973   1.1912   C.3       1 RES1   0.0000
    45 C2E      6.9794   6.2057  -0.0205   C.3       1 RES1   0.0000
    46 C3E      7.3198   3.8784  -0.7636   C.3       1 RES1   0.0000
    47 C6E      3.8649   6.8949  -1.7211   C.2       1 RES1   0.0000
    48 H10E     2.9624   7.7087   1.0575   H         1 RES1   0.0000
    49 H7E      7.8384   1.9232  -0.7479   H         1 RES1   0.0000
    50 H8E      7.4608   2.4627   0.6745   H         1 RES1   0.0000
    51 C7E      4.5769   6.2877  -2.7991   C.ar      1 RES1   0.0000
    52 C11E     5.4336   4.3627  -4.0179   C.ar      1 RES1   0.0000
    53 H1E      6.5193   5.6181   1.9391   H         1 RES1   0.0000
    54 H2E      7.9550   5.0501   1.4308   H         1 RES1   0.0000
    55 H3E      7.7877   6.3660  -0.5227   H         1 RES1   0.0000
    56 H4E      6.3486   6.9358  -0.0145   H         1 RES1   0.0000
    57 H5E      7.0495   3.8873  -1.6910   H         1 RES1   0.0000
    58 H6E      8.2363   4.1757  -0.7166   H         1 RES1   0.0000
    59 H11E     3.4969   7.7728  -1.8789   H         1 RES1   0.0000
    60 C8E      4.9366   7.0872  -3.9011   C.ar      1 RES1   0.0000
    61 O2E      5.5889   3.0165  -4.0011   O.3       1 RES1   0.0000
    62 C10E     5.7858   5.2192  -5.0622   C.ar      1 RES1   0.0000
    63 C9E      5.5293   6.5672  -4.9899   C.ar      1 RES1   0.0000
    64 H12E     4.7635   8.0345  -3.8541   H         1 RES1   0.0000
    65 C13E     6.2265   2.4289  -5.1380   C.3       1 RES1   0.0000
    66 H14E     6.1996   4.8382  -5.8462   H         1 RES1   0.0000
    67 H13E     5.7717   7.1335  -5.7330   H         1 RES1   0.0000
    68 C14E     6.2346   0.9812  -4.9610   C.3       1 RES1   0.0000
    69 H15E     5.7160   2.6354  -5.9317   H         1 RES1   0.0000
    70 H16E     7.1215   2.7725  -5.2476   H         1 RES1   0.0000
    71 H17E     6.6423   0.5342  -5.7137   H         1 RES1   0.0000
    72 H18E     5.3306   0.6606  -4.8478   H         1 RES1   0.0000
    73 H19E     6.7440   0.7978  -4.1625   H         1 RES1   0.0000
    74 Cl1      6.8593  16.5053   3.0110   Cl        2 RES2   0.0000
    75 O3       7.8646  15.7378   3.4916   O.2       2 RES2   0.0000
    76 O4       7.3204  17.2959   1.9716   O.3       2 RES2  -1.0000
    77 O3B      5.8539  15.7378   2.5305   O.2       2 RES2   0.0000
    78 O4B      6.3981  17.2959   4.0505   O.2       2 RES2   0.0000
    79 Cl2      8.4032   8.3996   3.2399   Cl        3 RES3   0.0000
    80 C15      7.5864   9.8989   3.1243   C.ar      3 RES3   0.0000
    81 C16      8.2698  11.0955   3.2447   C.ar      3 RES3   0.0000
    82 C17      7.5613  12.2583   3.1291   C.ar      3 RES3   0.0000
    83 H21      9.2167  11.1098   3.4061   H         3 RES3   0.0000
    84 H22      7.2961  13.1807   3.0881   H         3 RES3   0.0000
    85 C15B     6.1322   9.8989   2.8978   C.ar      3 RES3   0.0000
    86 C17B     6.1573  12.2583   2.8930   C.ar      3 RES3   0.0000
    87 Cl2B     5.3153   8.3996   2.7822   Cl        3 RES3   0.0000
    88 C16B     5.4487  11.0955   2.7774   C.ar      3 RES3   0.0000
    89 H22B     6.4224  13.1807   2.9340   H         3 RES3   0.0000
    90 H21B     4.5019  11.1098   2.6160   H         3 RES3   0.0000
@<TRIPOS>BOND
     1     1     2    1
     2     2    17    1
     3     3    16    1
     4     4     1    1
     5     5     1    1
     6     6     4    1
     7     7     4    1
     8     8     4    1
     9     9     8    1
    10    10     5    1
    11    11     5    2
    12    12    11    1
    13    13    12   ar
    14    14    13   ar
    15    15    14   ar
    16    16    15   ar
    17    17    12   ar
    18    18     3    1
    19    19    18    1
    20    20     6    1
    21    21     6    1
    22    22     7    1
    23    23     7    1
    24    24     8    1
    25    25     8    1
    26    26     9    1
    27    27     9    1
    28    28    10    1
    29    29    11    1
    30    30    13    1
    31    31    14    1
    32    32    15    1
    33    33    18    1
    34    34    18    1
    35    35    19    1
    36    36    19    1
    37    37    19    1
    38    38     1    1
    39    39     1    1
    40    40     1    1
    41    41     9    1
    42    42    10    1
    43    43    38    1
    44    44    39    1
    45    45    39    1
    46    46    39    1
    47    47    40    2
    48    48    41    1
    49    49    42    1
    50    50    42    1
    51    51    43   ar
    52    52    43   ar
    53    53    44    1
    54    54    44    1
    55    55    45    1
    56    56    45    1
    57    57    46    1
    58    58    46    1
    59    59    47    1
    60    60    51   ar
    61    61    52    1
    62    62    52   ar
    63    63    60   ar
    64    64    60    1
    65    65    61    1
    66    66    62    1
    67    67    63    1
    68    68    65    1
    69    69    65    1
    70    70    65    1
    71    71    68    1
    72    72    68    1
    73    73    68    1
    74     6     7    1
    75    16    17   ar
    76    40    41    1
    77    42    46    1
    78    44    45    1
    79    47    51    1
    80    62    63   ar
    81    74    75    2
    82    76    74    1
    83    77    74    2
    84    78    74    2
    85    79    80    1
    86    80    81   ar
    87    81    82   ar
    88    82    84    1
    89    83    81    1
    90    85    80   ar
    91    86    82   ar
    92    87    85    1
    93    88    85   ar
    94    89    86    1
    95    90    88    1
    96    86    88   ar
@<TRIPOS>SUBSTRUCTURE
     1 RES1        1 GROUP             0 ****  ****    0  
     2 RES2       74 GROUP             0 ****  ****    0  
     3 RES3       79 GROUP             0 ****  ****    0  
@<TRIPOS>CRYSIN
   17.1870   17.8070   13.8990   90.0000  119.9400   90.0000    15     1
