@<TRIPOS>MOLECULE
PERNOP01
    92    98     3     0     0
SMALL
USER_CHARGES
****
Generated from the CSD

@<TRIPOS>ATOM
     1 Fe1      0.0000   0.0000   0.0000   Fe        1 RES1   1.0000
     2 O1      -1.3433   0.3900   1.3379   O.3       1 RES1   0.0000
     3 O2      -2.1966   1.4212   3.5795   O.3       1 RES1   0.0000
     4 N1       0.8036   1.9235   0.1321   N.2       1 RES1   0.0000
     5 N2      -1.3962   0.3989  -1.6544   N.3       1 RES1   0.0000
     6 C1      -1.8376  -0.4702   2.2442   C.ar      1 RES1   0.0000
     7 C2      -1.9326  -1.8487   2.0310   C.ar      1 RES1   0.0000
     8 C3      -2.5556  -2.6537   3.0014   C.ar      1 RES1   0.0000
     9 C4      -2.9797  -2.1140   4.1863   C.ar      1 RES1   0.0000
    10 C5      -2.8812  -0.7498   4.4073   C.ar      1 RES1   0.0000
    11 C6      -2.3251   0.0677   3.4605   C.ar      1 RES1   0.0000
    12 C7       1.5660   2.4364  -0.7768   C.2       1 RES1   0.0000
    13 C8       0.7466   2.6341   1.4137   C.3       1 RES1   0.0000
    14 C9       1.7090   1.9876   2.3894   C.3       1 RES1   0.0000
    15 C10     -1.3794  -0.5895  -2.7830   C.3       1 RES1   0.0000
    16 C11     -1.7284   1.7792  -2.0232   C.3       1 RES1   0.0000
    17 C12     -2.7134   0.9208  -1.3510   C.3       1 RES1   0.0000
    18 C13     -2.6554   2.0214   4.7996   C.3       1 RES1   0.0000
    19 C14     -2.5007   3.4730   4.7068   C.3       1 RES1   0.0000
    20 H1      -2.6805  -3.5887   2.8236   H         1 RES1   0.0000
    21 H2      -3.3436  -2.6840   4.8677   H         1 RES1   0.0000
    22 H3      -3.2080  -0.3687   5.2247   H         1 RES1   0.0000
    23 H4       1.9147   3.3109  -0.5924   H         1 RES1   0.0000
    24 H5       1.0134   3.5442   1.2725   H         1 RES1   0.0000
    25 H6      -0.1472   2.6127   1.7668   H         1 RES1   0.0000
    26 H7       1.7284   2.5237   3.1845   H         1 RES1   0.0000
    27 H8       2.5804   1.9751   1.9879   H         1 RES1   0.0000
    28 H9      -2.0197  -0.3010  -3.4369   H         1 RES1   0.0000
    29 H10     -0.5015  -0.5859  -3.1714   H         1 RES1   0.0000
    30 H11     -1.3291   2.5130  -1.5498   H         1 RES1   0.0000
    31 H12     -1.8482   2.0214  -2.9452   H         1 RES1   0.0000
    32 H13     -3.4763   0.5949  -1.8335   H         1 RES1   0.0000
    33 H14     -2.9587   1.0864  -0.4381   H         1 RES1   0.0000
    34 H15     -2.1543   1.7009   5.5516   H         1 RES1   0.0000
    35 H16     -3.5849   1.8166   4.9239   H         1 RES1   0.0000
    36 H17     -2.8119   3.9164   5.4980   H         1 RES1   0.0000
    37 H18     -3.0011   3.7828   3.9483   H         1 RES1   0.0000
    38 H19     -1.5689   3.6653   4.5760   H         1 RES1   0.0000
    39 O1D      1.3433  -0.3900  -1.3379   O.3       1 RES1   0.0000
    40 N1D     -0.8036  -1.9235  -0.1321   N.2       1 RES1   0.0000
    41 N2D      1.3962  -0.3989   1.6544   N.3       1 RES1   0.0000
    42 C7D     -1.5660  -2.4364   0.7768   C.2       1 RES1   0.0000
    43 C2D      1.9326   1.8487  -2.0310   C.ar      1 RES1   0.0000
    44 C10D     1.3794   0.5895   2.7830   C.3       1 RES1   0.0000
    45 C9D     -1.7090  -1.9876  -2.3894   C.3       1 RES1   0.0000
    46 C1D      1.8376   0.4702  -2.2442   C.ar      1 RES1   0.0000
    47 C8D     -0.7466  -2.6341  -1.4137   C.3       1 RES1   0.0000
    48 C11D     1.7284  -1.7792   2.0232   C.3       1 RES1   0.0000
    49 C12D     2.7134  -0.9208   1.3510   C.3       1 RES1   0.0000
    50 H4D     -1.9147  -3.3109   0.5924   H         1 RES1   0.0000
    51 C3D      2.5556   2.6537  -3.0014   C.ar      1 RES1   0.0000
    52 H9D      2.0197   0.3010   3.4369   H         1 RES1   0.0000
    53 H10D     0.5015   0.5859   3.1714   H         1 RES1   0.0000
    54 H7D     -1.7284  -2.5237  -3.1845   H         1 RES1   0.0000
    55 H8D     -2.5804  -1.9751  -1.9879   H         1 RES1   0.0000
    56 C6D      2.3251  -0.0677  -3.4605   C.ar      1 RES1   0.0000
    57 H5D     -1.0134  -3.5442  -1.2725   H         1 RES1   0.0000
    58 H6D      0.1472  -2.6127  -1.7668   H         1 RES1   0.0000
    59 H11D     1.3291  -2.5130   1.5498   H         1 RES1   0.0000
    60 H12D     1.8482  -2.0214   2.9452   H         1 RES1   0.0000
    61 H13D     3.4763  -0.5949   1.8335   H         1 RES1   0.0000
    62 H14D     2.9587  -1.0864   0.4381   H         1 RES1   0.0000
    63 C4D      2.9797   2.1140  -4.1863   C.ar      1 RES1   0.0000
    64 H1D      2.6805   3.5887  -2.8236   H         1 RES1   0.0000
    65 O2D      2.1966  -1.4212  -3.5795   O.3       1 RES1   0.0000
    66 C5D      2.8812   0.7498  -4.4073   C.ar      1 RES1   0.0000
    67 H2D      3.3436   2.6840  -4.8677   H         1 RES1   0.0000
    68 C13D     2.6554  -2.0214  -4.7996   C.3       1 RES1   0.0000
    69 H3D      3.2080   0.3687  -5.2247   H         1 RES1   0.0000
    70 C14D     2.5007  -3.4730  -4.7068   C.3       1 RES1   0.0000
    71 H15D     2.1543  -1.7009  -5.5516   H         1 RES1   0.0000
    72 H16D     3.5849  -1.8166  -4.9239   H         1 RES1   0.0000
    73 H17D     2.8119  -3.9164  -5.4980   H         1 RES1   0.0000
    74 H18D     3.0011  -3.7828  -3.9483   H         1 RES1   0.0000
    75 H19D     1.5689  -3.6653  -4.5760   H         1 RES1   0.0000
    76 Cl1     -3.9523  -5.7615   0.0000   Cl        2 RES2   0.0000
    77 O3      -4.9785  -6.5381  -0.4355   O.2       2 RES2   0.0000
    78 O4      -3.4712  -4.9316  -1.0292   O.3       2 RES2  -1.0000
    79 O3A     -2.9260  -6.5381   0.4355   O.2       2 RES2   0.0000
    80 O4A     -4.4333  -4.9316   1.0292   O.2       2 RES2   0.0000
    81 Cl2     -2.7766   3.9378   1.0292   Cl        3 RES3   0.0000
    82 C15     -3.4317   5.4962   0.4303   C.ar      3 RES3   0.0000
    83 C16     -2.8600   6.6235   0.9037   C.ar      3 RES3   0.0000
    84 C17     -3.4133   7.8026   0.4499   C.ar      3 RES3   0.0000
    85 H21     -2.1315   6.6200   1.5275   H         3 RES3   0.0000
    86 H22     -3.0447   8.6378   0.7428   H         3 RES3   0.0000
    87 C15A    -4.4728   5.4962  -0.4303   C.ar      3 RES3   0.0000
    88 C17A    -4.4912   7.8026  -0.4499   C.ar      3 RES3   0.0000
    89 Cl2A    -5.1279   3.9378  -1.0292   Cl        3 RES3   0.0000
    90 C16A    -5.0445   6.6235  -0.9037   C.ar      3 RES3   0.0000
    91 H22A    -4.8598   8.6378  -0.7428   H         3 RES3   0.0000
    92 H21A    -5.7730   6.6200  -1.5275   H         3 RES3   0.0000
@<TRIPOS>BOND
     1     1     2    1
     2     2     6    1
     3     3    11    1
     4     4     1    1
     5     5     1    1
     6     6     7   ar
     7     7     8   ar
     8     8     9   ar
     9     9    10   ar
    10    10    11   ar
    11    11     6   ar
    12    12     4    2
    13    13     4    1
    14    14    13    1
    15    15     5    1
    16    16     5    1
    17    17     5    1
    18    18     3    1
    19    19    18    1
    20    20     8    1
    21    21     9    1
    22    22    10    1
    23    23    12    1
    24    24    13    1
    25    25    13    1
    26    26    14    1
    27    27    14    1
    28    28    15    1
    29    29    15    1
    30    30    16    1
    31    31    16    1
    32    32    17    1
    33    33    17    1
    34    34    18    1
    35    35    18    1
    36    36    19    1
    37    37    19    1
    38    38    19    1
    39    39     1    1
    40    40     1    1
    41    41     1    1
    42    42     7    1
    43    43    12    1
    44    44    14    1
    45    45    15    1
    46    46    39    1
    47    47    40    1
    48    48    41    1
    49    49    41    1
    50    50    42    1
    51    51    43   ar
    52    52    44    1
    53    53    44    1
    54    54    45    1
    55    55    45    1
    56    56    46   ar
    57    57    47    1
    58    58    47    1
    59    59    48    1
    60    60    48    1
    61    61    49    1
    62    62    49    1
    63    63    51   ar
    64    64    51    1
    65    65    56    1
    66    66    56   ar
    67    67    63    1
    68    68    65    1
    69    69    66    1
    70    70    68    1
    71    71    68    1
    72    72    68    1
    73    73    70    1
    74    74    70    1
    75    75    70    1
    76    16    17    1
    77    40    42    2
    78    41    44    1
    79    43    46   ar
    80    45    47    1
    81    48    49    1
    82    63    66   ar
    83    76    77    2
    84    78    76    1
    85    79    76    2
    86    80    76    2
    87    81    82    1
    88    82    83   ar
    89    83    84   ar
    90    84    86    1
    91    85    83    1
    92    87    82   ar
    93    88    84   ar
    94    89    87    1
    95    90    87   ar
    96    91    88    1
    97    92    90    1
    98    88    90   ar
@<TRIPOS>SUBSTRUCTURE
     1 RES1        1 GROUP             0 ****  ****    0  
     2 RES2       76 GROUP             0 ****  ****    0  
     3 RES3       81 GROUP             0 ****  ****    0  
