@<TRIPOS>MOLECULE
PERNAB
    46    52     2     0     0
SMALL
USER_CHARGES
****
Generated from the CSD

@<TRIPOS>ATOM
     1 Fe1      6.2989   1.1540  18.5020   Fe        1 RES1   0.0000
     2 P1       4.7188  -0.8836  20.2608   P.3       1 RES1   0.0000
     3 P2       7.5331  -0.8413  20.5737   P.3       1 RES1   0.0000
     4 P3       5.9565   1.2569  21.6190   P.3       1 RES1   0.0000
     5 O1       4.8552  -0.1470  18.9511   O.co2     1 RES1   0.0000
     6 O2       7.6552  -0.1047  19.2542   O.co2     1 RES1   0.0000
     7 O3       6.0896   1.9952  20.3094   O.co2     1 RES1   0.0000
     8 O4       6.1358  -1.6303  20.5251   O.3       1 RES1   0.0000
     9 O5       7.2239   0.2568  21.7203   O.3       1 RES1   0.0000
    10 O6       4.7485   0.2162  21.4424   O.3       1 RES1   0.0000
    11 O7       3.6274  -1.8246  20.4338   O.co2     1 RES1   0.0000
    12 O8       8.5948  -1.7384  20.9993   O.co2     1 RES1   0.0000
    13 O9       5.8157   2.0155  22.8513   O.co2     1 RES1  -1.0000
    14 N1       7.6101   2.7284  18.0902   N.ar      1 RES1   0.0000
    15 N2       4.8882   2.3111  17.4780   N.ar      1 RES1   0.0000
    16 N3       6.8344   0.4595  16.5938   N.ar      1 RES1   0.0000
    17 N4       7.6541   3.3011  16.8562   N.ar      1 RES1   0.0000
    18 N5       5.2248   2.9902  16.3665   N.ar      1 RES1   0.0000
    19 N6       6.9027   1.3160  15.5658   N.ar      1 RES1   0.0000
    20 C1       8.5805   3.2757  18.8092   C.ar      1 RES1   0.0000
    21 C2       9.2549   4.2134  18.0416   C.ar      1 RES1   0.0000
    22 C3       8.6355   4.1914  16.8309   C.ar      1 RES1   0.0000
    23 C4       3.6120   2.6405  17.7559   C.ar      1 RES1   0.0000
    24 C5       3.1532   3.5663  16.8076   C.ar      1 RES1   0.0000
    25 C6       4.1929   3.7623  15.9564   C.ar      1 RES1   0.0000
    26 C7       7.2756  -0.7095  16.1508   C.ar      1 RES1   0.0000
    27 C8       7.6585  -0.6217  14.8429   C.ar      1 RES1   0.0000
    28 C9       7.3834   0.6808  14.4892   C.ar      1 RES1   0.0000
    29 B1       6.6672   2.8179  15.7854   B         1 RES1   0.0000
    30 N7       4.6494   2.3179   7.8373   N.4       2 RES2   1.0000
    31 C10      5.3525   1.0272   8.2843   C.3       2 RES2   0.0000
    32 C11      4.6725   0.2095   9.3434   C.3       2 RES2   0.0000
    33 C12      5.3602  -1.0086   9.6057   C.2       2 RES2   0.0000
    34 C13      4.8519  -1.8719  10.7115   C.3       2 RES2   0.0000
    35 C14      3.3138   1.9614   7.1455   C.3       2 RES2   0.0000
    36 C15      3.3380   0.9984   6.0223   C.3       2 RES2   0.0000
    37 C16      1.9551   0.8396   5.4199   C.3       2 RES2   0.0000
    38 C17      1.8923  -0.2027   4.3472   C.3       2 RES2   0.0000
    39 C18      5.5637   3.0240   6.8501   C.3       2 RES2   0.0000
    40 C19      5.0290   4.2607   6.2360   C.3       2 RES2   0.0000
    41 C20      6.0544   4.9567   5.3888   C.3       2 RES2   0.0000
    42 C21      5.5560   6.2102   4.7183   C.3       2 RES2   0.0000
    43 C22      4.3414   3.2048   9.0169   C.3       2 RES2   0.0000
    44 C23      5.5054   3.6863   9.8253   C.3       2 RES2   0.0000
    45 C24      5.0719   4.4634  11.0613   C.2       2 RES2   0.0000
    46 C25      4.6208   3.6998  12.1204   C.2       2 RES2   0.0000
@<TRIPOS>BOND
     1     1     5    1
     2     2     5    1
     3     3     6    1
     4     4     7    1
     5     6     1    1
     6     7     1    1
     7     8     2    1
     8     9     3    1
     9    10     2    1
    10    11     2    2
    11    12     3    2
    12    13     4    1
    13    14     1    1
    14    15     1    1
    15    16     1    1
    16    17    14   ar
    17    18    15   ar
    18    19    16   ar
    19    20    14   ar
    20    21    20   ar
    21    22    17   ar
    22    23    15   ar
    23    24    23   ar
    24    25    18   ar
    25    26    16   ar
    26    27    26   ar
    27    28    19   ar
    28    29    17    1
    29     3     8    1
    30     4     9    1
    31     4    10    1
    32    18    29    1
    33    19    29    1
    34    21    22   ar
    35    24    25   ar
    36    27    28   ar
    37    30    31    1
    38    31    32    1
    39    32    33    1
    40    33    34    1
    41    35    30    1
    42    36    35    1
    43    37    36    1
    44    38    37    1
    45    39    30    1
    46    40    39    1
    47    41    40    1
    48    42    41    1
    49    43    30    1
    50    44    43    1
    51    45    44    1
    52    46    45    1
@<TRIPOS>SUBSTRUCTURE
     1 RES1        1 GROUP             0 ****  ****    0  
     2 RES2       30 GROUP             0 ****  ****    0  
@<TRIPOS>CRYSIN
   11.0020   16.8940   19.4330   90.0000   90.0000   90.0000    19     1
