@<TRIPOS>MOLECULE
PERNEF01
    92    98     3     0     0
SMALL
USER_CHARGES
****
Generated from the CSD

@<TRIPOS>ATOM
     1 Br1      7.1646   9.4482   5.8277   Br        1 RES1   0.0000
     2 C1       7.5904   8.0377   6.9064   C.ar      1 RES1   0.0000
     3 C2       8.0618   8.1730   8.2127   C.ar      1 RES1   0.0000
     4 C3       8.3336   7.0385   8.9774   C.ar      1 RES1   0.0000
     5 C4       8.1345   5.7687   8.4344   C.ar      1 RES1   0.0000
     6 C5       7.6640   5.6333   7.1296   C.ar      1 RES1   0.0000
     7 C6       7.3922   6.7678   6.3648   C.ar      1 RES1   0.0000
     8 H1       8.1987   9.0475   8.5846   H         1 RES1   0.0000
     9 H2       8.6575   7.1311   9.8761   H         1 RES1   0.0000
    10 H3       8.3215   4.9868   8.9611   H         1 RES1   0.0000
    11 H4       7.5276   4.7588   6.7561   H         1 RES1   0.0000
    12 H5       7.0683   6.6752   5.4662   H         1 RES1   0.0000
    13 Fe1     -0.5307   4.1390  11.3088   Fe        2 RES2   1.0000
    14 O1       1.1668   4.5309  10.5143   O.3       2 RES2   0.0000
    15 O2       3.5737   5.5977  10.3760   O.3       2 RES2   0.0000
    16 O3      -2.2240   3.7383  12.1182   O.3       2 RES2   0.0000
    17 O4      -4.5909   2.6270  12.1703   O.3       2 RES2   0.0000
    18 N1      -0.3478   2.1995  10.5099   N.2       2 RES2   0.0000
    19 N2      -1.6017   4.4418   9.4595   N.3       2 RES2   0.0000
    20 N3      -0.7164   6.0536  12.0929   N.2       2 RES2   0.0000
    21 N4       0.5748   3.7864  13.1775   N.3       2 RES2   0.0000
    22 C7       2.2138   3.6813  10.3046   C.ar      2 RES2   0.0000
    23 C8       2.0343   2.3117  10.1171   C.ar      2 RES2   0.0000
    24 C9       3.1359   1.4907   9.8716   C.ar      2 RES2   0.0000
    25 C10      4.4170   2.0428   9.8136   C.ar      2 RES2   0.0000
    26 C11      4.5952   3.4124  10.0010   C.ar      2 RES2   0.0000
    27 C12      3.4935   4.2334  10.2465   C.ar      2 RES2   0.0000
    28 C13      0.7485   1.7187  10.0858   C.2       2 RES2   0.0000
    29 C14     -1.5902   1.4622  10.2197   C.3       2 RES2   0.0000
    30 C15     -2.2490   2.0713   8.9938   C.3       2 RES2   0.0000
    31 C16     -2.7162   3.4997   9.1039   C.3       2 RES2   0.0000
    32 C17     -0.8599   4.8657   8.2960   C.3       2 RES2   0.0000
    33 C18     -1.8119   5.7722   8.9090   C.3       2 RES2   0.0000
    34 C19      4.8635   6.2086  10.3358   C.3       2 RES2   0.0000
    35 C20      4.7090   7.5853  10.3641   C.3       2 RES2   0.0000
    36 C21     -3.2755   4.5718  12.2685   C.ar      2 RES2   0.0000
    37 C22     -3.1183   5.9468  12.4336   C.ar      2 RES2   0.0000
    38 C23     -4.2337   6.7553  12.6523   C.ar      2 RES2   0.0000
    39 C24     -5.5068   6.1890  12.7074   C.ar      2 RES2   0.0000
    40 C25     -5.6639   4.8105  12.5422   C.ar      2 RES2   0.0000
    41 C26     -4.5480   4.0019  12.3220   C.ar      2 RES2   0.0000
    42 C27     -1.8051   6.5665  12.4544   C.2       2 RES2   0.0000
    43 C28      0.5169   6.7731  12.4306   C.3       2 RES2   0.0000
    44 C29      1.1335   6.0999  13.6997   C.3       2 RES2   0.0000
    45 C30      1.6341   4.7481  13.5628   C.3       2 RES2   0.0000
    46 C31      0.8300   2.3705  13.6238   C.3       2 RES2   0.0000
    47 C32     -0.1668   3.2254  14.3216   C.3       2 RES2   0.0000
    48 C33     -5.8840   2.0571  12.1703   C.3       2 RES2   0.0000
    49 C34     -5.6791   0.6180  12.0230   C.3       2 RES2   0.0000
    50 H6       3.0137   0.5485   9.7436   H         2 RES2   0.0000
    51 H7       5.1743   1.4782   9.6455   H         2 RES2   0.0000
    52 H8       5.4761   3.7917   9.9609   H         2 RES2   0.0000
    53 H9       0.7004   0.8424   9.6946   H         2 RES2   0.0000
    54 H10     -1.3835   0.5414  10.0486   H         2 RES2   0.0000
    55 H11     -2.1834   1.5245  10.9696   H         2 RES2   0.0000
    56 H12     -3.0157   1.5334   8.7825   H         2 RES2   0.0000
    57 H13     -1.6176   2.0268   8.2722   H         2 RES2   0.0000
    58 H14     -3.3941   3.5531   9.7823   H         2 RES2   0.0000
    59 H15     -3.0866   3.7686   8.2603   H         2 RES2   0.0000
    60 H16      0.0819   5.0402   8.3659   H         2 RES2   0.0000
    61 H17     -1.0489   4.4774   7.4375   H         2 RES2   0.0000
    62 H18     -1.4996   6.5452   9.3851   H         2 RES2   0.0000
    63 H19     -2.6323   5.9824   8.4582   H         2 RES2   0.0000
    64 H20      5.3183   5.9485   9.5324   H         2 RES2   0.0000
    65 H21      5.3756   5.9272  11.0990   H         2 RES2   0.0000
    66 H22      5.5720   8.0038  10.3388   H         2 RES2   0.0000
    67 H23      4.2528   7.8435  11.1675   H         2 RES2   0.0000
    68 H24      4.1964   7.8631   9.6023   H         2 RES2   0.0000
    69 H25     -4.1273   7.7028  12.7669   H         2 RES2   0.0000
    70 H26     -6.2756   6.7429  12.8576   H         2 RES2   0.0000
    71 H27     -6.5397   4.4187  12.5794   H         2 RES2   0.0000
    72 H28     -1.7635   7.4677  12.7803   H         2 RES2   0.0000
    73 H29      1.1362   6.7197  11.7001   H         2 RES2   0.0000
    74 H30      0.3163   7.6939  12.6151   H         2 RES2   0.0000
    75 H31      0.4542   6.0892  14.3782   H         2 RES2   0.0000
    76 H32      1.8659   6.6503  13.9898   H         2 RES2   0.0000
    77 H33      2.3181   4.7375  12.8904   H         2 RES2   0.0000
    78 H34      2.0084   4.4721  14.4035   H         2 RES2   0.0000
    79 H35      1.6562   2.1425  14.0553   H         2 RES2   0.0000
    80 H36      0.5400   1.6350  13.0793   H         2 RES2   0.0000
    81 H37      0.0121   3.5424  15.2113   H         2 RES2   0.0000
    82 H38     -1.1041   3.0330  14.2353   H         2 RES2   0.0000
    83 H39     -6.3340   2.2494  12.9945   H         2 RES2   0.0000
    84 H40     -6.3995   2.3990  11.4353   H         2 RES2   0.0000
    85 H41     -6.5301   0.1745  12.0155   H         2 RES2   0.0000
    86 H42     -5.1552   0.2939  12.7579   H         2 RES2   0.0000
    87 H43     -5.2194   0.4435  11.1987   H         2 RES2   0.0000
    88 Cl1      0.6771  -1.2966   7.3230   Cl        3 RES3   0.0000
    89 O5       0.5695  -2.0713   6.2458   O.2       3 RES3   0.0000
    90 O6      -0.4579  -0.5824   7.5194   O.2       3 RES3   0.0000
    91 O7       1.7698  -0.4684   7.2456   O.2       3 RES3   0.0000
    92 O8       0.8353  -2.0553   8.4433   O.3       3 RES3  -1.0000
@<TRIPOS>BOND
     1     1     2    1
     2     2     3   ar
     3     3     4   ar
     4     4     5   ar
     5     5     6   ar
     6     6     7   ar
     7     7     2   ar
     8     8     3    1
     9     9     4    1
    10    10     5    1
    11    11     6    1
    12    12     7    1
    13    13    14    1
    14    14    22    1
    15    15    27    1
    16    16    13    1
    17    17    41    1
    18    18    13    1
    19    19    13    1
    20    20    13    1
    21    21    13    1
    22    22    23   ar
    23    23    24   ar
    24    24    25   ar
    25    25    26   ar
    26    26    27   ar
    27    27    22   ar
    28    28    18    2
    29    29    18    1
    30    30    29    1
    31    31    19    1
    32    32    19    1
    33    33    19    1
    34    34    15    1
    35    35    34    1
    36    36    16    1
    37    37    36   ar
    38    38    37   ar
    39    39    38   ar
    40    40    39   ar
    41    41    36   ar
    42    42    20    2
    43    43    20    1
    44    44    43    1
    45    45    21    1
    46    46    21    1
    47    47    21    1
    48    48    17    1
    49    49    48    1
    50    50    24    1
    51    51    25    1
    52    52    26    1
    53    53    28    1
    54    54    29    1
    55    55    29    1
    56    56    30    1
    57    57    30    1
    58    58    31    1
    59    59    31    1
    60    60    32    1
    61    61    32    1
    62    62    33    1
    63    63    33    1
    64    64    34    1
    65    65    34    1
    66    66    35    1
    67    67    35    1
    68    68    35    1
    69    69    38    1
    70    70    39    1
    71    71    40    1
    72    72    42    1
    73    73    43    1
    74    74    43    1
    75    75    44    1
    76    76    44    1
    77    77    45    1
    78    78    45    1
    79    79    46    1
    80    80    46    1
    81    81    47    1
    82    82    47    1
    83    83    48    1
    84    84    48    1
    85    85    49    1
    86    86    49    1
    87    87    49    1
    88    23    28    1
    89    30    31    1
    90    32    33    1
    91    37    42    1
    92    40    41   ar
    93    44    45    1
    94    46    47    1
    95    88    89    2
    96    90    88    2
    97    91    88    2
    98    92    88    1
@<TRIPOS>SUBSTRUCTURE
     1 RES1        1 GROUP             0 ****  ****    0  
     2 RES2       13 GROUP             0 ****  ****    0  
     3 RES3       88 GROUP             0 ****  ****    0  
@<TRIPOS>CRYSIN
   13.8600   17.8100   15.8430   90.0000  110.1000   90.0000    14     1
