@<TRIPOS>MOLECULE
PERNIJ01
    92    98     3     0     0
SMALL
USER_CHARGES
****
Generated from the CSD

@<TRIPOS>ATOM
     1 Fe1      2.0234  13.6000   3.5415   Fe        1 RES1   1.0000
     2 O1       0.3273  13.2228   4.3351   O.3       1 RES1   0.0000
     3 O2      -2.0616  12.1569   4.4669   O.3       1 RES1   0.0000
     4 O3       3.7197  13.9807   2.7361   O.3       1 RES1   0.0000
     5 O4       6.0930  15.0607   2.6887   O.3       1 RES1   0.0000
     6 N1       1.8547  15.5406   4.3159   N.2       1 RES1   0.0000
     7 N2       3.1138  13.2760   5.3923   N.3       1 RES1   0.0000
     8 N3       2.2112  11.6647   2.7642   N.2       1 RES1   0.0000
     9 N4       0.9393  13.9824   1.6701   N.3       1 RES1   0.0000
    10 C1      -0.6861  14.0533   4.5187   C.ar      1 RES1   0.0000
    11 C2      -0.5274  15.4255   4.7275   C.ar      1 RES1   0.0000
    12 C3      -1.6430  16.2311   4.9747   C.ar      1 RES1   0.0000
    13 C4      -2.8969  15.7141   5.0103   C.ar      1 RES1   0.0000
    14 C5      -3.0759  14.3383   4.8341   C.ar      1 RES1   0.0000
    15 C6      -2.0118  13.5132   4.6105   C.ar      1 RES1   0.0000
    16 C7       0.7536  16.0346   4.7541   C.2       1 RES1   0.0000
    17 C8       3.1049  16.2665   4.6194   C.3       1 RES1   0.0000
    18 C9       3.7172  15.6556   5.8942   C.3       1 RES1   0.0000
    19 C10      4.2105  14.2215   5.7520   C.3       1 RES1   0.0000
    20 C11      3.2991  11.9374   5.9327   C.3       1 RES1   0.0000
    21 C12      2.3516  12.8138   6.5708   C.3       1 RES1   0.0000
    22 C13     -3.3474  11.5496   4.5291   C.3       1 RES1   0.0000
    23 C14     -3.1828  10.1261   4.5291   C.3       1 RES1   0.0000
    24 C15      4.7419  13.1609   2.6043   C.ar      1 RES1   0.0000
    25 C16      4.6042  11.7674   2.4326   C.ar      1 RES1   0.0000
    26 C17      5.7322  10.9759   2.2120   C.ar      1 RES1   0.0000
    27 C18      6.9755  11.5160   2.1942   C.ar      1 RES1   0.0000
    28 C19      7.1424  12.8687   2.3541   C.ar      1 RES1   0.0000
    29 C20      6.0516  13.6991   2.5525   C.ar      1 RES1   0.0000
    30 C21      3.3110  11.1548   2.3674   C.2       1 RES1   0.0000
    31 C22      0.9582  10.9600   2.4045   C.3       1 RES1   0.0000
    32 C23      0.3791  11.5886   1.1371   C.3       1 RES1   0.0000
    33 C24     -0.1254  12.9874   1.3059   C.3       1 RES1   0.0000
    34 C25      0.6696  15.3405   1.2392   C.3       1 RES1   0.0000
    35 C26      1.6719  14.5419   0.5345   C.3       1 RES1   0.0000
    36 C27      7.3897  15.6840   2.6724   C.3       1 RES1   0.0000
    37 C28      7.1895  17.1270   2.8338   C.3       1 RES1   0.0000
    38 H1      -1.5203  17.1695   5.1346   H         1 RES1   0.0000
    39 H2      -3.6543  16.2860   5.1480   H         1 RES1   0.0000
    40 H3      -3.9602  13.9665   4.8726   H         1 RES1   0.0000
    41 H4       0.7447  16.7198   5.3034   H         1 RES1   0.0000
    42 H5       3.7191  16.1691   3.8865   H         1 RES1   0.0000
    43 H6       2.9170  17.1978   4.7586   H         1 RES1   0.0000
    44 H7       3.0495  15.6734   6.5841   H         1 RES1   0.0000
    45 H8       4.4601  16.2028   6.1548   H         1 RES1   0.0000
    46 H9       4.6017  13.9506   6.5841   H         1 RES1   0.0000
    47 H10      4.8773  14.1949   5.0606   H         1 RES1   0.0000
    48 H11      2.9832  11.1796   5.4352   H         1 RES1   0.0000
    49 H12      4.1192  11.7107   6.3754   H         1 RES1   0.0000
    50 H13      1.4090  12.6474   6.4968   H         1 RES1   0.0000
    51 H14      2.5444  13.1786   7.4384   H         1 RES1   0.0000
    52 H15     -3.8766  11.8223   3.7755   H         1 RES1   0.0000
    53 H16     -3.7856  11.8170   5.3404   H         1 RES1   0.0000
    54 H17     -4.0410   9.7029   4.6061   H         1 RES1   0.0000
    55 H18     -2.6288   9.8605   5.2679   H         1 RES1   0.0000
    56 H19     -2.7680   9.8587   3.7059   H         1 RES1   0.0000
    57 H20      5.6276  10.0340   2.0595   H         1 RES1   0.0000
    58 H21      7.7432  10.8856   2.0772   H         1 RES1   0.0000
    59 H22      8.0251  13.2459   2.3275   H         1 RES1   0.0000
    60 H23      3.2525  10.2872   1.8359   H         1 RES1   0.0000
    61 H24      1.1457  10.0322   2.2475   H         1 RES1   0.0000
    62 H25      0.3267  11.0415   3.1240   H         1 RES1   0.0000
    63 H26     -0.3524  11.0397   0.8454   H         1 RES1   0.0000
    64 H27      1.0638  11.5921   0.4649   H         1 RES1   0.0000
    65 H28     -0.5265  13.2600   0.4782   H         1 RES1   0.0000
    66 H29     -0.7886  12.9891   1.9988   H         1 RES1   0.0000
    67 H30     -0.1656  15.5565   0.8188   H         1 RES1   0.0000
    68 H31      0.9537  16.0770   1.7856   H         1 RES1   0.0000
    69 H32      2.6055  14.7456   0.6144   H         1 RES1   0.0000
    70 H33      1.4861  14.2250  -0.3524   H         1 RES1   0.0000
    71 H34      7.9426  15.3299   3.3728   H         1 RES1   0.0000
    72 H35      7.8088  15.5264   1.8226   H         1 RES1   0.0000
    73 H36      8.0346  17.5803   2.8190   H         1 RES1   0.0000
    74 H37      6.7632  17.2722   3.6807   H         1 RES1   0.0000
    75 H38      6.6302  17.4687   2.1320   H         1 RES1   0.0000
    76 Cl1     -3.5099  10.1898  -0.1051   Cl        2 RES2   0.0000
    77 O5      -2.4212   9.3665  -0.1806   O.2       2 RES2   0.0000
    78 O6      -4.6510   9.4621   0.0755   O.2       2 RES2   0.0000
    79 O7      -3.5809  10.9883  -1.2111   O.2       2 RES2   0.0000
    80 O8      -3.3667  10.9122   1.0453   O.3       2 RES2  -1.0000
    81 C29      3.3538   0.8340  -0.5300   C.ar      3 RES3   0.0000
    82 C30      3.8412   0.5595   0.6929   C.ar      3 RES3   0.0000
    83 C31      4.0953   1.7175   1.4347   C.ar      3 RES3   0.0000
    84 C32      3.9084   3.0065   0.9890   C.ar      3 RES3   0.0000
    85 C33      3.4311   3.1924  -0.2576   C.ar      3 RES3   0.0000
    86 C34      3.1393   2.0627  -1.0779   C.ar      3 RES3   0.0000
    87 Cl2      3.0118  -0.5666  -1.5531   Cl        3 RES3   0.0000
    88 H39      4.0078  -0.3258   1.0275   H         3 RES3   0.0000
    89 H40      4.4329   1.6095   2.3260   H         3 RES3   0.0000
    90 H41      4.0975   3.7661   1.5457   H         3 RES3   0.0000
    91 H42      3.2901   4.0759  -0.6056   H         3 RES3   0.0000
    92 H43      2.8055   2.1654  -1.9721   H         3 RES3   0.0000
@<TRIPOS>BOND
     1     1     2    1
     2     2    10    1
     3     3    15    1
     4     4     1    1
     5     5    29    1
     6     6     1    1
     7     7     1    1
     8     8     1    1
     9     9     1    1
    10    10    11   ar
    11    11    12   ar
    12    12    13   ar
    13    13    14   ar
    14    14    15   ar
    15    15    10   ar
    16    16     6    2
    17    17     6    1
    18    18    17    1
    19    19     7    1
    20    20     7    1
    21    21     7    1
    22    22     3    1
    23    23    22    1
    24    24     4    1
    25    25    24   ar
    26    26    25   ar
    27    27    26   ar
    28    28    27   ar
    29    29    24   ar
    30    30     8    2
    31    31     8    1
    32    32    31    1
    33    33     9    1
    34    34     9    1
    35    35     9    1
    36    36     5    1
    37    37    36    1
    38    38    12    1
    39    39    13    1
    40    40    14    1
    41    41    16    1
    42    42    17    1
    43    43    17    1
    44    44    18    1
    45    45    18    1
    46    46    19    1
    47    47    19    1
    48    48    20    1
    49    49    20    1
    50    50    21    1
    51    51    21    1
    52    52    22    1
    53    53    22    1
    54    54    23    1
    55    55    23    1
    56    56    23    1
    57    57    26    1
    58    58    27    1
    59    59    28    1
    60    60    30    1
    61    61    31    1
    62    62    31    1
    63    63    32    1
    64    64    32    1
    65    65    33    1
    66    66    33    1
    67    67    34    1
    68    68    34    1
    69    69    35    1
    70    70    35    1
    71    71    36    1
    72    72    36    1
    73    73    37    1
    74    74    37    1
    75    75    37    1
    76    11    16    1
    77    18    19    1
    78    20    21    1
    79    25    30    1
    80    28    29   ar
    81    32    33    1
    82    34    35    1
    83    76    77    2
    84    78    76    2
    85    79    76    2
    86    80    76    1
    87    81    82   ar
    88    82    83   ar
    89    83    84   ar
    90    84    85   ar
    91    85    86   ar
    92    86    81   ar
    93    87    81    1
    94    88    82    1
    95    89    83    1
    96    90    84    1
    97    91    85    1
    98    92    86    1
@<TRIPOS>SUBSTRUCTURE
     1 RES1        1 GROUP             0 ****  ****    0  
     2 RES2       76 GROUP             0 ****  ****    0  
     3 RES3       81 GROUP             0 ****  ****    0  
@<TRIPOS>CRYSIN
   13.8340   17.7060   15.7670   90.0000  110.1100   90.0000    14     1
