@<TRIPOS>MOLECULE
PESJIG
   124   131     3     0     0
SMALL
USER_CHARGES
****
Generated from the CSD

@<TRIPOS>ATOM
     1 Se1     10.0013   1.0192   3.8043   Se        1 RES1   0.0000
     2 Se2     12.4796  -1.1405   3.3429   Se        1 RES1   0.0000
     3 Se3     13.1296   2.1296   3.6385   Se        1 RES1   0.0000
     4 Fe1     11.7457   0.8330   2.0761   Fe        1 RES1  -1.0000
     5 C1      10.5974  -0.0666   1.1203   C.1       1 RES1   0.0000
     6 C2      11.4117   2.4437   1.3933   C.1       1 RES1   0.0000
     7 C3      13.0936   0.4240   1.0543   C.1       1 RES1   0.0000
     8 C4       8.8573   2.4822   3.3668   C.ar      1 RES1   0.0000
     9 C5       8.1837   2.6364   2.2349   C.ar      1 RES1   0.0000
    10 C6       7.3557   3.6842   2.0080   C.ar      1 RES1   0.0000
    11 C7       7.1838   4.6303   2.9301   C.ar      1 RES1   0.0000
    12 C8       7.7981   4.6117   4.1166   C.ar      1 RES1   0.0000
    13 C9       8.6672   3.4938   4.3492   C.ar      1 RES1   0.0000
    14 C10     11.6414  -2.6691   2.5136   C.ar      1 RES1   0.0000
    15 C11     10.2955  -2.9296   2.7463   C.ar      1 RES1   0.0000
    16 C12      9.7113  -4.0697   2.2263   C.ar      1 RES1   0.0000
    17 C13     10.4798  -4.9177   1.5053   C.ar      1 RES1   0.0000
    18 C14     11.7892  -4.6841   1.2525   C.ar      1 RES1   0.0000
    19 C15     12.4030  -3.5475   1.7983   C.ar      1 RES1   0.0000
    20 C16     14.7159   2.6060   2.6745   C.ar      1 RES1   0.0000
    21 C17     14.8012   3.9096   2.2206   C.ar      1 RES1   0.0000
    22 C18     15.9511   4.3792   1.4952   C.ar      1 RES1   0.0000
    23 C19     16.8802   3.4389   1.4134   C.ar      1 RES1   0.0000
    24 C20     16.9856   2.1797   1.8471   C.ar      1 RES1   0.0000
    25 C21     15.7726   1.7767   2.4906   C.ar      1 RES1   0.0000
    26 O1       9.8458  -0.6144   0.4395   O.2       1 RES1   0.0000
    27 O2      11.1562   3.4401   0.8848   O.2       1 RES1   0.0000
    28 O3      13.9678   0.1764   0.3332   O.2       1 RES1   0.0000
    29 H1       8.2505   1.9157   1.5225   H         1 RES1   0.0000
    30 H2       6.8882   3.8197   1.0054   H         1 RES1   0.0000
    31 H3       6.5769   5.3733   2.7003   H         1 RES1   0.0000
    32 H4       9.0695   3.3875   5.2570   H         1 RES1   0.0000
    33 H5       9.7291  -2.2895   3.2461   H         1 RES1   0.0000
    34 H6       8.7177  -4.2636   2.3843   H         1 RES1   0.0000
    35 H7      10.0737  -5.7237   1.1778   H         1 RES1   0.0000
    36 H8      12.2005  -5.3032   0.6607   H         1 RES1   0.0000
    37 H9      13.3937  -3.3992   1.6374   H         1 RES1   0.0000
    38 H10     14.0043   4.5673   2.3269   H         1 RES1   0.0000
    39 H11     16.1260   5.3032   1.1491   H         1 RES1   0.0000
    40 H12     17.6241   3.6562   0.8618   H         1 RES1   0.0000
    41 H13     17.7763   1.6937   1.6662   H         1 RES1   0.0000
    42 H14     15.6892   0.7943   2.8152   H         1 RES1   0.0000
    43 P1       4.4319   2.1178   6.4819   P.3       2 RES2   0.0000
    44 P2       3.6093   0.2546   4.3438   P.3       2 RES2   0.0000
    45 N1       4.5431   1.1751   5.2426   N.1       2 RES2   1.0000
    46 C22      3.3378   1.5559   7.7907   C.ar      2 RES2   0.0000
    47 C23      1.9803   1.6996   7.6155   C.ar      2 RES2   0.0000
    48 C24      1.0833   1.1120   8.4486   C.ar      2 RES2   0.0000
    49 C25      1.5384   0.3317   9.4827   C.ar      2 RES2   0.0000
    50 C26      2.8939   0.1413   9.6809   C.ar      2 RES2   0.0000
    51 C27      3.7883   0.7488   8.8048   C.ar      2 RES2   0.0000
    52 C28      6.0816   2.2392   7.2104   C.ar      2 RES2   0.0000
    53 C29      6.3247   3.1585   8.2159   C.ar      2 RES2   0.0000
    54 C30      7.5669   3.1726   8.7875   C.ar      2 RES2   0.0000
    55 C31      8.5153   2.2825   8.4543   C.ar      2 RES2   0.0000
    56 C32      8.2812   1.3749   7.4546   C.ar      2 RES2   0.0000
    57 C33      7.0587   1.3363   6.8427   C.ar      2 RES2   0.0000
    58 C34      3.8868   3.7671   6.0154   C.ar      2 RES2   0.0000
    59 C35      3.4351   4.6584   6.9519   C.ar      2 RES2   0.0000
    60 C36      3.0369   5.9281   6.6072   C.ar      2 RES2   0.0000
    61 C37      3.0815   6.2961   5.2829   C.ar      2 RES2   0.0000
    62 C38      3.5230   5.4317   4.3176   C.ar      2 RES2   0.0000
    63 C39      3.9690   4.1584   4.6997   C.ar      2 RES2   0.0000
    64 C40      2.4838   1.2090   3.3007   C.ar      2 RES2   0.0000
    65 C41      1.3193   1.7194   3.8322   C.ar      2 RES2   0.0000
    66 C42      0.5277   2.5336   3.0537   C.ar      2 RES2   0.0000
    67 C43      0.9116   2.8560   1.8012   C.ar      2 RES2   0.0000
    68 C44      2.0390   2.3724   1.2554   C.ar      2 RES2   0.0000
    69 C45      2.8572   1.5349   2.0224   C.ar      2 RES2   0.0000
    70 C46      2.6589  -0.9146   5.3202   C.ar      2 RES2   0.0000
    71 C47      1.3998  -1.3013   4.9381   C.ar      2 RES2   0.0000
    72 C48      0.6883  -2.1808   5.7367   C.ar      2 RES2   0.0000
    73 C49      1.2164  -2.6609   6.8858   C.ar      2 RES2   0.0000
    74 C50      2.4989  -2.3163   7.2564   C.ar      2 RES2   0.0000
    75 C51      3.2064  -1.4484   6.4664   C.ar      2 RES2   0.0000
    76 C52      4.7196  -0.6787   3.2835   C.ar      2 RES2   0.0000
    77 C53      5.9586  -0.2254   2.9215   C.ar      2 RES2   0.0000
    78 C54      6.7725  -0.9847   2.1229   C.ar      2 RES2   0.0000
    79 C55      6.3445  -2.1937   1.6460   C.ar      2 RES2   0.0000
    80 C56      5.0915  -2.6528   1.9850   C.ar      2 RES2   0.0000
    81 C57      4.2764  -1.9017   2.7980   C.ar      2 RES2   0.0000
    82 H15      1.6625   2.2661   6.8370   H         2 RES2   0.0000
    83 H16      0.0887   1.2148   8.3308   H         2 RES2   0.0000
    84 H17      0.9221  -0.0701  10.1118   H         2 RES2   0.0000
    85 H18      3.2011  -0.4672  10.3991   H         2 RES2   0.0000
    86 H19      4.7722   0.6191   8.9340   H         2 RES2   0.0000
    87 H20      5.5789   3.7379   8.5031   H         2 RES2   0.0000
    88 H21      7.7644   3.8781   9.4799   H         2 RES2   0.0000
    89 H22      9.3521   2.3362   8.9053   H         2 RES2   0.0000
    90 H23      8.9938   0.7826   7.1817   H         2 RES2   0.0000
    91 H24      6.8826   0.7009   6.0901   H         2 RES2   0.0000
    92 H25      3.4216   4.3804   7.9286   H         2 RES2   0.0000
    93 H26      2.6483   6.5647   7.2679   H         2 RES2   0.0000
    94 H27      2.8457   7.2189   5.0559   H         2 RES2   0.0000
    95 H28      3.4771   5.7120   3.3610   H         2 RES2   0.0000
    96 H29      4.3438   3.5160   4.0505   H         2 RES2   0.0000
    97 H30      1.0468   1.4718   4.7687   H         2 RES2   0.0000
    98 H31     -0.3345   2.9203   3.3898   H         2 RES2   0.0000
    99 H32      0.3699   3.4225   1.2353   H         2 RES2   0.0000
   100 H33      2.3059   2.6749   0.3447   H         2 RES2   0.0000
   101 H34      3.6949   1.1564   1.6374   H         2 RES2   0.0000
   102 H35      1.0072  -0.9228   4.1367   H         2 RES2   0.0000
   103 H36     -0.2336  -2.4764   5.4868   H         2 RES2   0.0000
   104 H37      0.7418  -3.3057   7.4690   H         2 RES2   0.0000
   105 H38      2.8940  -2.6516   8.1010   H         2 RES2   0.0000
   106 H39      4.1374  -1.2031   6.7221   H         2 RES2   0.0000
   107 H40      6.2350   0.6541   3.3036   H         2 RES2   0.0000
   108 H41      7.6730  -0.6541   1.8960   H         2 RES2   0.0000
   109 H42      6.9740  -2.7334   1.1203   H         2 RES2   0.0000
   110 H43      4.7564  -3.4926   1.5800   H         2 RES2   0.0000
   111 H44      3.4041  -2.2428   3.1025   H         2 RES2   0.0000
   112 C58     15.2666   0.0047   6.4750   C.3       3 RES3   0.0000
   113 C59     15.4237  -1.4449   6.0413   C.3       3 RES3   0.0000
   114 O4      15.3635  -2.2135   7.1817   O.3       3 RES3   0.0000
   115 H45     15.9027   0.3738   5.8028   H         3 RES3   0.0000
   116 H46     14.5584   0.1752   5.8028   H         3 RES3   0.0000
   117 H47     16.2485  -1.5886   5.5155   H         3 RES3   0.0000
   118 H48     14.7248  -1.6937   5.3719   H         3 RES3   0.0000
   119 C58B    15.4605   0.0047   7.8884   C.3       3 RES3   0.0000
   120 C59B    15.3034  -1.4449   8.3222   C.3       3 RES3   0.0000
   121 H45B    14.8244   0.3738   8.5606   H         3 RES3   0.0000
   122 H46B    16.1687   0.1752   8.5606   H         3 RES3   0.0000
   123 H47B    14.4786  -1.5886   8.8479   H         3 RES3   0.0000
   124 H48B    16.0023  -1.6937   8.9915   H         3 RES3   0.0000
@<TRIPOS>BOND
     1     1     4    1
     2     2     4    1
     3     3     4    1
     4     4     5    1
     5     5    26    3
     6     6     4    1
     7     7     4    1
     8     8     1    1
     9     9     8   ar
    10    10     9   ar
    11    11    10   ar
    12    12    11   ar
    13    13     8   ar
    14    14     2    1
    15    15    14   ar
    16    16    15   ar
    17    17    16   ar
    18    18    17   ar
    19    19    14   ar
    20    20     3    1
    21    21    20   ar
    22    22    21   ar
    23    23    22   ar
    24    24    23   ar
    25    25    20   ar
    26    27     6    3
    27    28     7    3
    28    29     9    1
    29    30    10    1
    30    31    11    1
    31    32    13    1
    32    33    15    1
    33    34    16    1
    34    35    17    1
    35    36    18    1
    36    37    19    1
    37    38    21    1
    38    39    22    1
    39    40    23    1
    40    41    24    1
    41    42    25    1
    42    12    13   ar
    43    18    19   ar
    44    24    25   ar
    45    43    45    2
    46    44    45    2
    47    46    43    1
    48    47    46   ar
    49    48    47   ar
    50    49    48   ar
    51    50    49   ar
    52    51    46   ar
    53    52    43    1
    54    53    52   ar
    55    54    53   ar
    56    55    54   ar
    57    56    55   ar
    58    57    52   ar
    59    58    43    1
    60    59    58   ar
    61    60    59   ar
    62    61    60   ar
    63    62    61   ar
    64    63    58   ar
    65    64    44    1
    66    65    64   ar
    67    66    65   ar
    68    67    66   ar
    69    68    67   ar
    70    69    64   ar
    71    70    44    1
    72    71    70   ar
    73    72    71   ar
    74    73    72   ar
    75    74    73   ar
    76    75    70   ar
    77    76    44    1
    78    77    76   ar
    79    78    77   ar
    80    79    78   ar
    81    80    79   ar
    82    81    76   ar
    83    82    47    1
    84    83    48    1
    85    84    49    1
    86    85    50    1
    87    86    51    1
    88    87    53    1
    89    88    54    1
    90    89    55    1
    91    90    56    1
    92    91    57    1
    93    92    59    1
    94    93    60    1
    95    94    61    1
    96    95    62    1
    97    96    63    1
    98    97    65    1
    99    98    66    1
   100    99    67    1
   101   100    68    1
   102   101    69    1
   103   102    71    1
   104   103    72    1
   105   104    73    1
   106   105    74    1
   107   106    75    1
   108   107    77    1
   109   108    78    1
   110   109    79    1
   111   110    80    1
   112   111    81    1
   113    50    51   ar
   114    56    57   ar
   115    62    63   ar
   116    68    69   ar
   117    74    75   ar
   118    80    81   ar
   119   112   113    1
   120   113   114    1
   121   114   120    1
   122   115   112    1
   123   116   112    1
   124   117   113    1
   125   118   113    1
   126   119   112    1
   127   120   119    1
   128   121   119    1
   129   122   119    1
   130   123   120    1
   131   124   120    1
@<TRIPOS>SUBSTRUCTURE
     1 RES1        1 GROUP             0 ****  ****    0  
     2 RES2       43 GROUP             0 ****  ****    0  
     3 RES3      112 GROUP             0 ****  ****    0  
@<TRIPOS>CRYSIN
   32.0090   11.6810   28.8410   90.0000   95.1000   90.0000    15     1
