@<TRIPOS>MOLECULE
PETDAT
    85    88     3     0     0
SMALL
USER_CHARGES
****
Generated from the CSD

@<TRIPOS>ATOM
     1 Fe1      7.2044   4.0536   8.6900   Fe        1 RES1  -1.0000
     2 Cl1     12.9014   7.8332   7.4592   Cl        1 RES1   0.0000
     3 Cl2     13.9502   4.8058   7.2330   Cl        1 RES1   0.0000
     4 O1      10.3019   1.5695   7.4168   O.2       1 RES1   0.0000
     5 O2       8.0058   8.0884   7.9863   O.2       1 RES1   0.0000
     6 O3       6.4720   3.8805   6.8747   O.co2     1 RES1   0.0000
     7 O4       4.4387   3.1672   7.3877   O.co2     1 RES1   0.0000
     8 O5       7.5166   4.0668  10.6435   O.co2     1 RES1   0.0000
     9 O6       5.5217   3.2896  11.1614   O.co2     1 RES1   0.0000
    10 N1       9.0856   3.3893   8.1751   N.am      1 RES1   0.0000
    11 N2       8.2300   5.8132   8.3364   N.am      1 RES1   0.0000
    12 N3       7.0465   1.8556   8.7559   N.ar      1 RES1   0.0000
    13 N4       5.6921   5.6194   9.0059   N.ar      1 RES1   0.0000
    14 C1      10.0646   4.3660   7.9605   C.ar      1 RES1   0.0000
    15 C2      11.4066   4.1232   7.7233   C.ar      1 RES1   0.0000
    16 C3      12.2844   5.1865   7.5426   C.ar      1 RES1   0.0000
    17 C4      11.8260   6.4756   7.6071   C.ar      1 RES1   0.0000
    18 C5      10.4839   6.7466   7.8443   C.ar      1 RES1   0.0000
    19 C6       9.5889   5.6984   8.0379   C.ar      1 RES1   0.0000
    20 C7       9.2978   2.0946   7.8927   C.2       1 RES1   0.0000
    21 C8       8.1128   1.2326   8.2380   C.ar      1 RES1   0.0000
    22 C9       5.9892   1.1141   9.1205   C.ar      1 RES1   0.0000
    23 C10      5.9802  -0.2578   8.9834   C.ar      1 RES1   0.0000
    24 C11      7.0630  -0.8883   8.4316   C.ar      1 RES1   0.0000
    25 C12      8.1628  -0.1374   8.0508   C.ar      1 RES1   0.0000
    26 C13      7.5791   6.9856   8.3170   C.2       1 RES1   0.0000
    27 C14      6.1531   6.8595   8.7833   C.ar      1 RES1   0.0000
    28 C15      4.4188   5.4707   9.3948   C.ar      1 RES1   0.0000
    29 C16      3.5854   6.5565   9.5932   C.ar      1 RES1   0.0000
    30 C17      4.0721   7.8231   9.3964   C.ar      1 RES1   0.0000
    31 C18      5.3784   7.9849   8.9769   C.ar      1 RES1   0.0000
    32 C19      5.2901   3.4778   6.5730   C.2       1 RES1   0.0000
    33 C20      5.0108   3.4006   5.0999   C.3       1 RES1   0.0000
    34 C21      6.6325   3.6772  11.4873   C.2       1 RES1   0.0000
    35 C22      7.0296   3.7544  12.9362   C.3       1 RES1   0.0000
    36 H1      11.7578   3.1992   7.6797   H         1 RES1   0.0000
    37 H2      10.1756   7.6593   7.8572   H         1 RES1   0.0000
    38 H3       5.1907   1.5808   9.4867   H         1 RES1   0.0000
    39 H4       5.2130  -0.7716   9.3093   H         1 RES1   0.0000
    40 H5       7.0660  -1.8631   8.3090   H         1 RES1   0.0000
    41 H6       8.9544  -0.5458   7.6313   H         1 RES1   0.0000
    42 H7       4.0726   4.5542   9.5513   H         1 RES1   0.0000
    43 H8       2.6710   6.4361   9.8740   H         1 RES1   0.0000
    44 H9       3.5076   8.6191   9.5513   H         1 RES1   0.0000
    45 H10      5.7311   8.8826   8.7930   H         1 RES1   0.0000
    46 H11      5.4420   2.6911   4.7272   H         1 RES1   0.0000
    47 H12      5.3472   4.1966   4.6466   H         1 RES1   0.0000
    48 H13      4.0654   3.3121   4.9208   H         1 RES1   0.0000
    49 H14      6.5919   4.4413  13.4557   H         1 RES1   0.0000
    50 H15      7.9973   3.9332  12.9878   H         1 RES1   0.0000
    51 H16      6.8564   2.8981  13.3589   H         1 RES1   0.0000
    52 Cl3      3.0120   0.4326  11.5099   Cl        2 RES2   0.0000
    53 Cl4      2.4715   2.2112  13.6732   Cl        2 RES2   0.0000
    54 Cl5      1.7164   2.9188  11.0162   Cl        2 RES2   0.0000
    55 C23      2.8753   2.0964  12.0036   C.3       2 RES2   0.0000
    56 H17      3.7553   2.5406  11.8746   H         2 RES2   0.0000
    57 N5      11.9162   1.0482   3.8512   N.4       3 RES3   1.0000
    58 C24     10.5859   1.3117   3.1703   C.3       3 RES3   0.0000
    59 C25      9.4801   1.7351   4.0932   C.3       3 RES3   0.0000
    60 C26     11.7945  -0.0263   4.9176   C.3       3 RES3   0.0000
    61 C27     11.2514  -1.3474   4.4207   C.3       3 RES3   0.0000
    62 C28     12.4019   2.2922   4.5675   C.3       3 RES3   0.0000
    63 C29     12.5567   3.5041   3.6656   C.3       3 RES3   0.0000
    64 C30     12.8767   0.6173   2.7541   C.3       3 RES3   0.0000
    65 C31     14.2805   0.3237   3.2026   C.3       3 RES3   0.0000
    66 H18     10.3089   0.5081   2.6944   H         3 RES3   0.0000
    67 H19     10.7274   2.0325   2.5008   H         3 RES3   0.0000
    68 H20      8.6918   1.7690   3.8076   H         3 RES3   0.0000
    69 H21      9.6502   2.6347   4.4368   H         3 RES3   0.0000
    70 H22      9.4303   1.1291   4.8724   H         3 RES3   0.0000
    71 H23     11.1987   0.2823   5.6307   H         3 RES3   0.0000
    72 H24     12.6833  -0.1694   5.3242   H         3 RES3   0.0000
    73 H25     11.2839  -1.9760   5.1306   H         3 RES3   0.0000
    74 H26     11.7754  -1.7125   3.6785   H         3 RES3   0.0000
    75 H27     10.3272  -1.2797   4.1141   H         3 RES3   0.0000
    76 H28     13.2497   2.1077   5.0015   H         3 RES3   0.0000
    77 H29     11.7500   2.5406   5.2597   H         3 RES3   0.0000
    78 H30     12.6818   4.2719   4.2594   H         3 RES3   0.0000
    79 H31     11.7749   3.6697   3.1138   H         3 RES3   0.0000
    80 H32     13.3379   3.4251   3.0977   H         3 RES3   0.0000
    81 H33     12.9186   1.3738   2.0974   H         3 RES3   0.0000
    82 H34     12.5184  -0.1506   2.3233   H         3 RES3   0.0000
    83 H35     14.8762   0.0000   2.4524   H         3 RES3   0.0000
    84 H36     14.3232  -0.3576   3.9044   H         3 RES3   0.0000
    85 H37     14.7454   1.1291   3.5656   H         3 RES3   0.0000
@<TRIPOS>BOND
     1     1     6    1
     2     2    17    1
     3     3    16    1
     4     4    20    2
     5     5    26    2
     6     6    32    1
     7     7    32    2
     8     8     1    1
     9     9    34    2
    10    10     1    1
    11    11     1    1
    12    12     1    1
    13    13     1    1
    14    14    10    1
    15    15    14   ar
    16    16    15   ar
    17    17    16   ar
    18    18    17   ar
    19    19    11    1
    20    20    10   am
    21    21    12   ar
    22    22    12   ar
    23    23    22   ar
    24    24    23   ar
    25    25    21   ar
    26    26    11   am
    27    27    13   ar
    28    28    13   ar
    29    29    28   ar
    30    30    29   ar
    31    31    27   ar
    32    32    33    1
    33    33    46    1
    34    34     8    1
    35    35    34    1
    36    36    15    1
    37    37    18    1
    38    38    22    1
    39    39    23    1
    40    40    24    1
    41    41    25    1
    42    42    28    1
    43    43    29    1
    44    44    30    1
    45    45    31    1
    46    47    33    1
    47    48    33    1
    48    49    35    1
    49    50    35    1
    50    51    35    1
    51    14    19   ar
    52    18    19   ar
    53    20    21    1
    54    24    25   ar
    55    26    27    1
    56    30    31   ar
    57    52    55    1
    58    53    55    1
    59    54    55    1
    60    55    56    1
    61    57    58    1
    62    58    59    1
    63    59    68    1
    64    60    57    1
    65    61    60    1
    66    62    57    1
    67    63    62    1
    68    64    57    1
    69    65    64    1
    70    66    58    1
    71    67    58    1
    72    69    59    1
    73    70    59    1
    74    71    60    1
    75    72    60    1
    76    73    61    1
    77    74    61    1
    78    75    61    1
    79    76    62    1
    80    77    62    1
    81    78    63    1
    82    79    63    1
    83    80    63    1
    84    81    64    1
    85    82    64    1
    86    83    65    1
    87    84    65    1
    88    85    65    1
@<TRIPOS>SUBSTRUCTURE
     1 RES1        1 GROUP             0 ****  ****    0  
     2 RES2       52 GROUP             0 ****  ****    0  
     3 RES3       57 GROUP             0 ****  ****    0  
@<TRIPOS>CRYSIN
   12.2830   18.8190   16.4370   90.0000  101.0200   90.0000    14     1
