@<TRIPOS>MOLECULE
PETZEV
    79    83     2     0     0
SMALL
NO_CHARGES
****
Generated from the CSD

@<TRIPOS>ATOM
     1 Fe1     -0.1068   2.1747   4.6892   Fe        1 RES1   0.0000
     2 O1      -0.6376   1.2150   6.4398   O.2       1 RES1   0.0000
     3 O2      -0.4439   0.0779   8.3624   O.3       1 RES1   0.0000
     4 O3      -1.6161   3.5451   4.2546   O.2       1 RES1   0.0000
     5 O4      -2.6722   5.2722   3.2847   O.3       1 RES1   0.0000
     6 N1       1.6908   1.0356   4.7354   N.2       1 RES1   0.0000
     7 N2       0.8967   2.8952   2.9814   N.2       1 RES1   0.0000
     8 N3       2.4364  -1.5872   8.6117   N.1       1 RES1   0.0000
     9 N4      -0.8699   6.7967   0.9623   N.1       1 RES1   0.0000
    10 N5      -1.1608   0.6472   3.5404   N.2       1 RES1   0.0000
    11 N6      -2.3422  -1.1291   2.9858   N.pl3     1 RES1   0.0000
    12 N7       0.8081   3.7502   5.9598   N.2       1 RES1   0.0000
    13 N8       2.1869   5.3753   6.5782   N.pl3     1 RES1   0.0000
    14 C1       0.0422   0.4789   7.1741   C.2       1 RES1   0.0000
    15 C2       1.3498  -0.0158   6.8891   C.2       1 RES1   0.0000
    16 C3       2.0812   0.2651   5.7160   C.2       1 RES1   0.0000
    17 H1       2.9343  -0.1428   5.6305   H         1 RES1   0.0000
    18 C4       1.9428  -0.8799   7.8494   C.1       1 RES1   0.0000
    19 C5      -1.7665   0.5762   8.7005   C.3       1 RES1   0.0000
    20 H2      -2.4248   0.2780   8.0240   H         1 RES1   0.0000
    21 H3      -1.7623   1.5662   8.7174   H         1 RES1   0.0000
    22 C6      -2.1359   0.0378  10.0524   C.3       1 RES1   0.0000
    23 H4      -2.1380  -0.9417  10.0255   H         1 RES1   0.0000
    24 H5      -3.0283   0.3595  10.2987   H         1 RES1   0.0000
    25 H6      -1.4828   0.3449  10.7160   H         1 RES1   0.0000
    26 C7       2.4877   1.1813   3.5714   C.ar      1 RES1   0.0000
    27 C8       3.6260   0.4223   3.2702   C.ar      1 RES1   0.0000
    28 H7       3.9478  -0.2114   3.9006   H         1 RES1   0.0000
    29 C9       4.2849   0.5848   2.0661   C.ar      1 RES1   0.0000
    30 H8       5.0667   0.0748   1.8842   H         1 RES1   0.0000
    31 C10      3.8174   1.4825   1.1246   C.ar      1 RES1   0.0000
    32 H9       4.2603   1.5689   0.2881   H         1 RES1   0.0000
    33 C11      2.7023   2.2547   1.4032   C.ar      1 RES1   0.0000
    34 H10      2.3792   2.8663   0.7513   H         1 RES1   0.0000
    35 C12      2.0480   2.1448   2.6284   C.ar      1 RES1   0.0000
    36 C13     -1.6132   4.4541   3.4126   C.2       1 RES1   0.0000
    37 C14     -0.5628   4.7596   2.5007   C.2       1 RES1   0.0000
    38 C15      0.6064   3.9825   2.3190   C.2       1 RES1   0.0000
    39 H11      1.2296   4.2753   1.6630   H         1 RES1   0.0000
    40 C16     -0.7292   5.8913   1.6538   C.1       1 RES1   0.0000
    41 C17     -3.8106   5.0288   4.1479   C.3       1 RES1   0.0000
    42 H12     -4.3721   5.8433   4.1842   H         1 RES1   0.0000
    43 H13     -3.4906   4.8380   5.0647   H         1 RES1   0.0000
    44 C18     -4.6326   3.8826   3.6631   C.3       1 RES1   0.0000
    45 H14     -4.9467   4.0689   2.7529   H         1 RES1   0.0000
    46 H15     -5.4025   3.7597   4.2555   H         1 RES1   0.0000
    47 H16     -4.0886   3.0679   3.6616   H         1 RES1   0.0000
    48 C19     -2.1144  -0.1761   3.9136   C.2       1 RES1   0.0000
    49 H17     -2.5856  -0.1085   4.7351   H         1 RES1   0.0000
    50 C20     -1.4773  -0.9080   1.9542   C.2       1 RES1   0.0000
    51 H18     -1.3969  -1.4159   1.1552   H         1 RES1   0.0000
    52 C21     -0.7562   0.1855   2.3036   C.2       1 RES1   0.0000
    53 H19     -0.0718   0.5778   1.7744   H         1 RES1   0.0000
    54 C22     -3.2806  -2.2425   3.0933   C.3       1 RES1   0.0000
    55 H20     -3.6373  -2.2819   4.0046   H         1 RES1   0.0000
    56 H21     -2.8168  -3.0809   2.8880   H         1 RES1   0.0000
    57 H22     -4.0162  -2.1116   2.4589   H         1 RES1   0.0000
    58 C23      1.7047   4.6097   5.5872   C.2       1 RES1   0.0000
    59 H23      1.9970   4.6907   4.6861   H         1 RES1   0.0000
    60 C24      1.5210   5.0029   7.7151   C.2       1 RES1   0.0000
    61 H24      1.6293   5.3419   8.5957   H         1 RES1   0.0000
    62 C25      0.6263   3.9830   7.2667   C.2       1 RES1   0.0000
    63 H25     -0.0063   3.5356   7.8146   H         1 RES1   0.0000
    64 C26      3.2055   6.3899   6.4352   C.3       1 RES1   0.0000
    65 H26      4.0523   6.0566   6.8005   H         1 RES1   0.0000
    66 H27      2.9350   7.1953   6.9223   H         1 RES1   0.0000
    67 H28      3.3215   6.6050   5.4864   H         1 RES1   0.0000
    68 O5       6.4970   3.9694  -3.0724   O.2       2 RES2   0.0000
    69 N9       6.8143   3.1714  -0.9675   N.am      2 RES2   0.0000
    70 C27      6.9591   3.1519  -2.2822   C.2       2 RES2   0.0000
    71 H29      7.4682   2.4386  -2.6489   H         2 RES2   0.0000
    72 C28      6.0938   4.2586  -0.3415   C.3       2 RES2   0.0000
    73 H30      6.7150   4.7990   0.1901   H         2 RES2   0.0000
    74 H31      5.3945   3.8961   0.2405   H         2 RES2   0.0000
    75 H32      5.6834   4.8202  -1.0334   H         2 RES2   0.0000
    76 C29      7.4834   2.2132  -0.0921   C.3       2 RES2   0.0000
    77 H33      7.8836   1.5009  -0.6340   H         2 RES2   0.0000
    78 H34      6.8317   1.8254   0.5271   H         2 RES2   0.0000
    79 H35      8.1863   2.6700   0.4158   H         2 RES2   0.0000
@<TRIPOS>BOND
     1     1     2    1
     2     2    14    2
     3     3    14    1
     4     4     1    1
     5     5    36    1
     6     6     1    1
     7     7     1    1
     8     8    18    3
     9     9    40    3
    10    10     1    1
    11    11    48    1
    12    12     1    1
    13    13    58    1
    14    14    15    1
    15    15    16    2
    16    16     6    1
    17    17    16    1
    18    18    15    1
    19    19     3    1
    20    20    19    1
    21    21    19    1
    22    22    19    1
    23    23    22    1
    24    24    22    1
    25    25    22    1
    26    26     6    1
    27    27    26   ar
    28    28    27    1
    29    29    27   ar
    30    30    29    1
    31    31    29   ar
    32    32    31    1
    33    33    31   ar
    34    34    33    1
    35    35     7    1
    36    36     4    2
    37    37    36    1
    38    38     7    1
    39    39    38    1
    40    40    37    1
    41    41     5    1
    42    42    41    1
    43    43    41    1
    44    44    41    1
    45    45    44    1
    46    46    44    1
    47    47    44    1
    48    48    10    2
    49    49    48    1
    50    50    11    1
    51    51    50    1
    52    52    10    1
    53    53    52    1
    54    54    11    1
    55    55    54    1
    56    56    54    1
    57    57    54    1
    58    58    12    2
    59    59    58    1
    60    60    13    1
    61    61    60    1
    62    62    12    1
    63    63    62    1
    64    64    13    1
    65    65    64    1
    66    66    64    1
    67    67    64    1
    68    26    35   ar
    69    33    35   ar
    70    37    38    2
    71    50    52    2
    72    60    62    2
    73    68    70    2
    74    69    70   am
    75    70    71    1
    76    72    69    1
    77    73    72    1
    78    74    72    1
    79    75    72    1
    80    76    69    1
    81    77    76    1
    82    78    76    1
    83    79    76    1
@<TRIPOS>SUBSTRUCTURE
     1 RES1        1 GROUP             0 ****  ****    0  
     2 RES2       68 GROUP             0 ****  ****    0  
@<TRIPOS>CRYSIN
    9.6875   10.7398   15.2491  100.4530   97.6860   91.2450     2     1
