@<TRIPOS>MOLECULE
PEWHEG
   100   108     2     0     0
SMALL
USER_CHARGES
****
Generated from the CSD

@<TRIPOS>ATOM
     1 Fe1      4.6007   9.6918   4.0833   Fe        1 RES1   1.0000
     2 N1       4.9150  10.4959  -0.2119   N.pl3     1 RES1   0.0000
     3 N2       4.7715  10.0636   1.9240   N.2       1 RES1   0.0000
     4 N3       2.8310  10.7877   3.7559   N.2       1 RES1   0.0000
     5 N4       4.2365   9.4121   6.3068   N.3       1 RES1   0.0000
     6 N5       6.2072   8.3283   4.4733   N.2       1 RES1   0.0000
     7 N6       3.7593   7.7366   3.4287   N.2       1 RES1   0.0000
     8 N7       3.0495   5.8795   2.5196   N.pl3     1 RES1   0.0000
     9 N8       5.7684  11.4333   4.4172   N.2       1 RES1   0.0000
    10 N9       5.9287  12.2698   3.5921   N.1       1 RES1   1.0000
    11 N10      6.1113  13.0795   2.7711   N.3       1 RES1  -1.0000
    12 C1       6.7704   9.3336   0.7287   C.3       1 RES1   0.0000
    13 C2       5.4864   9.9558   0.8425   C.2       1 RES1   0.0000
    14 C3       3.6576  11.0243   0.2067   C.2       1 RES1   0.0000
    15 C4       3.6099  10.7560   1.5247   C.2       1 RES1   0.0000
    16 C5       2.6366  11.1122   2.5093   C.2       1 RES1   0.0000
    17 C6       1.8861  11.2727   4.7886   C.3       1 RES1   0.0000
    18 C7       1.9457  10.4244   6.0006   C.3       1 RES1   0.0000
    19 C8       3.2840  10.4385   6.7513   C.3       1 RES1   0.0000
    20 C9       3.7484   8.0682   6.6750   C.3       1 RES1   0.0000
    21 C10      5.5006   9.6546   7.0187   C.3       1 RES1   0.0000
    22 C11      6.6408   8.6962   6.7887   C.3       1 RES1   0.0000
    23 C12      7.2661   8.6657   5.4046   C.3       1 RES1   0.0000
    24 C13      6.0331   7.0887   4.1218   C.2       1 RES1   0.0000
    25 C14      4.7996   6.7618   3.4603   C.2       1 RES1   0.0000
    26 C15      4.3953   5.6534   2.8917   C.2       1 RES1   0.0000
    27 C16      2.7740   7.1355   2.8659   C.2       1 RES1   0.0000
    28 C17      1.4372   7.7155   2.6023   C.3       1 RES1   0.0000
    29 H1       6.7037   8.3939   0.9975   H         1 RES1   0.0000
    30 H2       7.0839   9.3875  -0.1964   H         1 RES1   0.0000
    31 H3       7.4050   9.7952   1.3154   H         1 RES1   0.0000
    32 H4       3.0182  11.4543  -0.3127   H         1 RES1   0.0000
    33 H5       1.8702  11.5785   2.2612   H         1 RES1   0.0000
    34 H6       2.1248  12.1937   5.0211   H         1 RES1   0.0000
    35 H7       0.9790  11.2528   4.4164   H         1 RES1   0.0000
    36 H8       1.2328  10.7384   6.5975   H         1 RES1   0.0000
    37 H9       1.7471   9.5094   5.7111   H         1 RES1   0.0000
    38 H10      3.1469  10.2815   7.7087   H         1 RES1   0.0000
    39 H11      3.7340  11.3009   6.6259   H         1 RES1   0.0000
    40 H12      2.8786   7.9100   6.2512   H         1 RES1   0.0000
    41 H13      4.3873   7.3898   6.3727   H         1 RES1   0.0000
    42 H14      3.6512   8.0143   7.6493   H         1 RES1   0.0000
    43 H15      5.7978  10.5533   6.7655   H         1 RES1   0.0000
    44 H16      5.2846   9.6406   7.9749   H         1 RES1   0.0000
    45 H17      7.3435   8.9364   7.4270   H         1 RES1   0.0000
    46 H18      6.3053   7.7975   6.9929   H         1 RES1   0.0000
    47 H19      7.9620   7.9791   5.3338   H         1 RES1   0.0000
    48 H20      7.6404   9.5328   5.1452   H         1 RES1   0.0000
    49 H21      6.6823   6.4442   4.2924   H         1 RES1   0.0000
    50 H22      4.8888   4.8765   2.7574   H         1 RES1   0.0000
    51 H23      1.5356   8.4970   2.0209   H         1 RES1   0.0000
    52 H24      0.8659   7.0512   2.1630   H         1 RES1   0.0000
    53 H25      1.0266   7.9897   3.4499   H         1 RES1   0.0000
    54 H26      5.2701  10.5322  -1.0699   H         1 RES1   0.0000
    55 H27      2.4684   5.2737   2.1191   H         1 RES1   0.0000
    56 C18      0.2643   7.3054  10.2891   C.ar      2 RES2   0.0000
    57 C19     -0.4220   6.3400  11.0656   C.ar      2 RES2   0.0000
    58 C20      0.0062   5.0312  11.1979   C.ar      2 RES2   0.0000
    59 C21      1.1642   4.6176  10.5733   C.ar      2 RES2   0.0000
    60 C22      1.9084   5.5174   9.8787   C.ar      2 RES2   0.0000
    61 C23      1.4552   6.8450   9.7446   C.ar      2 RES2   0.0000
    62 C24     -1.5718   9.1321  10.9261   C.ar      2 RES2   0.0000
    63 C25     -1.5244   9.9077  12.0926   C.ar      2 RES2   0.0000
    64 C26     -2.6362  10.0940  12.9159   C.ar      2 RES2   0.0000
    65 C27     -3.8251   9.4859  12.6110   C.ar      2 RES2   0.0000
    66 C28     -3.9257   8.7138  11.4791   C.ar      2 RES2   0.0000
    67 C29     -2.8287   8.5685  10.6392   C.ar      2 RES2   0.0000
    68 C30      0.9120   9.8972  10.2955   C.ar      2 RES2   0.0000
    69 C31      1.8244   9.6804  11.3499   C.ar      2 RES2   0.0000
    70 C32      2.8083  10.5604  11.6626   C.ar      2 RES2   0.0000
    71 C33      2.9696  11.7238  10.9519   C.ar      2 RES2   0.0000
    72 C34      2.0698  11.9957   9.9803   C.ar      2 RES2   0.0000
    73 C35      1.0726  11.0958   9.6495   C.ar      2 RES2   0.0000
    74 C36     -0.7509   8.9013   8.3935   C.ar      2 RES2   0.0000
    75 C37     -1.5235   9.9827   7.9336   C.ar      2 RES2   0.0000
    76 C38     -1.9299  10.0870   6.6182   C.ar      2 RES2   0.0000
    77 C39     -1.6185   9.1379   5.7163   C.ar      2 RES2   0.0000
    78 C40     -0.9016   8.0225   6.1117   C.ar      2 RES2   0.0000
    79 C41     -0.4740   7.9194   7.4426   C.ar      2 RES2   0.0000
    80 B1      -0.2890   8.8099   9.9854   B         2 RES2  -1.0000
    81 H28     -1.1962   6.6001  11.5075   H         2 RES2   0.0000
    82 H29     -0.4906   4.4313  11.7065   H         2 RES2   0.0000
    83 H30      1.4363   3.7306  10.6289   H         2 RES2   0.0000
    84 H31      2.7153   5.2608   9.4918   H         2 RES2   0.0000
    85 H32      1.9809   7.4437   9.2644   H         2 RES2   0.0000
    86 H33     -0.7237  10.3202  12.3216   H         2 RES2   0.0000
    87 H34     -2.5663  10.6271  13.6757   H         2 RES2   0.0000
    88 H35     -4.5631   9.5961  13.1666   H         2 RES2   0.0000
    89 H36     -4.7267   8.2920  11.2672   H         2 RES2   0.0000
    90 H37     -2.9244   8.0740   9.8588   H         2 RES2   0.0000
    91 H38      1.7467   8.9024  11.8538   H         2 RES2   0.0000
    92 H39      3.3803  10.3741  12.3732   H         2 RES2   0.0000
    93 H40      3.6746  12.3038  11.1302   H         2 RES2   0.0000
    94 H41      2.1205  12.8053   9.5254   H         2 RES2   0.0000
    95 H42      0.4901  11.3126   8.9569   H         2 RES2   0.0000
    96 H43     -1.7754  10.6447   8.5357   H         2 RES2   0.0000
    97 H44     -2.4201  10.8310   6.3520   H         2 RES2   0.0000
    98 H45     -1.8905   9.2246   4.8325   H         2 RES2   0.0000
    99 H46     -0.7014   7.3511   5.4992   H         2 RES2   0.0000
   100 H47      0.0109   7.1672   7.6984   H         2 RES2   0.0000
@<TRIPOS>BOND
     1     1     3    1
     2     2    13    1
     3     3    13    2
     4     4     1    1
     5     5     1    1
     6     6     1    1
     7     7     1    1
     8     8    26    1
     9     9     1    1
    10    10     9    2
    11    11    10    2
    12    12    13    1
    13    14     2    1
    14    15     3    1
    15    16     4    2
    16    17     4    1
    17    18    17    1
    18    19     5    1
    19    20     5    1
    20    21     5    1
    21    22    21    1
    22    23     6    1
    23    24     6    2
    24    25     7    1
    25    26    25    2
    26    27     7    2
    27    28    27    1
    28    29    12    1
    29    30    12    1
    30    31    12    1
    31    32    14    1
    32    33    16    1
    33    34    17    1
    34    35    17    1
    35    36    18    1
    36    37    18    1
    37    38    19    1
    38    39    19    1
    39    40    20    1
    40    41    20    1
    41    42    20    1
    42    43    21    1
    43    44    21    1
    44    45    22    1
    45    46    22    1
    46    47    23    1
    47    48    23    1
    48    49    24    1
    49    50    26    1
    50    51    28    1
    51    52    28    1
    52    53    28    1
    53    54     2    1
    54    55     8    1
    55     8    27    1
    56    14    15    2
    57    15    16    1
    58    18    19    1
    59    22    23    1
    60    24    25    1
    61    56    57   ar
    62    57    58   ar
    63    58    59   ar
    64    59    60   ar
    65    60    61   ar
    66    61    56   ar
    67    62    63   ar
    68    63    64   ar
    69    64    65   ar
    70    65    66   ar
    71    66    67   ar
    72    67    62   ar
    73    68    69   ar
    74    69    70   ar
    75    70    71   ar
    76    71    72   ar
    77    72    73   ar
    78    73    68   ar
    79    74    75   ar
    80    75    76   ar
    81    76    77   ar
    82    77    78   ar
    83    78    79   ar
    84    79    74   ar
    85    80    56    1
    86    81    57    1
    87    82    58    1
    88    83    59    1
    89    84    60    1
    90    85    61    1
    91    86    63    1
    92    87    64    1
    93    88    65    1
    94    89    66    1
    95    90    67    1
    96    91    69    1
    97    92    70    1
    98    93    71    1
    99    94    72    1
   100    95    73    1
   101    96    75    1
   102    97    76    1
   103    98    77    1
   104    99    78    1
   105   100    79    1
   106    62    80    1
   107    68    80    1
   108    74    80    1
@<TRIPOS>SUBSTRUCTURE
     1 RES1        1 GROUP             0 ****  ****    0  
     2 RES2       56 GROUP             0 ****  ****    0  
@<TRIPOS>CRYSIN
   12.5378   11.7168   25.9454   90.0000   95.1122   90.0000    14     1
