@<TRIPOS>MOLECULE
PEWWUM
    93   102     2     0     0
SMALL
USER_CHARGES
****
Generated from the CSD

@<TRIPOS>ATOM
     1 Fe1      0.6753   4.9424   5.9565   Fe        1 RES1   1.0000
     2 O1      -0.9759   4.4965   5.2380   O.3       1 RES1   0.0000
     3 O2      -0.1781   1.9750   2.8956   O.3       1 RES1   0.0000
     4 N1       1.3053   3.0587   6.0054   N.ar      1 RES1   0.0000
     5 N2       1.4023   4.9976   4.1421   N.ar      1 RES1   0.0000
     6 N3      -1.0702   3.2582   4.5543   N.3       1 RES1   0.0000
     7 C1       2.0513   2.5767   7.0144   C.ar      1 RES1   0.0000
     8 H1       2.2169   3.1318   7.7672   H         1 RES1   0.0000
     9 C2       2.5881   1.2981   6.9962   C.ar      1 RES1   0.0000
    10 H2       3.1181   0.9878   7.7208   H         1 RES1   0.0000
    11 C3       2.3416   0.4830   5.9102   C.ar      1 RES1   0.0000
    12 H3       2.7032  -0.3951   5.8731   H         1 RES1   0.0000
    13 C4       1.5549   0.9674   4.8705   C.ar      1 RES1   0.0000
    14 H4       1.3620   0.4231   4.1159   H         1 RES1   0.0000
    15 C5       1.0604   2.2530   4.9534   C.ar      1 RES1   0.0000
    16 C6       0.1977   2.8950   3.8853   C.3       1 RES1   0.0000
    17 C7       1.0074   4.0447   3.2750   C.ar      1 RES1   0.0000
    18 C8       1.4032   4.0652   1.9439   C.ar      1 RES1   0.0000
    19 H5       1.0969   3.4010   1.3378   H         1 RES1   0.0000
    20 C9       2.2520   5.0704   1.5164   C.ar      1 RES1   0.0000
    21 H6       2.5386   5.1008   0.6111   H         1 RES1   0.0000
    22 C10      2.6813   6.0298   2.4162   C.ar      1 RES1   0.0000
    23 H7       3.2745   6.7196   2.1408   H         1 RES1   0.0000
    24 C11      2.2343   5.9703   3.7202   C.ar      1 RES1   0.0000
    25 H8       2.5213   6.6334   4.3375   H         1 RES1   0.0000
    26 C12     -1.6076   2.0680   2.6881   C.3       1 RES1   0.0000
    27 H9      -2.0537   1.2419   3.0021   H         1 RES1   0.0000
    28 H10     -1.8065   2.1865   1.7262   H         1 RES1   0.0000
    29 C13     -2.1051   3.2723   3.4830   C.3       1 RES1   0.0000
    30 C14     -3.4639   3.0294   4.1287   C.3       1 RES1   0.0000
    31 H11     -3.4417   2.1866   4.6294   H         1 RES1   0.0000
    32 H12     -4.1520   2.9765   3.4321   H         1 RES1   0.0000
    33 H13     -3.6728   3.7672   4.7390   H         1 RES1   0.0000
    34 C15     -2.1536   4.5551   2.6480   C.3       1 RES1   0.0000
    35 H14     -2.4272   5.3055   3.2165   H         1 RES1   0.0000
    36 H15     -2.7995   4.4461   1.9192   H         1 RES1   0.0000
    37 H16     -1.2664   4.7357   2.2742   H         1 RES1   0.0000
    38 O1A      2.3265   5.3884   6.6749   O.3       1 RES1   0.0000
    39 O2A      1.5286   7.9099   9.0174   O.3       1 RES1   0.0000
    40 N1A      0.0453   6.8262   5.9075   N.ar      1 RES1   0.0000
    41 N2A     -0.0517   4.8873   7.7708   N.ar      1 RES1   0.0000
    42 N3A      2.4207   6.6267   7.3586   N.3       1 RES1   0.0000
    43 C1A     -0.7007   7.3081   4.8985   C.ar      1 RES1   0.0000
    44 H1A     -0.8663   6.7531   4.1457   H         1 RES1   0.0000
    45 C2A     -1.2375   8.5868   4.9167   C.ar      1 RES1   0.0000
    46 H2A     -1.7675   8.8970   4.1922   H         1 RES1   0.0000
    47 C3A     -0.9910   9.4019   6.0027   C.ar      1 RES1   0.0000
    48 H3A     -1.3526  10.2799   6.0398   H         1 RES1   0.0000
    49 C4A     -0.2043   8.9175   7.0424   C.ar      1 RES1   0.0000
    50 H4A     -0.0114   9.4617   7.7970   H         1 RES1   0.0000
    51 C5A      0.2902   7.6319   6.9595   C.ar      1 RES1   0.0000
    52 C6A      1.1529   6.9899   8.0276   C.3       1 RES1   0.0000
    53 C7A      0.3431   5.8402   8.6379   C.ar      1 RES1   0.0000
    54 C8A     -0.0527   5.8197   9.9690   C.ar      1 RES1   0.0000
    55 H5A      0.2537   6.4839  10.5751   H         1 RES1   0.0000
    56 C9A     -0.9015   4.8145  10.3965   C.ar      1 RES1   0.0000
    57 H6A     -1.1880   4.7841  11.3018   H         1 RES1   0.0000
    58 C10A    -1.3307   3.8551   9.4967   C.ar      1 RES1   0.0000
    59 H7A     -1.9239   3.1653   9.7722   H         1 RES1   0.0000
    60 C11A    -0.8837   3.9146   8.1927   C.ar      1 RES1   0.0000
    61 H8A     -1.1708   3.2515   7.5754   H         1 RES1   0.0000
    62 C12A     2.9582   7.8169   9.2248   C.3       1 RES1   0.0000
    63 H9A      3.4043   8.6430   8.9109   H         1 RES1   0.0000
    64 H10A     3.1571   7.6984  10.1867   H         1 RES1   0.0000
    65 C13A     3.4556   6.6126   8.4299   C.3       1 RES1   0.0000
    66 C14A     4.8145   6.8555   7.7843   C.3       1 RES1   0.0000
    67 H11A     4.7923   7.6983   7.2836   H         1 RES1   0.0000
    68 H12A     5.5026   6.9084   8.4808   H         1 RES1   0.0000
    69 H13A     5.0233   6.1177   7.1740   H         1 RES1   0.0000
    70 C15A     3.5042   5.3297   9.2649   C.3       1 RES1   0.0000
    71 H14A     3.7778   4.5794   8.6964   H         1 RES1   0.0000
    72 H15A     4.1501   5.4388   9.9937   H         1 RES1   0.0000
    73 H16A     2.6170   5.1491   9.6387   H         1 RES1   0.0000
    74 F1       0.8846  -1.2122   2.2507   F         2 RES2   0.0000
    75 F2       1.4726   1.8492  -1.3298   F         2 RES2   0.0000
    76 N4       3.8418  -0.5862   2.8838   N.1       2 RES2   0.0000
    77 N5       4.1057   2.5904   0.1627   N.1       2 RES2   0.0000
    78 C16      3.2647  -0.0526   2.0507   C.1       2 RES2   0.0000
    79 C17      3.4139   1.7349   0.4863   C.1       2 RES2   0.0000
    80 C18      2.6235   0.6634   0.9941   C.2       2 RES2   0.0000
    81 C19      1.3319   0.3380   0.5039   C.2       2 RES2   0.0000
    82 C20      0.4807  -0.6146   1.1156   C.2       2 RES2   0.0000
    83 C21      0.7568   0.9399  -0.6421   C.2       2 RES2   0.0000
    84 F1A     -0.8846   1.2122  -2.2507   F         2 RES2   0.0000
    85 F2A     -1.4726  -1.8492   1.3298   F         2 RES2   0.0000
    86 N4A     -3.8418   0.5862  -2.8838   N.1       2 RES2   0.0000
    87 N5A     -4.1057  -2.5904  -0.1627   N.1       2 RES2   0.0000
    88 C16A    -3.2647   0.0526  -2.0507   C.1       2 RES2   0.0000
    89 C17A    -3.4139  -1.7349  -0.4863   C.1       2 RES2   0.0000
    90 C18A    -2.6235  -0.6634  -0.9941   C.2       2 RES2  -1.0000
    91 C19A    -1.3319  -0.3380  -0.5039   C.2       2 RES2   0.0000
    92 C20A    -0.4807   0.6146  -1.1156   C.2       2 RES2   0.0000
    93 C21A    -0.7568  -0.9399   0.6421   C.2       2 RES2   0.0000
@<TRIPOS>BOND
     1     1     2    1
     2     2     6    1
     3     3    16    1
     4     4     1    1
     5     5     1    1
     6     6    16    1
     7     7     4   ar
     8     8     7    1
     9     9     7   ar
    10    10     9    1
    11    11     9   ar
    12    12    11    1
    13    13    11   ar
    14    14    13    1
    15    15     4   ar
    16    16    15    1
    17    17     5   ar
    18    18    17   ar
    19    19    18    1
    20    20    18   ar
    21    21    20    1
    22    22    20   ar
    23    23    22    1
    24    24     5   ar
    25    25    24    1
    26    26     3    1
    27    27    26    1
    28    28    26    1
    29    29     6    1
    30    30    29    1
    31    31    30    1
    32    32    30    1
    33    33    30    1
    34    34    29    1
    35    35    34    1
    36    36    34    1
    37    37    34    1
    38    38     1    1
    39    39    52    1
    40    40     1    1
    41    41     1    1
    42    42    38    1
    43    43    40   ar
    44    44    43    1
    45    45    43   ar
    46    46    45    1
    47    47    45   ar
    48    48    47    1
    49    49    47   ar
    50    50    49    1
    51    51    40   ar
    52    52    42    1
    53    53    41   ar
    54    54    53   ar
    55    55    54    1
    56    56    54   ar
    57    57    56    1
    58    58    56   ar
    59    59    58    1
    60    60    41   ar
    61    61    60    1
    62    62    39    1
    63    63    62    1
    64    64    62    1
    65    65    42    1
    66    66    65    1
    67    67    66    1
    68    68    66    1
    69    69    66    1
    70    70    65    1
    71    71    70    1
    72    72    70    1
    73    73    70    1
    74    13    15   ar
    75    16    17    1
    76    22    24   ar
    77    26    29    1
    78    49    51   ar
    79    51    52    1
    80    52    53    1
    81    58    60   ar
    82    62    65    1
    83    74    82    1
    84    75    83    1
    85    76    78    3
    86    77    79    3
    87    78    80    1
    88    79    80    1
    89    80    81    2
    90    81    82    1
    91    82    93    2
    92    83    81    1
    93    84    92    1
    94    85    93    1
    95    86    88    3
    96    87    89    3
    97    88    90    1
    98    89    90    1
    99    90    91    1
   100    91    92    1
   101    92    83    2
   102    93    91    1
@<TRIPOS>SUBSTRUCTURE
     1 RES1        1 GROUP             0 ****  ****    0  
     2 RES2       74 GROUP             0 ****  ****    0  
@<TRIPOS>CRYSIN
    8.0787    9.8244   11.9592   89.5340   84.9670   88.2420     2     1
