@<TRIPOS>MOLECULE
PHTHFE
    53    63     2     0     0
SMALL
NO_CHARGES
****
Generated from the CSD

@<TRIPOS>ATOM
     1 Fe1      0.5095   1.6934   4.6989   Fe        1 RES1   0.0000
     2 N1       2.2681   2.4741   4.7939   N.2       1 RES1   0.0000
     3 N2       1.0657   0.6923   3.1682   N.2       1 RES1   0.0000
     4 N3      -1.1884   0.8623   4.6436   N.2       1 RES1   0.0000
     5 N4       0.0197   2.6025   6.2099   N.2       1 RES1   0.0000
     6 O1      -0.1896   3.9402   3.0832   O.2       1 RES1   0.0000
     7 O2       1.1930   0.1058   5.8341   O.2       1 RES1   0.0000
     8 N5       3.2129   1.6413   2.9171   N.2       1 RES1   0.0000
     9 N6      -0.8332  -0.6472   2.7411   N.2       1 RES1   0.0000
    10 N7      -2.3055   1.8512   6.4749   N.2       1 RES1   0.0000
    11 N8       1.9638   3.8187   6.8210   N.2       1 RES1   0.0000
    12 N9       1.0130  -1.3828   7.4578   N.am      1 RES1   0.0000
    13 C1       3.2193   2.3995   3.9791   C.2       1 RES1   0.0000
    14 C2       2.2096   0.8588   2.5552   C.2       1 RES1   0.0000
    15 C3       2.2809  -0.0226   1.3804   C.ar      1 RES1   0.0000
    16 C4       3.1411  -0.1995   0.4212   C.ar      1 RES1   0.0000
    17 C5       2.9327  -1.1382  -0.6368   C.ar      1 RES1   0.0000
    18 C6       1.7117  -1.8998  -0.5102   C.ar      1 RES1   0.0000
    19 C7       0.8642  -1.6517   0.3342   C.ar      1 RES1   0.0000
    20 C8       1.0908  -0.7530   1.4061   C.ar      1 RES1   0.0000
    21 C9       0.3893  -0.2290   2.4681   C.2       1 RES1   0.0000
    22 C10     -1.5037  -0.1509   3.6290   C.2       1 RES1   0.0000
    23 C11     -2.9198  -0.5118   3.9178   C.2       1 RES1   0.0000
    24 C12     -3.7253  -1.4140   3.1959   C.2       1 RES1   0.0000
    25 C13     -4.9895  -1.5355   3.6745   C.2       1 RES1   0.0000
    26 C14     -5.4839  -0.7721   4.7108   C.2       1 RES1   0.0000
    27 C15     -4.6729   0.1128   5.3971   C.2       1 RES1   0.0000
    28 C16     -3.3464   0.2342   4.9244   C.2       1 RES1   0.0000
    29 C17     -2.2142   1.0098   5.3595   C.2       1 RES1   0.0000
    30 C18     -1.1913   2.5852   6.8230   C.2       1 RES1   0.0000
    31 C19     -1.2870   3.4388   8.0056   C.ar      1 RES1   0.0000
    32 C20     -2.3028   3.7684   8.8323   C.ar      1 RES1   0.0000
    33 C21     -1.9738   4.6238   9.8745   C.ar      1 RES1   0.0000
    34 C22     -0.7249   5.2206  10.0248   C.ar      1 RES1   0.0000
    35 C23      0.2412   4.8840   9.2120   C.ar      1 RES1   0.0000
    36 C24     -0.0191   3.9749   8.0847   C.ar      1 RES1   0.0000
    37 C25      0.7301   3.4769   7.0563   C.2       1 RES1   0.0000
    38 C26      2.6249   3.3815   5.8677   C.2       1 RES1   0.0000
    39 C27      3.8912   3.8430   5.5513   C.ar      1 RES1   0.0000
    40 C28      4.7798   4.7713   6.2020   C.ar      1 RES1   0.0000
    41 C29      6.0025   4.9864   5.6403   C.ar      1 RES1   0.0000
    42 C30      6.3262   4.4104   4.4913   C.ar      1 RES1   0.0000
    43 C31      5.4670   3.4700   3.8070   C.ar      1 RES1   0.0000
    44 C32      4.2935   3.2445   4.3944   C.ar      1 RES1   0.0000
    45 C33      0.0352   3.0068   3.7022   C.1       1 RES1   0.0000
    46 C34      0.6539  -0.2724   6.8071   C.2       1 RES1   0.0000
    47 C35      0.3070  -1.7749   8.6938   C.3       1 RES1   0.0000
    48 C36      2.0519  -2.2711   6.9911   C.3       1 RES1   0.0000
    49 N10      8.4448   7.1170   0.2868   N.am      2 RES2   0.0000
    50 O3       7.5856   9.2163  -0.2057   O.2       2 RES2   0.0000
    51 C37      8.2323   8.6021   0.5973   C.2       2 RES2   0.0000
    52 C38      8.0831   6.9782  -0.9176   C.2       2 RES2   0.0000
    53 C39      8.9850   6.4160   1.4140   C.3       2 RES2   0.0000
@<TRIPOS>BOND
     1     1     2    1
     2     2    13    1
     3     3     1    1
     4     4     1    1
     5     5     1    1
     6     6    45    3
     7     7     1    1
     8     8    13    2
     9     9    21    2
    10    10    29    1
    11    11    37    1
    12    12    46   am
    13    13    44    1
    14    14     3    2
    15    15    14    1
    16    16    15   ar
    17    17    16   ar
    18    18    17   ar
    19    19    18   ar
    20    20    15   ar
    21    21     3    1
    22    22     4    1
    23    23    22    2
    24    24    23    1
    25    25    24    2
    26    26    25    1
    27    27    26    2
    28    28    23    1
    29    29     4    1
    30    30     5    1
    31    31    30    1
    32    32    31   ar
    33    33    32   ar
    34    34    33   ar
    35    35    34   ar
    36    36    31   ar
    37    37     5    2
    38    38     2    1
    39    39    38    1
    40    40    39   ar
    41    41    40   ar
    42    42    41   ar
    43    43    42   ar
    44    44    39   ar
    45    45     1    1
    46    46     7    2
    47    47    12    1
    48    48    12    1
    49     8    14    1
    50     9    22    1
    51    10    30    2
    52    11    38    2
    53    19    20   ar
    54    20    21    1
    55    27    28    1
    56    28    29    2
    57    35    36   ar
    58    36    37    1
    59    43    44   ar
    60    49    51   am
    61    50    51    2
    62    52    49    1
    63    53    49    1
@<TRIPOS>SUBSTRUCTURE
     1 RES1        1 GROUP             0 ****  ****    0  
     2 RES2       49 GROUP             0 ****  ****    0  
@<TRIPOS>CRYSIN
    9.8600   17.3500   19.7900   90.0000   87.9000   90.0000   231     1
