@<TRIPOS>MOLECULE
PIHJEZ01
   115   124     3     0     0
SMALL
USER_CHARGES
****
Generated from the CSD

@<TRIPOS>ATOM
     1 Fe1      0.3719   5.5200   6.9135   Fe        1 RES1   2.0000
     2 O1       0.9185   7.3903   6.9817   O.2       1 RES1   0.0000
     3 O2      -0.9283   5.9106   8.3883   O.2       1 RES1   0.0000
     4 N1      -1.1518   5.8952   5.8845   N.2       1 RES1   0.0000
     5 N2       1.1018   5.2851   5.0904   N.ar      1 RES1   0.0000
     6 N3       1.8538   5.3545   8.0316   N.2       1 RES1   0.0000
     7 O3       4.2100  10.7819  10.7160   O.3       1 RES1   0.0000
     8 N4       0.2792   3.5844   7.2362   N.ar      1 RES1   0.0000
     9 N5      -2.2361   6.2991   6.6019   N.am      1 RES1   0.0000
    10 H1      -2.9852   6.7591   6.0451   H         1 RES1   0.0000
    11 N6       4.1670   4.8401   9.6994   N.ar      1 RES1   1.0000
    12 H2       4.1565   5.6090   9.0119   H         1 RES1   0.0000
    13 O4      -6.5554   8.1059   8.5699   O.3       1 RES1   0.0000
    14 N7       2.5044   6.5025   8.3933   N.am      1 RES1  -1.0000
    15 C1      -1.1504   5.8562   4.5739   C.2       1 RES1   0.0000
    16 C2       0.2046   5.5611   4.0858   C.ar      1 RES1   0.0000
    17 N8      -3.2730   6.9264   4.2913   N.ar      1 RES1   0.0000
    18 C3      -2.0334   6.3028   7.9428   C.2       1 RES1   0.0000
    19 C4       3.1673   9.1372   9.2409   C.ar      1 RES1   0.0000
    20 H3       3.6249   8.2818   9.7252   H         1 RES1   0.0000
    21 C5       2.3709   5.0115   4.7675   C.ar      1 RES1   0.0000
    22 H4       3.0380   4.7774   5.5906   H         1 RES1   0.0000
    23 C6      -0.5652   2.7180   6.6640   C.ar      1 RES1   0.0000
    24 H5      -1.3463   3.1372   6.0451   H         1 RES1   0.0000
    25 C7       1.4711   1.7426   8.2294   C.ar      1 RES1   0.0000
    26 H6       2.3237   1.3701   8.8000   H         1 RES1   0.0000
    27 C8       1.8779   7.5386   7.8059   C.2       1 RES1   0.0000
    28 C9       1.2792   3.1161   8.0456   C.ar      1 RES1   0.0000
    29 C10      2.1232   4.1859   8.5921   C.2       1 RES1   0.0000
    30 C11      3.0992   4.0056   9.6639   C.ar      1 RES1   0.0000
    31 C12     -2.5583   5.4613   2.5285   C.ar      1 RES1   0.0000
    32 H7      -1.8374   4.7308   2.1369   H         1 RES1   0.0000
    33 C13      2.8263   5.0446   3.4483   C.ar      1 RES1   0.0000
    34 H8       3.8664   4.8256   3.2417   H         1 RES1   0.0000
    35 C14      2.2724   8.9190   8.1865   C.ar      1 RES1   0.0000
    36 C15     -2.3454   6.1013   3.7477   C.ar      1 RES1   0.0000
    37 C16      0.6117   5.6425   2.7560   C.ar      1 RES1   0.0000
    38 H9      -0.0855   5.9221   1.9865   H         1 RES1   0.0000
    39 C17      1.9482   5.3873   2.4334   C.ar      1 RES1   0.0000
    40 H10      2.2655   5.4427   1.3944   H         1 RES1   0.0000
    41 C18      1.8989  11.2930   7.9809   C.ar      1 RES1   0.0000
    42 H11      1.4055  12.1249   7.5010   H         1 RES1   0.0000
    43 C19     -3.1334   6.7799   8.7919   C.ar      1 RES1   0.0000
    44 C20      3.3990  10.4474   9.6725   C.ar      1 RES1   0.0000
    45 C21     -0.4626   1.3416   6.8565   C.ar      1 RES1   0.0000
    46 H12     -1.1786   0.6815   6.3881   H         1 RES1   0.0000
    47 C22      5.1211   4.7960  10.6416   C.ar      1 RES1   0.0000
    48 H13      5.9254   5.5232  10.5616   H         1 RES1   0.0000
    49 C23      2.7683  11.5234   9.0439   C.ar      1 RES1   0.0000
    50 H14      2.9680  12.5274   9.4066   H         1 RES1   0.0000
    51 C24      1.6392   9.9931   7.5456   C.ar      1 RES1   0.0000
    52 H15      0.9282   9.8051   6.7488   H         1 RES1   0.0000
    53 C25     -4.3515   7.1746   8.2124   C.ar      1 RES1   0.0000
    54 H16     -4.5155   7.0972   7.1532   H         1 RES1   0.0000
    55 C26      2.9789   3.0683  10.6924   C.ar      1 RES1   0.0000
    56 H17      2.1144   2.4218  10.7346   H         1 RES1   0.0000
    57 C27      0.5853   0.8492   7.6315   C.ar      1 RES1   0.0000
    58 H18      0.7313  -0.2164   7.7760   H         1 RES1   0.0000
    59 C28      4.9329   9.7373  11.3523   C.3       1 RES1   0.0000
    60 H19      5.5592   9.2095  10.6457   H         1 RES1   0.0000
    61 H20      4.2777   9.0253  11.8217   H         1 RES1   0.0000
    62 H21      5.5528  10.2058  12.1080   H         1 RES1   0.0000
    63 C29     -2.9298   6.8623  10.1690   C.ar      1 RES1   0.0000
    64 H22     -1.9781   6.5660  10.6036   H         1 RES1   0.0000
    65 C30      5.0487   3.8670  11.6557   C.ar      1 RES1   0.0000
    66 H23      5.8294   3.8509  12.4186   H         1 RES1   0.0000
    67 C31     -5.3638   7.6690   9.0321   C.ar      1 RES1   0.0000
    68 C32     -4.6677   6.5992   2.3732   C.ar      1 RES1   0.0000
    69 H24     -5.6029   6.8307   1.8781   H         1 RES1   0.0000
    70 C33     -3.7361   5.7226   1.8323   C.ar      1 RES1   0.0000
    71 H25     -3.9070   5.2460   0.8703   H         1 RES1   0.0000
    72 C34     -3.9619   7.3399  10.9796   C.ar      1 RES1   0.0000
    73 H26     -3.8202   7.3905  12.0498   H         1 RES1   0.0000
    74 C35      3.9483   3.0075  11.6916   C.ar      1 RES1   0.0000
    75 H27      3.8473   2.2823  12.5011   H         1 RES1   0.0000
    76 C36     -4.3976   7.1676   3.6190   C.ar      1 RES1   0.0000
    77 H28     -5.1150   7.8323   4.0894   H         1 RES1   0.0000
    78 C37     -5.1705   7.7464  10.4153   C.ar      1 RES1   0.0000
    79 H29     -5.9851   8.1185  11.0323   H         1 RES1   0.0000
    80 C38     -6.8325   7.9435   7.1807   C.3       1 RES1   0.0000
    81 H30     -6.1072   8.4798   6.5611   H         1 RES1   0.0000
    82 H31     -7.8220   8.3724   7.0189   H         1 RES1   0.0000
    83 H32     -6.8275   6.8807   6.8960   H         1 RES1   0.0000
    84 S1      -0.4452   8.0308  13.2468   S.o2      2 RES2   0.0000
    85 S2       1.1126   6.9004  15.1815   S.o2      2 RES2   0.0000
    86 F1       3.2694   7.8239  14.0421   F         2 RES2   0.0000
    87 F2       3.2121   5.6543  14.2109   F         2 RES2   0.0000
    88 F3       1.6721   8.9280  12.0142   F         2 RES2   0.0000
    89 F4       1.3553   5.4601  12.3308   F         2 RES2   0.0000
    90 F5       3.0182   6.6969  11.6727   F         2 RES2   0.0000
    91 F6       0.4994   7.4992  10.8556   F         2 RES2   0.0000
    92 O5      -1.2708   6.8804  13.0888   O.2       2 RES2   0.0000
    93 O6      -0.9655   9.3102  12.8979   O.2       2 RES2   0.0000
    94 O7       0.4214   5.6470  15.1217   O.2       2 RES2   0.0000
    95 O8       1.7633   7.2485  16.4022   O.2       2 RES2   0.0000
    96 N9       0.3393   8.1471  14.6212   N.2       2 RES2  -1.0000
    97 C39      0.9747   7.7772  12.0804   C.3       2 RES2   0.0000
    98 C40      1.9521   6.6516  12.5000   C.3       2 RES2   0.0000
    99 C41      2.4678   6.7457  13.9542   C.3       2 RES2   0.0000
   100 S3       7.8662   5.3300  14.9421   S.o2      3 RES3   0.0000
   101 S4       8.6072   6.1277  12.4105   S.o2      3 RES3   0.0000
   102 F7       7.3529   7.3731  16.4818   F         3 RES3   0.0000
   103 F8       5.8863   7.0101  14.9486   F         3 RES3   0.0000
   104 F9       9.1260   8.2483  14.7184   F         3 RES3   0.0000
   105 F10      6.5841   7.7357  12.3765   F         3 RES3   0.0000
   106 F11      7.2261   9.2526  14.4908   F         3 RES3   0.0000
   107 O9       9.9952   6.2209  12.6968   O.2       3 RES3   0.0000
   108 O10      8.1870   5.8659  11.0703   O.2       3 RES3   0.0000
   109 O11      9.1887   5.3669  15.4763   O.2       3 RES3   0.0000
   110 F12      8.4962   8.7207  12.1371   F         3 RES3   0.0000
   111 N10      7.7644   5.1708  13.3686   N.2       3 RES3  -1.0000
   112 O12      6.9178   4.4418  15.5520   O.2       3 RES3   0.0000
   113 C42      7.1940   7.0240  15.2006   C.3       3 RES3   0.0000
   114 C43      7.8708   8.0866  14.3156   C.3       3 RES3   0.0000
   115 C44      7.8765   7.7561  12.8076   C.3       3 RES3   0.0000
@<TRIPOS>BOND
     1     1     2    1
     2     2    27    2
     3     3     1    1
     4     4     1    1
     5     5     1    1
     6     6     1    1
     7     7    44    1
     8     8     1    1
     9     9     4    1
    10    10     9    1
    11    11    12    1
    12    13    67    1
    13    14     6    1
    14    15     4    2
    15    16     5   ar
    16    17    36   ar
    17    18     3    2
    18    19    20    1
    19    21     5   ar
    20    22    21    1
    21    23     8   ar
    22    24    23    1
    23    25    26    1
    24    27    14   am
    25    28     8   ar
    26    29     6    2
    27    30    11   ar
    28    31    32    1
    29    33    21   ar
    30    34    33    1
    31    35    19   ar
    32    36    15    1
    33    37    16   ar
    34    38    37    1
    35    39    33   ar
    36    40    39    1
    37    41    42    1
    38    43    18    1
    39    44    19   ar
    40    45    23   ar
    41    46    45    1
    42    47    11   ar
    43    48    47    1
    44    49    41   ar
    45    50    49    1
    46    51    35   ar
    47    52    51    1
    48    53    43   ar
    49    54    53    1
    50    55    30   ar
    51    56    55    1
    52    57    25   ar
    53    58    57    1
    54    59     7    1
    55    60    59    1
    56    61    59    1
    57    62    59    1
    58    63    43   ar
    59    64    63    1
    60    65    47   ar
    61    66    65    1
    62    67    53   ar
    63    68    69    1
    64    70    31   ar
    65    71    70    1
    66    72    63   ar
    67    73    72    1
    68    74    55   ar
    69    75    74    1
    70    76    17   ar
    71    77    76    1
    72    78    67   ar
    73    79    78    1
    74    80    13    1
    75    81    80    1
    76    82    80    1
    77    83    80    1
    78     9    18   am
    79    15    16    1
    80    25    28   ar
    81    27    35    1
    82    28    29    1
    83    29    30    1
    84    31    36   ar
    85    37    39   ar
    86    41    51   ar
    87    44    49   ar
    88    45    57   ar
    89    65    74   ar
    90    68    70   ar
    91    68    76   ar
    92    72    78   ar
    93    84    92    2
    94    85    94    2
    95    86    99    1
    96    87    99    1
    97    88    97    1
    98    89    98    1
    99    90    98    1
   100    91    97    1
   101    93    84    2
   102    95    85    2
   103    96    84    1
   104    97    84    1
   105    98    97    1
   106    99    85    1
   107    85    96    1
   108    98    99    1
   109   100   109    2
   110   101   107    2
   111   102   113    1
   112   103   113    1
   113   104   114    1
   114   105   115    1
   115   106   114    1
   116   108   101    2
   117   110   115    1
   118   111   100    1
   119   112   100    2
   120   113   100    1
   121   114   113    1
   122   115   101    1
   123   101   111    1
   124   114   115    1
@<TRIPOS>SUBSTRUCTURE
     1 RES1        1 GROUP             0 ****  ****    0  
     2 RES2       84 GROUP             0 ****  ****    0  
     3 RES3      100 GROUP             0 ****  ****    0  
@<TRIPOS>CRYSIN
   17.0900   17.8860   18.1790   90.0000  117.1470   90.0000    14     1
