@<TRIPOS>MOLECULE
PIHJEZ
   115   124     3     0     0
SMALL
USER_CHARGES
****
Generated from the CSD

@<TRIPOS>ATOM
     1 Fe1      0.3310   5.5091   6.8980   Fe        1 RES1   2.0000
     2 O1       0.8891   7.3768   6.9733   O.2       1 RES1   0.0000
     3 O2      -0.9768   5.9033   8.3687   O.2       1 RES1   0.0000
     4 N1      -1.1786   5.8910   5.8661   N.2       1 RES1   0.0000
     5 N2       1.0642   5.2687   5.0744   N.ar      1 RES1   0.0000
     6 N3       1.8110   5.3377   8.0195   N.2       1 RES1   0.0000
     7 O3       4.1670  10.7618  10.6802   O.3       1 RES1   0.0000
     8 N4       0.2432   3.5735   7.2260   N.ar      1 RES1   0.0000
     9 N5      -2.2649   6.2946   6.5851   N.am      1 RES1   0.0000
    10 H1      -3.0260   6.5361   6.2152   H         1 RES1   0.0000
    11 N6       4.1101   4.8239   9.6885   N.ar      1 RES1   1.0000
    12 H2       4.1821   5.4313   9.0557   H         1 RES1   0.0000
    13 O4      -6.5892   8.0927   8.5407   O.3       1 RES1   0.0000
    14 N7       2.4621   6.4906   8.3863   N.am      1 RES1  -1.0000
    15 C1      -1.1777   5.8496   4.5632   C.2       1 RES1   0.0000
    16 C2       0.1801   5.5510   4.0704   C.ar      1 RES1   0.0000
    17 N8      -3.2939   6.9136   4.2784   N.ar      1 RES1   0.0000
    18 C3      -2.0606   6.2874   7.9127   C.2       1 RES1   0.0000
    19 C4       3.1235   9.1256   9.2180   C.ar      1 RES1   0.0000
    20 H3       3.5585   8.3943   9.6406   H         1 RES1   0.0000
    21 C5       2.3345   5.0002   4.7475   C.ar      1 RES1   0.0000
    22 H4       2.9458   4.7730   5.4381   H         1 RES1   0.0000
    23 C6      -0.5930   2.6980   6.6582   C.ar      1 RES1   0.0000
    24 H5      -1.2900   3.0252   6.1016   H         1 RES1   0.0000
    25 C7       1.4340   1.7413   8.2114   C.ar      1 RES1   0.0000
    26 H6       2.1604   1.4218   8.7337   H         1 RES1   0.0000
    27 C8       1.8307   7.5213   7.7893   C.2       1 RES1   0.0000
    28 C9       1.2397   3.0998   8.0340   C.ar      1 RES1   0.0000
    29 C10      2.0772   4.1769   8.5792   C.2       1 RES1   0.0000
    30 C11      3.0466   3.9920   9.6566   C.ar      1 RES1   0.0000
    31 C12     -2.5736   5.4564   2.5255   C.ar      1 RES1   0.0000
    32 H7      -1.9262   4.8546   2.1773   H         1 RES1   0.0000
    33 C13      2.7907   5.0409   3.4410   C.ar      1 RES1   0.0000
    34 H8       3.6977   4.8389   3.2432   H         1 RES1   0.0000
    35 C14      2.2322   8.9060   8.1712   C.ar      1 RES1   0.0000
    36 C15     -2.3735   6.0901   3.7277   C.ar      1 RES1   0.0000
    37 C16      0.5909   5.6316   2.7483   C.ar      1 RES1   0.0000
    38 H9      -0.0294   5.8588   2.0656   H         1 RES1   0.0000
    39 C17      1.9191   5.3762   2.4338   C.ar      1 RES1   0.0000
    40 H10      2.2207   5.4326   1.5347   H         1 RES1   0.0000
    41 C18      1.8791  11.2671   7.9621   C.ar      1 RES1   0.0000
    42 H11      1.4600  12.0013   7.5288   H         1 RES1   0.0000
    43 C19     -3.1801   6.7713   8.7685   C.ar      1 RES1   0.0000
    44 C20      3.3684  10.4245   9.6363   C.ar      1 RES1   0.0000
    45 C21     -0.4798   1.3342   6.8524   C.ar      1 RES1   0.0000
    46 H12     -1.1094   0.7393   6.4623   H         1 RES1   0.0000
    47 C22      5.0605   4.7754  10.6302   C.ar      1 RES1   0.0000
    48 H13      5.7946   5.3773  10.5958   H         1 RES1   0.0000
    49 C23      2.7360  11.4933   9.0055   C.ar      1 RES1   0.0000
    50 H14      2.8998  12.3814   9.3001   H         1 RES1   0.0000
    51 C24      1.6166   9.9697   7.5311   C.ar      1 RES1   0.0000
    52 H15      1.0222   9.8154   6.8062   H         1 RES1   0.0000
    53 C25     -4.3798   7.1588   8.1917   C.ar      1 RES1   0.0000
    54 H16     -4.5092   7.0869   7.2533   H         1 RES1   0.0000
    55 C26      2.9286   3.0676  10.6716   C.ar      1 RES1   0.0000
    56 H17      2.1881   2.4728  10.6914   H         1 RES1   0.0000
    57 C27      0.5497   0.8514   7.6126   C.ar      1 RES1   0.0000
    58 H18      0.6585  -0.0848   7.7308   H         1 RES1   0.0000
    59 C28      4.8850   9.7152  11.3198   C.3       1 RES1   0.0000
    60 H19      5.4255   9.2371  10.6568   H         1 RES1   0.0000
    61 H20      4.2530   9.0926  11.7363   H         1 RES1   0.0000
    62 H21      5.4714  10.0941  12.0075   H         1 RES1   0.0000
    63 C29     -2.9843   6.8556  10.1369   C.ar      1 RES1   0.0000
    64 H22     -2.1573   6.5928  10.5219   H         1 RES1   0.0000
    65 C30      4.9749   3.8669  11.6335   C.ar      1 RES1   0.0000
    66 H23      5.6474   3.8212  12.3025   H         1 RES1   0.0000
    67 C31     -5.3942   7.6566   9.0115   C.ar      1 RES1   0.0000
    68 C32     -4.6649   6.5842   2.3686   C.ar      1 RES1   0.0000
    69 H24     -5.4642   6.7922   1.8991   H         1 RES1   0.0000
    70 C33     -3.7546   5.7210   1.8297   C.ar      1 RES1   0.0000
    71 H25     -3.9222   5.3063   0.9913   H         1 RES1   0.0000
    72 C34     -4.0095   7.3268  10.9348   C.ar      1 RES1   0.0000
    73 H26     -3.8907   7.3668  11.8767   H         1 RES1   0.0000
    74 C35      3.8928   3.0093  11.6625   C.ar      1 RES1   0.0000
    75 H27      3.8110   2.3763  12.3663   H         1 RES1   0.0000
    76 C36     -4.4154   7.1486   3.5949   C.ar      1 RES1   0.0000
    77 H28     -5.0665   7.7289   3.9715   H         1 RES1   0.0000
    78 C37     -5.1996   7.7387  10.3830   C.ar      1 RES1   0.0000
    79 H29     -5.8889   8.0800  10.9400   H         1 RES1   0.0000
    80 C38     -6.8566   7.9262   7.1560   C.3       1 RES1   0.0000
    81 H30     -6.1899   8.4181   6.6328   H         1 RES1   0.0000
    82 H31     -7.7512   8.2718   6.9522   H         1 RES1   0.0000
    83 H32     -6.8146   6.9744   6.9269   H         1 RES1   0.0000
    84 S1      -0.4916   8.0205  13.2089   S.o2      2 RES2   0.0000
    85 S2       1.0486   6.8804  15.1435   S.o2      2 RES2   0.0000
    86 F1       3.2040   7.8023  14.0073   F         2 RES2   0.0000
    87 F2       3.1361   5.6362  14.1778   F         2 RES2   0.0000
    88 F3       1.6189   8.9092  11.9815   F         2 RES2   0.0000
    89 F4       1.2876   5.4507  12.2952   F         2 RES2   0.0000
    90 F5       2.9576   6.6856  11.6512   F         2 RES2   0.0000
    91 F6       0.4484   7.4798  10.8253   F         2 RES2   0.0000
    92 O5      -1.3299   6.8768  13.0480   O.2       2 RES2   0.0000
    93 O6      -1.0151   9.2979  12.8538   O.2       2 RES2   0.0000
    94 O7       0.3445   5.6339  15.0807   O.2       2 RES2   0.0000
    95 O8       1.6891   7.2374  16.3591   O.2       2 RES2   0.0000
    96 N9       0.2762   8.1371  14.5836   N.2       2 RES2  -1.0000
    97 C39      0.9126   7.7573  12.0478   C.3       2 RES2   0.0000
    98 C40      1.8913   6.6376  12.4686   C.3       2 RES2   0.0000
    99 C41      2.3891   6.7265  13.9166   C.3       2 RES2   0.0000
   100 S3       7.7894   5.3225  14.8928   S.o2      3 RES3   0.0000
   101 S4       8.5412   6.1156  12.3820   S.o2      3 RES3   0.0000
   102 F7       7.2558   7.3609  16.4334   F         3 RES3   0.0000
   103 F8       5.8057   7.0006  14.8936   F         3 RES3   0.0000
   104 F9       9.0534   8.2330  14.6906   F         3 RES3   0.0000
   105 F10      6.5230   7.7214  12.3328   F         3 RES3   0.0000
   106 F11      7.1534   9.2372  14.4442   F         3 RES3   0.0000
   107 O9       9.9224   6.2122  12.6716   O.2       3 RES3   0.0000
   108 O10      8.1276   5.8578  11.0511   O.2       3 RES3   0.0000
   109 O11      9.0985   5.3591  15.4383   O.2       3 RES3   0.0000
   110 F12      8.4348   8.6994  12.1091   F         3 RES3   0.0000
   111 N10      7.7047   5.1718  13.3291   N.2       3 RES3  -1.0000
   112 O12      6.8433   4.4456  15.5019   O.2       3 RES3   0.0000
   113 C42      7.1223   7.0168  15.1503   C.3       3 RES3   0.0000
   114 C43      7.7919   8.0743  14.2651   C.3       3 RES3   0.0000
   115 C44      7.8264   7.7464  12.7774   C.3       3 RES3   0.0000
@<TRIPOS>BOND
     1     1     2    1
     2     2    27    2
     3     3     1    1
     4     4     1    1
     5     5     1    1
     6     6     1    1
     7     7    44    1
     8     8     1    1
     9     9     4    1
    10    10     9    1
    11    11    12    1
    12    13    67    1
    13    14     6    1
    14    15     4    2
    15    16     5   ar
    16    17    36   ar
    17    18     3    2
    18    19    20    1
    19    21     5   ar
    20    22    21    1
    21    23     8   ar
    22    24    23    1
    23    25    26    1
    24    27    14   am
    25    28     8   ar
    26    29     6    2
    27    30    11   ar
    28    31    32    1
    29    33    21   ar
    30    34    33    1
    31    35    19   ar
    32    36    15    1
    33    37    16   ar
    34    38    37    1
    35    39    33   ar
    36    40    39    1
    37    41    42    1
    38    43    18    1
    39    44    19   ar
    40    45    23   ar
    41    46    45    1
    42    47    11   ar
    43    48    47    1
    44    49    41   ar
    45    50    49    1
    46    51    35   ar
    47    52    51    1
    48    53    43   ar
    49    54    53    1
    50    55    30   ar
    51    56    55    1
    52    57    25   ar
    53    58    57    1
    54    59     7    1
    55    60    59    1
    56    61    59    1
    57    62    59    1
    58    63    43   ar
    59    64    63    1
    60    65    47   ar
    61    66    65    1
    62    67    53   ar
    63    68    69    1
    64    70    31   ar
    65    71    70    1
    66    72    63   ar
    67    73    72    1
    68    74    55   ar
    69    75    74    1
    70    76    17   ar
    71    77    76    1
    72    78    67   ar
    73    79    78    1
    74    80    13    1
    75    81    80    1
    76    82    80    1
    77    83    80    1
    78     9    18   am
    79    15    16    1
    80    25    28   ar
    81    27    35    1
    82    28    29    1
    83    29    30    1
    84    31    36   ar
    85    37    39   ar
    86    41    51   ar
    87    44    49   ar
    88    45    57   ar
    89    65    74   ar
    90    68    70   ar
    91    68    76   ar
    92    72    78   ar
    93    84    92    2
    94    85    94    2
    95    86    99    1
    96    87    99    1
    97    88    97    1
    98    89    98    1
    99    90    98    1
   100    91    97    1
   101    93    84    2
   102    95    85    2
   103    96    84    1
   104    97    84    1
   105    98    97    1
   106    99    85    1
   107    85    96    1
   108    98    99    1
   109   100   109    2
   110   101   107    2
   111   102   113    1
   112   103   113    1
   113   104   114    1
   114   105   115    1
   115   106   114    1
   116   108   101    2
   117   110   115    1
   118   111   100    1
   119   112   100    2
   120   113   100    1
   121   114   113    1
   122   115   101    1
   123   101   111    1
   124   114   115    1
@<TRIPOS>SUBSTRUCTURE
     1 RES1        1 GROUP             0 ****  ****    0  
     2 RES2       84 GROUP             0 ****  ****    0  
     3 RES3      100 GROUP             0 ****  ****    0  
@<TRIPOS>CRYSIN
   17.0591   17.8559   18.1668   90.0000  117.3560   90.0000    14     1
