@<TRIPOS>MOLECULE
PIHTIN
    89    87     8     0     0
SMALL
USER_CHARGES
****
Generated from the CSD

@<TRIPOS>ATOM
     1 Fe1      0.8910   7.7478  13.3559   Fe        1 RES1  -3.0000
     2 N1       0.6113  10.8086  13.5356   N.1       1 RES1   0.0000
     3 N2      -0.5572   7.5494  16.0832   N.1       1 RES1   0.0000
     4 N3       1.3800   4.7137  12.9864   N.1       1 RES1   0.0000
     5 N4      -1.7244   7.4266  11.7386   N.1       1 RES1   0.0000
     6 N5       2.5189   8.2865  10.7803   N.1       1 RES1   0.0000
     7 N6       3.4681   7.7272  15.0470   N.1       1 RES1   0.0000
     8 C1       0.6861   9.6678  13.4752   C.1       1 RES1   0.0000
     9 C2      -0.0529   7.5886  15.0549   C.1       1 RES1   0.0000
    10 C3       1.1672   5.8323  13.1362   C.1       1 RES1   0.0000
    11 C4      -0.7545   7.5913  12.3395   C.1       1 RES1   0.0000
    12 C5       1.8998   8.0669  11.7245   C.1       1 RES1   0.0000
    13 C6       2.5124   7.7664  14.4021   C.1       1 RES1   0.0000
    14 O1       5.9664   4.7267  14.1275   O.3       2 RES2   0.0000
    15 H1       6.8095   4.6542  14.3273   H         2 RES2   0.0000
    16 H2       5.8385   4.4617  13.3087   H         2 RES2   0.0000
    17 O2       5.4208   4.0799  11.5279   O.3       3 RES3   0.0000
    18 H3       6.1779   4.0772  11.0577   H         3 RES3   0.0000
    19 H4       5.0816   3.3193  11.4503   H         3 RES3   0.0000
    20 O3       4.0485   1.5512  11.5105   O.3       4 RES4   0.0000
    21 H5       3.1874   1.5374  11.6358   H         4 RES4   0.0000
    22 H6       4.1272   0.8494  11.0577   H         4 RES4   0.0000
    23 O4       1.2962   2.1027  11.9367   O.3       5 RES5   0.0000
    24 H7       1.0519   1.5730  12.5821   H         5 RES5   0.0000
    25 H8       1.4260   2.9030  12.2515   H         5 RES5   0.0000
    26 O5       0.1148   0.5358  13.8601   O.3       6 RES6   0.0000
    27 H9       0.3346   0.7515  14.6729   H         6 RES6   0.0000
    28 H10      0.3869  -0.3006  13.8276   H         6 RES6   0.0000
    29 N7       5.9277   7.6736  13.5999   N.ar      7 RES7   1.0000
    30 H11      5.3009   7.6579  14.2616   H         7 RES7   0.0000
    31 N8       6.5442   7.7376  16.1600   N.ar      7 RES7   0.0000
    32 N9       4.3787   7.7703  17.6958   N.ar      7 RES7   1.0000
    33 H12      4.3727   7.7707  16.8160   H         7 RES7   0.0000
    34 C7       5.4453   7.6984  12.3552   C.ar      7 RES7   0.0000
    35 H13      4.5076   7.6582  12.2076   H         7 RES7   0.0000
    36 C8       6.3043   7.7847  11.2911   C.ar      7 RES7   0.0000
    37 H14      5.9705   7.8070  10.4018   H         7 RES7   0.0000
    38 C9       7.6585   7.8369  11.5314   C.ar      7 RES7   0.0000
    39 H15      8.2685   7.9072  10.8067   H         7 RES7   0.0000
    40 C10      8.1319   7.7847  12.8400   C.ar      7 RES7   0.0000
    41 H16      9.0666   7.7949  13.0099   H         7 RES7   0.0000
    42 C11      7.2394   7.7193  13.8871   C.ar      7 RES7   0.0000
    43 C12      7.5940   7.7076  15.3308   C.ar      7 RES7   0.0000
    44 C13      8.9083   7.7023  15.7763   C.ar      7 RES7   0.0000
    45 H17      9.6320   7.6607  15.1624   H         7 RES7   0.0000
    46 C14      9.1353   7.7585  17.1406   C.ar      7 RES7   0.0000
    47 H18     10.0235   7.7564  17.4766   H         7 RES7   0.0000
    48 C15      8.0713   7.8186  18.0060   C.ar      7 RES7   0.0000
    49 H19      8.2150   7.8764  18.9434   H         7 RES7   0.0000
    50 C16      6.7802   7.7951  17.4878   C.ar      7 RES7   0.0000
    51 C17      5.5730   7.8082  18.3281   C.ar      7 RES7   0.0000
    52 C18      5.5653   7.8265  19.7227   C.ar      7 RES7   0.0000
    53 H20      6.3835   7.8630  20.2029   H         7 RES7   0.0000
    54 C19      4.3632   7.7925  20.4040   C.ar      7 RES7   0.0000
    55 H21      4.3595   7.7996  21.3540   H         7 RES7   0.0000
    56 C20      3.1625   7.7455  19.7087   C.ar      7 RES7   0.0000
    57 H22      2.3326   7.7250  20.1709   H         7 RES7   0.0000
    58 C21      3.2037   7.7311  18.3377   C.ar      7 RES7   0.0000
    59 H23      2.3946   7.6940  17.8409   H         7 RES7   0.0000
    60 N10      4.4767   4.5438  16.2736   N.ar      8 RES8   1.0000
    61 H24      5.1074   4.6130  15.6597   H         8 RES8   0.0000
    62 N11      7.0807   4.3961  16.8697   N.ar      8 RES8   0.0000
    63 N12      8.6852   4.5268  14.6884   N.ar      8 RES8   0.0000
    64 C22      3.2153   4.5595  15.8429   C.ar      8 RES8   0.0000
    65 H25      3.0284   4.6302  14.9141   H         8 RES8   0.0000
    66 C23      2.1861   4.4706  16.7502   C.ar      8 RES8   0.0000
    67 H26      1.2833   4.4856  16.4554   H         8 RES8   0.0000
    68 C24      2.4802   4.3608  18.0893   C.ar      8 RES8   0.0000
    69 H27      1.7769   4.2871  18.7237   H         8 RES8   0.0000
    70 C25      3.7957   4.3569  18.5146   C.ar      8 RES8   0.0000
    71 H28      3.9996   4.2944  19.4404   H         8 RES8   0.0000
    72 C26      4.8108   4.4458  17.5813   C.ar      8 RES8   0.0000
    73 C27      6.2566   4.4458  17.9238   C.ar      8 RES8   0.0000
    74 C28      6.6938   4.5111  19.2350   C.ar      8 RES8   0.0000
    75 H29      6.0767   4.5507  19.9557   H         8 RES8   0.0000
    76 C29      8.0609   4.5150  19.4644   C.ar      8 RES8   0.0000
    77 H30      8.3977   4.5599  20.3516   H         8 RES8   0.0000
    78 C30      8.9302   4.4549  18.3901   C.ar      8 RES8   0.0000
    79 H31      9.8698   4.4526  18.5289   H         8 RES8   0.0000
    80 C31      8.4027   4.3961  17.0954   C.ar      8 RES8   0.0000
    81 C32      9.2862   4.3543  15.8954   C.ar      8 RES8   0.0000
    82 C33     10.6520   4.1648  15.9981   C.ar      8 RES8   0.0000
    83 H32     11.0519   4.0156  16.8471   H         8 RES8   0.0000
    84 C34     11.4323   4.1936  14.8588   C.ar      8 RES8   0.0000
    85 H33     12.3722   4.0735  14.9201   H         8 RES8   0.0000
    86 C35     10.8365   4.3974  13.6293   C.ar      8 RES8   0.0000
    87 H34     11.3526   4.4293  12.8325   H         8 RES8   0.0000
    88 C36      9.4629   4.5529  13.5979   C.ar      8 RES8   0.0000
    89 H35      9.0471   4.6878  12.7546   H         8 RES8   0.0000
@<TRIPOS>BOND
     1     1     8    1
     2     2     8    3
     3     3     9    3
     4     4    10    3
     5     5    11    3
     6     6    12    3
     7     7    13    3
     8     9     1    1
     9    10     1    1
    10    11     1    1
    11    12     1    1
    12    13     1    1
    13    14    15    1
    14    16    14    1
    15    17    18    1
    16    19    17    1
    17    20    21    1
    18    22    20    1
    19    23    24    1
    20    25    23    1
    21    26    27    1
    22    28    26    1
    23    29    30    1
    24    31    43   ar
    25    32    33    1
    26    34    29   ar
    27    35    34    1
    28    36    34   ar
    29    37    36    1
    30    38    36   ar
    31    39    38    1
    32    40    38   ar
    33    41    40    1
    34    42    29   ar
    35    43    42    1
    36    44    43   ar
    37    45    44    1
    38    46    44   ar
    39    47    46    1
    40    48    46   ar
    41    49    48    1
    42    50    31   ar
    43    51    32   ar
    44    52    51   ar
    45    53    52    1
    46    54    52   ar
    47    55    54    1
    48    56    54   ar
    49    57    56    1
    50    58    32   ar
    51    59    58    1
    52    40    42   ar
    53    48    50   ar
    54    50    51    1
    55    56    58   ar
    56    60    61    1
    57    62    73   ar
    58    63    81   ar
    59    64    60   ar
    60    65    64    1
    61    66    64   ar
    62    67    66    1
    63    68    66   ar
    64    69    68    1
    65    70    68   ar
    66    71    70    1
    67    72    60   ar
    68    73    72    1
    69    74    73   ar
    70    75    74    1
    71    76    74   ar
    72    77    76    1
    73    78    76   ar
    74    79    78    1
    75    80    62   ar
    76    81    80    1
    77    82    81   ar
    78    83    82    1
    79    84    82   ar
    80    85    84    1
    81    86    84   ar
    82    87    86    1
    83    88    63   ar
    84    89    88    1
    85    70    72   ar
    86    78    80   ar
    87    86    88   ar
@<TRIPOS>SUBSTRUCTURE
     1 RES1        1 GROUP             0 ****  ****    0  
     2 RES2       14 GROUP             0 ****  ****    0  
     3 RES3       17 GROUP             0 ****  ****    0  
     4 RES4       20 GROUP             0 ****  ****    0  
     5 RES5       23 GROUP             0 ****  ****    0  
     6 RES6       26 GROUP             0 ****  ****    0  
     7 RES7       29 GROUP             0 ****  ****    0  
     8 RES8       60 GROUP             0 ****  ****    0  
@<TRIPOS>CRYSIN
   12.8975   13.0681   21.8101   90.0000   90.0000   90.0000    19     1
