@<TRIPOS>MOLECULE
PIHXAH
    84    87     2     0     0
SMALL
USER_CHARGES
****
Generated from the CSD

@<TRIPOS>ATOM
     1 C1       7.7560   6.3294   0.4074   C.3       1 RES1   0.0000
     2 H1       8.3684   6.0304   1.0831   H         1 RES1   0.0000
     3 H2       8.2387   6.5203  -0.3992   H         1 RES1   0.0000
     4 H3       7.1075   5.6432   0.2375   H         1 RES1   0.0000
     5 C2       7.0499   7.5849   0.8865   C.2       1 RES1   0.0000
     6 C3       7.1652   8.7754   0.1884   C.2       1 RES1   0.0000
     7 H4       7.7686   8.7845  -0.5180   H         1 RES1   0.0000
     8 C4       6.4699   9.9678   0.4300   C.2       1 RES1   0.0000
     9 C5       6.5564  11.0684  -0.6081   C.3       1 RES1   0.0000
    10 H5       5.6792  11.2611  -0.9439   H         1 RES1   0.0000
    11 H6       7.1201  10.7820  -1.3308   H         1 RES1   0.0000
    12 H7       6.9274  11.8591  -0.2068   H         1 RES1   0.0000
    13 C6       4.9065  11.3043   1.7055   C.3       1 RES1   0.0000
    14 H8       4.0257  11.1476   1.3308   H         1 RES1   0.0000
    15 H9       5.2973  12.0698   1.2571   H         1 RES1   0.0000
    16 C7       4.7966  11.5745   3.1776   C.3       1 RES1   0.0000
    17 H10      5.5729  12.0662   3.4867   H         1 RES1   0.0000
    18 H11      4.0041  12.1041   3.3598   H         1 RES1   0.0000
    19 C8       3.7033  11.4917   5.7573   C.3       1 RES1   0.0000
    20 H12      4.3481  12.1977   5.6733   H         1 RES1   0.0000
    21 H13      3.5448  11.3133   6.6889   H         1 RES1   0.0000
    22 H14      2.8819  11.7564   5.3376   H         1 RES1   0.0000
    23 C9       4.2364  10.2290   5.0816   C.2       1 RES1   0.0000
    24 C10      4.2256   9.0204   5.8289   C.2       1 RES1   0.0000
    25 H15      3.8312   9.0618   6.6704   H         1 RES1   0.0000
    26 C11      4.7245   7.8100   5.4522   C.2       1 RES1   0.0000
    27 C12      4.6921   6.6356   6.3920   C.3       1 RES1   0.0000
    28 H16      4.1284   5.9494   6.0275   H         1 RES1   0.0000
    29 H17      4.3445   6.9166   7.2437   H         1 RES1   0.0000
    30 H18      5.5819   6.2934   6.5066   H         1 RES1   0.0000
    31 C13      2.5433   8.5485   2.5244   C.2       1 RES1   0.0000
    32 H19      2.3434   9.0997   3.2472   H         1 RES1   0.0000
    33 C14      3.5448   7.4300   1.0851   C.2       1 RES1   0.0000
    34 H20      4.2310   7.0373   0.5937   H         1 RES1   0.0000
    35 C15      2.2569   7.2462   0.8497   C.2       1 RES1   0.0000
    36 H21      1.8787   6.7221   0.1802   H         1 RES1   0.0000
    37 C16      0.1369   8.2081   1.7812   C.3       1 RES1   0.0000
    38 H22     -0.0288   8.9394   2.3975   H         1 RES1   0.0000
    39 H23     -0.1459   8.5017   0.9009   H         1 RES1   0.0000
    40 C17     -0.6466   7.1328   2.1580   C.3       1 RES1   0.0000
    41 H24     -0.5061   6.9454   3.0998   H         1 RES1   0.0000
    42 H25     -0.3819   6.3492   1.6523   H         1 RES1   0.0000
    43 C18     -2.0372   7.3975   1.9287   C.3       1 RES1   0.0000
    44 H26     -2.1218   8.2549   1.4803   H         1 RES1   0.0000
    45 H27     -2.3902   6.7185   1.3329   H         1 RES1   0.0000
    46 C19     -2.7847   7.4227   3.0486   C.3       1 RES1   0.0000
    47 H28     -3.4079   8.1522   3.0015   H         1 RES1   0.0000
    48 H29     -2.2155   7.5362   3.8123   H         1 RES1   0.0000
    49 H30     -3.2656   6.5960   3.1284   H         1 RES1   0.0000
    50 C20      8.1000  10.2560   3.6403   C.2       1 RES1   0.0000
    51 H31      7.8352  11.0810   3.3004   H         1 RES1   0.0000
    52 C21      8.1126   8.2135   4.1951   C.2       1 RES1   0.0000
    53 H32      7.8442   7.3327   4.3241   H         1 RES1   0.0000
    54 C22      9.3068   8.7142   4.5370   C.2       1 RES1   0.0000
    55 H33     10.0093   8.2513   4.9342   H         1 RES1   0.0000
    56 C23     10.3893  10.9621   4.3794   C.3       1 RES1   0.0000
    57 H34     10.7081  10.9045   5.2925   H         1 RES1   0.0000
    58 H35     10.0597  11.8645   4.2361   H         1 RES1   0.0000
    59 C24     11.5331  10.6991   3.4396   C.3       1 RES1   0.0000
    60 H36     11.8447   9.7913   3.5830   H         1 RES1   0.0000
    61 H37     11.2017  10.7532   2.5306   H         1 RES1   0.0000
    62 C25     12.6949  11.6303   3.5809   C.3       1 RES1   0.0000
    63 H38     12.3760  12.5418   3.4888   H         1 RES1   0.0000
    64 H39     13.0641  11.5349   4.4715   H         1 RES1   0.0000
    65 C26     13.7125  11.4124   2.6452   C.3       1 RES1   0.0000
    66 H40     13.7720  10.4740   2.4487   H         1 RES1   0.0000
    67 H41     14.5483  11.7150   3.0056   H         1 RES1   0.0000
    68 H42     13.5162  11.8951   1.8386   H         1 RES1   0.0000
    69 N1       5.7476  10.1299   1.5028   N.2       1 RES1   0.0000
    70 N2       4.7083  10.2776   3.8655   N.2       1 RES1   0.0000
    71 N3       3.7303   8.2603   2.1293   N.2       1 RES1   0.0000
    72 N4       1.6229   7.9397   1.7423   N.pl3     1 RES1   0.0000
    73 N5       7.3507   9.1879   3.6296   N.2       1 RES1   0.0000
    74 N6       9.2960  10.0219   4.1972   N.pl3     1 RES1   0.0000
    75 O1       6.3204   7.4044   1.9166   O.3       1 RES1   0.0000
    76 O2       5.2660   7.5647   4.3157   O.3       1 RES1   0.0000
    77 Fe1      5.5128   8.8145   2.8977   Fe        1 RES1   1.0000
    78 F1       1.2969  11.3584   3.0711   F         2 RES2   0.0000
    79 F2      -0.1423  13.8080   2.1354   F         2 RES2   0.0000
    80 F3       0.1891  12.0410   1.1998   F         2 RES2   0.0000
    81 F4       0.9204  13.1452   3.8368   F         2 RES2   0.0000
    82 F5      -0.6070  11.9023   2.9708   F         2 RES2   0.0000
    83 F6       1.7742  13.1253   2.0413   F         2 RES2   0.0000
    84 P1       0.5270  12.5309   2.4980   P.3       2 RES2  -1.0000
@<TRIPOS>BOND
     1     1     2    1
     2     3     1    1
     3     4     1    1
     4     5     1    1
     5     6     5    2
     6     7     6    1
     7     8     6    1
     8     9     8    1
     9    10     9    1
    10    11     9    1
    11    12     9    1
    12    13    14    1
    13    15    13    1
    14    16    13    1
    15    17    16    1
    16    18    16    1
    17    19    20    1
    18    21    19    1
    19    22    19    1
    20    23    19    1
    21    24    23    1
    22    25    24    1
    23    26    24    2
    24    27    26    1
    25    28    27    1
    26    29    27    1
    27    30    27    1
    28    31    32    1
    29    33    34    1
    30    35    33    2
    31    36    35    1
    32    37    38    1
    33    39    37    1
    34    40    37    1
    35    41    40    1
    36    42    40    1
    37    43    40    1
    38    44    43    1
    39    45    43    1
    40    46    43    1
    41    47    46    1
    42    48    46    1
    43    49    46    1
    44    50    51    1
    45    52    53    1
    46    54    52    2
    47    55    54    1
    48    56    57    1
    49    58    56    1
    50    59    56    1
    51    60    59    1
    52    61    59    1
    53    62    59    1
    54    63    62    1
    55    64    62    1
    56    65    62    1
    57    66    65    1
    58    67    65    1
    59    68    65    1
    60    69     8    2
    61    70    16    1
    62    71    31    2
    63    72    31    1
    64    73    50    2
    65    74    50    1
    66    75     5    1
    67    76    26    1
    68    77    69    1
    69    13    69    1
    70    23    70    2
    71    33    71    1
    72    35    72    1
    73    37    72    1
    74    52    73    1
    75    54    74    1
    76    56    74    1
    77    70    77    1
    78    71    77    1
    79    73    77    1
    80    75    77    1
    81    76    77    1
    82    78    84    1
    83    79    84    1
    84    80    84    1
    85    81    84    1
    86    82    84    1
    87    83    84    1
@<TRIPOS>SUBSTRUCTURE
     1 RES1        1 GROUP             0 ****  ****    0  
     2 RES2       78 GROUP             0 ****  ****    0  
