@<TRIPOS>MOLECULE
PILSOW
    81    86     1     0     0
SMALL
NO_CHARGES
****
Generated from the CSD

@<TRIPOS>ATOM
     1 Fe1      6.2649  19.3511  11.7404   Fe        1 RES1   0.0000
     2 O1       6.0268  21.0607  10.6372   O.3       1 RES1   0.0000
     3 O2       4.6945  19.0265  13.0067   O.2       1 RES1   0.0000
     4 O3      10.3722  21.9677   9.0224   O.3       1 RES1   0.0000
     5 O4       8.8125  23.5397   8.7205   O.2       1 RES1   0.0000
     6 O5       6.5614  23.1341  10.0365   O.3       1 RES1   0.0000
     7 O6       3.3865  18.3455  14.6753   O.3       1 RES1   0.0000
     8 O7       6.5513  16.2719  16.3111   O.3       1 RES1   0.0000
     9 O8       4.3354  16.5677  16.4240   O.2       1 RES1   0.0000
    10 N1       8.1128  19.2164  10.7328   N.2       1 RES1   0.0000
    11 N2       7.1225  17.6722  12.6737   N.2       1 RES1   0.0000
    12 N3       7.1087  20.7210  13.3220   N.ar      1 RES1   0.0000
    13 N4       4.9864  18.2751  10.2594   N.ar      1 RES1   0.0000
    14 C1       6.8931  21.8488  10.1894   C.2       1 RES1   0.0000
    15 C2       8.2259  21.4833   9.8261   C.2       1 RES1   0.0000
    16 C3       8.7396  20.1891  10.1227   C.2       1 RES1   0.0000
    17 H1       9.6320  20.0134   9.8486   H         1 RES1   0.0000
    18 C4       8.7899  17.9863  10.9655   C.ar      1 RES1   0.0000
    19 C5       9.8639  17.5160  10.2124   C.ar      1 RES1   0.0000
    20 H2      10.1780  18.0272   9.4759   H         1 RES1   0.0000
    21 C6      10.4802  16.3153  10.5208   C.ar      1 RES1   0.0000
    22 H3      11.2083  16.0046   9.9955   H         1 RES1   0.0000
    23 C7      10.0320  15.5682  11.5979   C.ar      1 RES1   0.0000
    24 H4      10.4759  14.7622  11.8343   H         1 RES1   0.0000
    25 C8       8.9391  15.9946  12.3285   C.ar      1 RES1   0.0000
    26 H5       8.6239  15.4625  13.0497   H         1 RES1   0.0000
    27 C9       8.2902  17.1929  12.0261   C.ar      1 RES1   0.0000
    28 C10      6.7582  17.1773  13.8335   C.2       1 RES1   0.0000
    29 H6       7.3681  16.5748  14.2428   H         1 RES1   0.0000
    30 C11      5.5632  17.4363  14.5448   C.2       1 RES1   0.0000
    31 C12      4.5485  18.3084  14.0175   C.2       1 RES1   0.0000
    32 C13      9.1046  22.4473   9.1535   C.2       1 RES1   0.0000
    33 C14     11.3212  22.8361   8.3698   C.3       1 RES1   0.0000
    34 H7      11.5235  23.6180   8.9425   H         1 RES1   0.0000
    35 H8      10.9558  23.1613   7.5091   H         1 RES1   0.0000
    36 C15     12.5526  22.0294   8.1392   C.3       1 RES1   0.0000
    37 H9      13.2520  22.6019   7.7606   H         1 RES1   0.0000
    38 H10     12.3535  21.3007   7.5150   H         1 RES1   0.0000
    39 H11     12.8620  21.6551   8.9904   H         1 RES1   0.0000
    40 C16      5.2130  23.5084  10.4033   C.3       1 RES1   0.0000
    41 H12      5.0600  23.3447  11.3675   H         1 RES1   0.0000
    42 H13      4.5556  22.9796   9.8851   H         1 RES1   0.0000
    43 C17      5.0715  24.9562  10.0948   C.3       1 RES1   0.0000
    44 H14      4.1563  25.2448  10.2953   H         1 RES1   0.0000
    45 H15      5.2610  25.1082   9.1455   H         1 RES1   0.0000
    46 H16      5.7026  25.4698  10.6406   H         1 RES1   0.0000
    47 C18      2.3733  19.2519  14.1545   C.3       1 RES1   0.0000
    48 H17      2.8062  20.0942  13.8661   H         1 RES1   0.0000
    49 H18      1.7302  19.4708  14.8745   H         1 RES1   0.0000
    50 C19      1.6286  18.6518  12.9893   C.3       1 RES1   0.0000
    51 H19      0.9288  19.2712  12.6952   H         1 RES1   0.0000
    52 H20      1.2211  17.8041  13.2639   H         1 RES1   0.0000
    53 H21      2.2532  18.4901  12.2514   H         1 RES1   0.0000
    54 C20      5.3662  16.7454  15.8227   C.2       1 RES1   0.0000
    55 C21      6.5097  15.6112  17.5921   C.3       1 RES1   0.0000
    56 H22      7.2974  15.0179  17.6791   H         1 RES1   0.0000
    57 H23      5.6969  15.0480  17.6426   H         1 RES1   0.0000
    58 C22      6.5022  16.5898  18.7224   C.3       1 RES1   0.0000
    59 H24      6.4641  16.1056  19.5735   H         1 RES1   0.0000
    60 H25      5.7193  17.1740  18.6435   H         1 RES1   0.0000
    61 H26      7.3184  17.1314  18.6908   H         1 RES1   0.0000
    62 C23      8.3625  20.6149  13.7716   C.ar      1 RES1   0.0000
    63 H27      8.8871  19.8794  13.4779   H         1 RES1   0.0000
    64 C24      8.9306  21.5198  14.6399   C.ar      1 RES1   0.0000
    65 H28      9.8229  21.4014  14.9452   H         1 RES1   0.0000
    66 C25      8.1806  22.6067  15.0611   C.ar      1 RES1   0.0000
    67 H29      8.5556  23.2629  15.6363   H         1 RES1   0.0000
    68 C26      6.8773  22.7134  14.6266   C.ar      1 RES1   0.0000
    69 H30      6.3304  23.4348  14.9152   H         1 RES1   0.0000
    70 C27      6.3775  21.7578  13.7665   C.ar      1 RES1   0.0000
    71 H31      5.4767  21.8358  13.4751   H         1 RES1   0.0000
    72 C28      4.1858  18.9133   9.4027   C.ar      1 RES1   0.0000
    73 H32      4.2507  19.8591   9.3424   H         1 RES1   0.0000
    74 C29      3.2646  18.2632   8.5972   C.ar      1 RES1   0.0000
    75 H33      2.7124  18.7581   8.0033   H         1 RES1   0.0000
    76 C30      3.1591  16.8989   8.6665   C.ar      1 RES1   0.0000
    77 H34      2.5370  16.4302   8.1225   H         1 RES1   0.0000
    78 C31      3.9750  16.2253   9.5427   C.ar      1 RES1   0.0000
    79 H35      3.9308  15.2790   9.6145   H         1 RES1   0.0000
    80 C32      4.8646  16.9491  10.3194   C.ar      1 RES1   0.0000
    81 H36      5.4180  16.4747  10.9285   H         1 RES1   0.0000
@<TRIPOS>BOND
     1     1     2    1
     2     2    14    1
     3     3     1    1
     4     4    32    1
     5     5    32    2
     6     6    14    1
     7     7    31    1
     8     8    54    1
     9     9    54    2
    10    10     1    1
    11    11     1    1
    12    12     1    1
    13    13     1    1
    14    14    15    2
    15    15    16    1
    16    16    10    2
    17    17    16    1
    18    18    10    1
    19    19    18   ar
    20    20    19    1
    21    21    19   ar
    22    22    21    1
    23    23    21   ar
    24    24    23    1
    25    25    23   ar
    26    26    25    1
    27    27    11    1
    28    28    11    1
    29    29    28    1
    30    30    28    2
    31    31     3    2
    32    32    15    1
    33    33     4    1
    34    34    33    1
    35    35    33    1
    36    36    33    1
    37    37    36    1
    38    38    36    1
    39    39    36    1
    40    40     6    1
    41    41    40    1
    42    42    40    1
    43    43    40    1
    44    44    43    1
    45    45    43    1
    46    46    43    1
    47    47     7    1
    48    48    47    1
    49    49    47    1
    50    50    47    1
    51    51    50    1
    52    52    50    1
    53    53    50    1
    54    54    30    1
    55    55     8    1
    56    56    55    1
    57    57    55    1
    58    58    55    1
    59    59    58    1
    60    60    58    1
    61    61    58    1
    62    62    12   ar
    63    63    62    1
    64    64    62   ar
    65    65    64    1
    66    66    64   ar
    67    67    66    1
    68    68    66   ar
    69    69    68    1
    70    70    12   ar
    71    71    70    1
    72    72    13   ar
    73    73    72    1
    74    74    72   ar
    75    75    74    1
    76    76    74   ar
    77    77    76    1
    78    78    76   ar
    79    79    78    1
    80    80    13   ar
    81    81    80    1
    82    18    27   ar
    83    25    27   ar
    84    30    31    1
    85    68    70   ar
    86    78    80   ar
@<TRIPOS>SUBSTRUCTURE
     1 RES1        1 GROUP             0 ****  ****    0  
@<TRIPOS>CRYSIN
   10.4236   19.7223   15.5621   90.0000   94.7550   90.0000    14     1
