@<TRIPOS>MOLECULE
PILTAJ
    83    89     1     0     0
SMALL
NO_CHARGES
****
Generated from the CSD

@<TRIPOS>ATOM
     1 Fe1      6.5971  12.3285   9.6842   Fe        1 RES1   0.0000
     2 O1       8.2544  13.4236  10.2903   O.3       1 RES1   0.0000
     3 O2      11.6605  10.3203  11.4194   O.2       1 RES1   0.0000
     4 O3      12.1455  12.4544  10.9628   O.3       1 RES1   0.0000
     5 N1       7.7926  10.6811  10.2898   N.2       1 RES1   0.0000
     6 N2       7.4233  12.4931   7.6197   N.ar      1 RES1   0.0000
     7 C1       9.3979  13.1123  10.7694   C.2       1 RES1   0.0000
     8 C2       9.8864  11.7931  10.8244   C.2       1 RES1   0.0000
     9 C3       9.0309  10.6526  10.6694   C.2       1 RES1   0.0000
    10 H1       9.4841   9.7480  10.9238   H         1 RES1   0.0000
    11 C4       7.0502   9.4158  10.2989   C.3       1 RES1   0.0000
    12 H2       7.6464   8.6601  10.3298   H         1 RES1   0.0000
    13 H3       6.4342   9.4289  11.1562   H         1 RES1   0.0000
    14 C5      10.1599  14.2387  11.4158   C.ar      1 RES1   0.0000
    15 C6      10.5358  15.3706  10.7056   C.ar      1 RES1   0.0000
    16 H4      10.3396  15.4054   9.7746   H         1 RES1   0.0000
    17 C7      11.1902  16.4106  11.3602   C.ar      1 RES1   0.0000
    18 H5      11.4459  17.1606  10.8851   H         1 RES1   0.0000
    19 C8      11.4516  16.3265  12.7148   C.ar      1 RES1   0.0000
    20 H6      11.8689  17.0446  13.1318   H         1 RES1   0.0000
    21 C9      11.0494  15.2197  13.4275   C.ar      1 RES1   0.0000
    22 H7      11.1698  15.1733  14.4360   H         1 RES1   0.0000
    23 C10     10.4074  14.1695  12.7806   C.ar      1 RES1   0.0000
    24 H8      10.1400  13.4181  13.2609   H         1 RES1   0.0000
    25 C11     11.2738  11.4307  11.1265   C.2       1 RES1   0.0000
    26 C12     13.5185  12.1734  11.3551   C.3       1 RES1   0.0000
    27 H9      14.0476  11.7934  10.3686   H         1 RES1   0.0000
    28 H10     13.5695  11.8079  12.3054   H         1 RES1   0.0000
    29 C13     14.2479  13.4514  11.2802   C.3       1 RES1   0.0000
    30 H11     15.1834  13.3089  11.5369   H         1 RES1   0.0000
    31 H12     13.8373  14.0989  11.8902   H         1 RES1   0.0000
    32 H13     14.2101  13.7960  10.3637   H         1 RES1   0.0000
    33 C14      6.6700  12.8015   6.5517   C.ar      1 RES1   0.0000
    34 H14      5.7472  12.8494   6.7015   H         1 RES1   0.0000
    35 C15      7.2016  13.0119   5.2940   C.ar      1 RES1   0.0000
    36 H15      6.5936  13.2730   4.6097   H         1 RES1   0.0000
    37 C16      8.5525  12.8857   5.1107   C.ar      1 RES1   0.0000
    38 H16      8.9532  13.0699   4.2869   H         1 RES1   0.0000
    39 C17      9.3394  12.5462   6.1902   C.ar      1 RES1   0.0000
    40 H17     10.2619  12.4316   6.1592   H         1 RES1   0.0000
    41 C18      8.7405  12.3664   7.4130   C.ar      1 RES1   0.0000
    42 H18      9.2165  12.1531   8.1348   H         1 RES1   0.0000
    43 O1A      4.9398  13.4236   9.0781   O.3       1 RES1   0.0000
    44 O2A      1.5336  10.3203   7.9491   O.2       1 RES1   0.0000
    45 O3A      1.0486  12.4544   8.4057   O.3       1 RES1   0.0000
    46 N1A      5.4016  10.6811   9.0786   N.2       1 RES1   0.0000
    47 C1A      3.7963  13.1123   8.5991   C.2       1 RES1   0.0000
    48 C2A      3.3078  11.7931   8.5441   C.2       1 RES1   0.0000
    49 C3A      4.1632  10.6526   8.6990   C.2       1 RES1   0.0000
    50 H1A      3.7100   9.7480   8.4446   H         1 RES1   0.0000
    51 C4A      6.1440   9.4158   9.0696   C.3       1 RES1   0.0000
    52 H2A      5.5478   8.6601   9.0386   H         1 RES1   0.0000
    53 H3A      6.7600   9.4289   8.2122   H         1 RES1   0.0000
    54 C5A      3.0343  14.2387   7.9527   C.ar      1 RES1   0.0000
    55 C6A      2.6584  15.3706   8.6629   C.ar      1 RES1   0.0000
    56 H4A      2.8545  15.4054   9.5938   H         1 RES1   0.0000
    57 C7A      2.0040  16.4106   8.0082   C.ar      1 RES1   0.0000
    58 H5A      1.7483  17.1606   8.4834   H         1 RES1   0.0000
    59 C8A      1.7426  16.3265   6.6537   C.ar      1 RES1   0.0000
    60 H6A      1.3253  17.0446   6.2366   H         1 RES1   0.0000
    61 C9A      2.1448  15.2197   5.9410   C.ar      1 RES1   0.0000
    62 H7A      2.0244  15.1733   4.9325   H         1 RES1   0.0000
    63 C10A     2.7868  14.1695   6.5879   C.ar      1 RES1   0.0000
    64 H8A      3.0542  13.4181   6.1075   H         1 RES1   0.0000
    65 C11A     1.9203  11.4307   8.2419   C.2       1 RES1   0.0000
    66 C12A    -0.3243  12.1734   8.0134   C.3       1 RES1   0.0000
    67 H9A     -0.8534  11.7934   8.9999   H         1 RES1   0.0000
    68 H10A    -0.3753  11.8079   7.0630   H         1 RES1   0.0000
    69 C13A    -1.0538  13.4514   8.0883   C.3       1 RES1   0.0000
    70 H11A    -1.9893  13.3089   7.8316   H         1 RES1   0.0000
    71 H12A    -0.6431  14.0989   7.4783   H         1 RES1   0.0000
    72 H13A    -1.0159  13.7960   9.0048   H         1 RES1   0.0000
    73 N2A      5.7709  12.4931  11.7488   N.ar      1 RES1   0.0000
    74 C14A     6.5242  12.8015  12.8168   C.ar      1 RES1   0.0000
    75 H14A     7.4470  12.8494  12.6670   H         1 RES1   0.0000
    76 C15A     5.9926  13.0119  14.0744   C.ar      1 RES1   0.0000
    77 H15A     6.6006  13.2730  14.7588   H         1 RES1   0.0000
    78 C16A     4.6416  12.8857  14.2578   C.ar      1 RES1   0.0000
    79 H16A     4.2410  13.0699  15.0816   H         1 RES1   0.0000
    80 C17A     3.8548  12.5462  13.1783   C.ar      1 RES1   0.0000
    81 H17A     2.9323  12.4316  13.2093   H         1 RES1   0.0000
    82 C18A     4.4537  12.3664  11.9555   C.ar      1 RES1   0.0000
    83 H18A     3.9777  12.1531  11.2337   H         1 RES1   0.0000
@<TRIPOS>BOND
     1     1     2    1
     2     2     7    1
     3     3    25    2
     4     4    25    1
     5     5     1    1
     6     6     1    1
     7     7     8    2
     8     8     9    1
     9     9     5    2
    10    10     9    1
    11    11     5    1
    12    12    11    1
    13    13    11    1
    14    14     7    1
    15    15    14   ar
    16    16    15    1
    17    17    15   ar
    18    18    17    1
    19    19    17   ar
    20    20    19    1
    21    21    19   ar
    22    22    21    1
    23    23    14   ar
    24    24    23    1
    25    25     8    1
    26    26     4    1
    27    27    26    1
    28    28    26    1
    29    29    26    1
    30    30    29    1
    31    31    29    1
    32    32    29    1
    33    33     6   ar
    34    34    33    1
    35    35    33   ar
    36    36    35    1
    37    37    35   ar
    38    38    37    1
    39    39    37   ar
    40    40    39    1
    41    41     6   ar
    42    42    41    1
    43    43     1    1
    44    44    65    2
    45    45    65    1
    46    46     1    1
    47    47    43    1
    48    48    47    2
    49    49    46    2
    50    50    49    1
    51    51    11    1
    52    52    51    1
    53    53    51    1
    54    54    47    1
    55    55    54   ar
    56    56    55    1
    57    57    55   ar
    58    58    57    1
    59    59    57   ar
    60    60    59    1
    61    61    59   ar
    62    62    61    1
    63    63    54   ar
    64    64    63    1
    65    65    48    1
    66    66    45    1
    67    67    66    1
    68    68    66    1
    69    69    66    1
    70    70    69    1
    71    71    69    1
    72    72    69    1
    73    73     1    1
    74    74    73   ar
    75    75    74    1
    76    76    74   ar
    77    77    76    1
    78    78    76   ar
    79    79    78    1
    80    80    78   ar
    81    81    80    1
    82    82    73   ar
    83    83    82    1
    84    21    23   ar
    85    39    41   ar
    86    46    51    1
    87    48    49    1
    88    61    63   ar
    89    80    82   ar
@<TRIPOS>SUBSTRUCTURE
     1 RES1        1 GROUP             0 ****  ****    0  
@<TRIPOS>CRYSIN
   18.1567   14.5060   13.3294   90.0000  104.3710   90.0000    15     1
