@<TRIPOS>MOLECULE
PIVYEC
   113   124     1     0     0
SMALL
NO_CHARGES
****
Generated from the CSD

@<TRIPOS>ATOM
     1 Fe1     11.3246   9.6620  12.3540   Fe        1 RES1   0.0000
     2 H1      10.4709   9.4536  13.5487   H         1 RES1   0.0000
     3 P1      12.9314   9.8845  10.7510   P.3       1 RES1   0.0000
     4 N1      10.4507  12.6321  12.5088   N.pl3     1 RES1   0.0000
     5 N2      12.0265  11.9576  13.8652   N.pl3     1 RES1   0.0000
     6 N3      12.7538   7.4896  13.4846   N.pl3     1 RES1   0.0000
     7 N4      11.3234   6.5554  12.1230   N.pl3     1 RES1   0.0000
     8 N5       9.7882   9.5108  11.3654   N.1       1 RES1   0.0000
     9 N6       8.7963   9.4081  10.8706   N.1       1 RES1   0.0000
    10 C1      11.1656  11.5105  12.8586   C.3       1 RES1   0.0000
    11 C2      10.8908  13.7561  13.2202   C.ar      1 RES1   0.0000
    12 C3      10.4996  15.0845  13.1365   C.ar      1 RES1   0.0000
    13 H2       9.7891  15.3614  12.5701   H         1 RES1   0.0000
    14 C4      11.2008  15.9930  13.9263   C.ar      1 RES1   0.0000
    15 H3      10.9683  16.9134  13.8948   H         1 RES1   0.0000
    16 C5      12.2381  15.5786  14.7634   C.ar      1 RES1   0.0000
    17 H4      12.7022  16.2265  15.2792   H         1 RES1   0.0000
    18 C6      12.6115  14.2397  14.8634   C.ar      1 RES1   0.0000
    19 H5      13.3115  13.9618  15.4430   H         1 RES1   0.0000
    20 C7      11.9119  13.3282  14.0750   C.ar      1 RES1   0.0000
    21 C8      12.6313   9.7573  13.7323   C.ar      1 RES1   0.0000
    22 C9      12.8629  10.9499  14.4090   C.ar      1 RES1   0.0000
    23 C10     13.7291  11.0274  15.4983   C.ar      1 RES1   0.0000
    24 H6      13.8644  11.8456  15.9637   H         1 RES1   0.0000
    25 C11     14.3910   9.8594  15.8810   C.ar      1 RES1   0.0000
    26 H7      15.0098   9.8974  16.6008   H         1 RES1   0.0000
    27 C12     14.1744   8.6339  15.2400   C.ar      1 RES1   0.0000
    28 H8      14.6313   7.8479  15.5150   H         1 RES1   0.0000
    29 C13     13.2658   8.6075  14.1859   C.ar      1 RES1   0.0000
    30 C14     11.7411   7.7869  12.5733   C.3       1 RES1   0.0000
    31 C15     12.9747   6.1217  13.5869   C.ar      1 RES1   0.0000
    32 C16     13.8728   5.3556  14.3249   C.ar      1 RES1   0.0000
    33 H9      14.5141   5.7596  14.8979   H         1 RES1   0.0000
    34 C17     13.7900   3.9728  14.1871   C.ar      1 RES1   0.0000
    35 H10     14.3807   3.4201  14.6865   H         1 RES1   0.0000
    36 C18     12.8606   3.3803  13.3341   C.ar      1 RES1   0.0000
    37 H11     12.8306   2.4327  13.2653   H         1 RES1   0.0000
    38 C19     11.9742   4.1449  12.5809   C.ar      1 RES1   0.0000
    39 H12     11.3436   3.7428  11.9958   H         1 RES1   0.0000
    40 C20     12.0545   5.5215  12.7250   C.ar      1 RES1   0.0000
    41 C21     10.1530   6.2932  11.3249   C.ar      1 RES1   0.0000
    42 C22     10.2941   5.9139   9.9864   C.ar      1 RES1   0.0000
    43 C23     11.6423   5.7377   9.3427   C.3       1 RES1   0.0000
    44 H13     12.2149   6.5006   9.5684   H         1 RES1   0.0000
    45 H14     11.5364   5.6860   8.3693   H         1 RES1   0.0000
    46 H15     12.0551   4.9111   9.6695   H         1 RES1   0.0000
    47 C24      9.1342   5.6520   9.2527   C.ar      1 RES1   0.0000
    48 H16      9.2104   5.4456   8.3280   H         1 RES1   0.0000
    49 C25      7.8713   5.6833   9.8325   C.ar      1 RES1   0.0000
    50 C26      6.6373   5.3266   9.0455   C.3       1 RES1   0.0000
    51 H17      6.7868   5.5225   8.0967   H         1 RES1   0.0000
    52 H18      5.8784   5.8528   9.3724   H         1 RES1   0.0000
    53 H19      6.4448   4.3721   9.1550   H         1 RES1   0.0000
    54 C27      7.7792   6.0103  11.1792   C.ar      1 RES1   0.0000
    55 H20      6.9242   6.0121  11.5930   H         1 RES1   0.0000
    56 C28      8.8969   6.3360  11.9436   C.ar      1 RES1   0.0000
    57 C29      8.7322   6.7186  13.3872   C.3       1 RES1   0.0000
    58 H21      9.4111   6.2611  13.9254   H         1 RES1   0.0000
    59 H22      7.8394   6.4561  13.6957   H         1 RES1   0.0000
    60 H23      8.8391   7.6885  13.4828   H         1 RES1   0.0000
    61 C30      9.2533  12.6673  11.7108   C.ar      1 RES1   0.0000
    62 C31      8.0609  12.2298  12.2972   C.ar      1 RES1   0.0000
    63 C32      8.0286  11.6726  13.6952   C.3       1 RES1   0.0000
    64 H24      8.3734  12.3433  14.3220   H         1 RES1   0.0000
    65 H25      8.5857  10.8679  13.7386   H         1 RES1   0.0000
    66 H26      7.1059  11.4450  13.9346   H         1 RES1   0.0000
    67 C33      6.8886  12.3590  11.5547   C.ar      1 RES1   0.0000
    68 H27      6.0724  12.0446  11.9253   H         1 RES1   0.0000
    69 C34      6.8739  12.9322  10.2894   C.ar      1 RES1   0.0000
    70 C35      5.5675  13.1281   9.5548   C.3       1 RES1   0.0000
    71 H28      5.7100  13.7211   8.7874   H         1 RES1   0.0000
    72 H29      4.9090  13.5287  10.1596   H         1 RES1   0.0000
    73 H30      5.2363  12.2616   9.2407   H         1 RES1   0.0000
    74 C36      8.0810  13.3542   9.7401   C.ar      1 RES1   0.0000
    75 H31      8.0833  13.7367   8.8701   H         1 RES1   0.0000
    76 C37      9.2901  13.2306  10.4305   C.ar      1 RES1   0.0000
    77 C38     10.5811  13.7066   9.8181   C.3       1 RES1   0.0000
    78 H32     11.2065  12.9555   9.7492   H         1 RES1   0.0000
    79 H33     10.9711  14.4054  10.3816   H         1 RES1   0.0000
    80 H34     10.4057  14.0679   8.9237   H         1 RES1   0.0000
    81 C39     13.5468  11.5522  10.2216   C.ar      1 RES1   0.0000
    82 C40     13.7280  12.5600  11.1772   C.ar      1 RES1   0.0000
    83 H35     13.5468  12.3785  12.0923   H         1 RES1   0.0000
    84 C41     14.1715  13.8289  10.7996   C.ar      1 RES1   0.0000
    85 H36     14.2843  14.5059  11.4567   H         1 RES1   0.0000
    86 C42     14.4468  14.1042   9.4730   C.ar      1 RES1   0.0000
    87 H37     14.7364  14.9713   9.2162   H         1 RES1   0.0000
    88 C43     14.2984  13.1137   8.5223   C.ar      1 RES1   0.0000
    89 H38     14.4986  13.2992   7.6128   H         1 RES1   0.0000
    90 C44     13.8561  11.8434   8.8897   C.ar      1 RES1   0.0000
    91 H39     13.7646  11.1688   8.2269   H         1 RES1   0.0000
    92 C45     12.6194   9.1445   9.0951   C.ar      1 RES1   0.0000
    93 C46     13.6019   8.5070   8.3243   C.ar      1 RES1   0.0000
    94 H40     14.4754   8.3908   8.6787   H         1 RES1   0.0000
    95 C47     13.3094   8.0416   7.0428   C.ar      1 RES1   0.0000
    96 H41     13.9835   7.6105   6.5316   H         1 RES1   0.0000
    97 C48     12.0353   8.2054   6.5100   C.ar      1 RES1   0.0000
    98 H42     11.8361   7.8831   5.6388   H         1 RES1   0.0000
    99 C49     11.0565   8.8432   7.2592   C.ar      1 RES1   0.0000
   100 H43     10.1861   8.9615   6.8976   H         1 RES1   0.0000
   101 C50     11.3451   9.3115   8.5393   C.ar      1 RES1   0.0000
   102 H44     10.6691   9.7503   9.0416   H         1 RES1   0.0000
   103 C51     14.5366   9.1106  11.2441   C.ar      1 RES1   0.0000
   104 C52     15.6042   9.8702  11.7334   C.ar      1 RES1   0.0000
   105 H45     15.5405  10.8177  11.7431   H         1 RES1   0.0000
   106 C53     16.7577   9.2522  12.2073   C.ar      1 RES1   0.0000
   107 H46     17.4752   9.7819  12.5348   H         1 RES1   0.0000
   108 C54     16.8685   7.8736  12.2050   C.ar      1 RES1   0.0000
   109 H47     17.6531   7.4559  12.5394   H         1 RES1   0.0000
   110 C55     15.8229   7.1032  11.7106   C.ar      1 RES1   0.0000
   111 H48     15.8975   6.1560  11.6956   H         1 RES1   0.0000
   112 C56     14.6674   7.7164  11.2374   C.ar      1 RES1   0.0000
   113 H49     13.9564   7.1816  10.9054   H         1 RES1   0.0000
@<TRIPOS>BOND
     1     1     2    1
     2     3     1    1
     3     4    10    1
     4     5    10    1
     5     6    29    1
     6     7    30    1
     7     8     1    1
     8     9     8    3
     9    10     1    1
    10    11     4    1
    11    12    11   ar
    12    13    12    1
    13    14    12   ar
    14    15    14    1
    15    16    14   ar
    16    17    16    1
    17    18    16   ar
    18    19    18    1
    19    20     5    1
    20    21     1    1
    21    22     5    1
    22    23    22   ar
    23    24    23    1
    24    25    23   ar
    25    26    25    1
    26    27    25   ar
    27    28    27    1
    28    29    21   ar
    29    30     1    1
    30    31     6    1
    31    32    31   ar
    32    33    32    1
    33    34    32   ar
    34    35    34    1
    35    36    34   ar
    36    37    36    1
    37    38    36   ar
    38    39    38    1
    39    40     7    1
    40    41     7    1
    41    42    41   ar
    42    43    42    1
    43    44    43    1
    44    45    43    1
    45    46    43    1
    46    47    42   ar
    47    48    47    1
    48    49    47   ar
    49    50    49    1
    50    51    50    1
    51    52    50    1
    52    53    50    1
    53    54    49   ar
    54    55    54    1
    55    56    41   ar
    56    57    56    1
    57    58    57    1
    58    59    57    1
    59    60    57    1
    60    61     4    1
    61    62    61   ar
    62    63    62    1
    63    64    63    1
    64    65    63    1
    65    66    63    1
    66    67    62   ar
    67    68    67    1
    68    69    67   ar
    69    70    69    1
    70    71    70    1
    71    72    70    1
    72    73    70    1
    73    74    69   ar
    74    75    74    1
    75    76    61   ar
    76    77    76    1
    77    78    77    1
    78    79    77    1
    79    80    77    1
    80    81     3    1
    81    82    81   ar
    82    83    82    1
    83    84    82   ar
    84    85    84    1
    85    86    84   ar
    86    87    86    1
    87    88    86   ar
    88    89    88    1
    89    90    81   ar
    90    91    90    1
    91    92     3    1
    92    93    92   ar
    93    94    93    1
    94    95    93   ar
    95    96    95    1
    96    97    95   ar
    97    98    97    1
    98    99    97   ar
    99   100    99    1
   100   101    92   ar
   101   102   101    1
   102   103     3    1
   103   104   103   ar
   104   105   104    1
   105   106   104   ar
   106   107   106    1
   107   108   106   ar
   108   109   108    1
   109   110   108   ar
   110   111   110    1
   111   112   103   ar
   112   113   112    1
   113     6    30    1
   114    11    20   ar
   115    18    20   ar
   116    21    22   ar
   117    27    29   ar
   118    31    40   ar
   119    38    40   ar
   120    54    56   ar
   121    74    76   ar
   122    88    90   ar
   123    99   101   ar
   124   110   112   ar
@<TRIPOS>SUBSTRUCTURE
     1 RES1        1 GROUP             0 ****  ****    0  
@<TRIPOS>CRYSIN
   12.2862   13.3264   16.2887   72.0170   89.7090   64.1420     2     1
