@<TRIPOS>MOLECULE
PIVYOM
    92   100     1     0     0
SMALL
NO_CHARGES
****
Generated from the CSD

@<TRIPOS>ATOM
     1 Fe1      3.3813  11.9288  17.0172   Fe        1 RES1   0.0000
     2 H1       4.7205  11.4497  16.5745   H         1 RES1   0.0000
     3 P1       1.4380  12.8441  17.5693   P.3       1 RES1   0.0000
     4 N1       3.3779  10.3002  19.6513   N.pl3     1 RES1   0.0000
     5 N2       4.3162  12.2695  19.6754   N.pl3     1 RES1   0.0000
     6 N3       4.3426  14.1680  15.5606   N.pl3     1 RES1   0.0000
     7 N4       3.4034  12.8826  14.0644   N.pl3     1 RES1   0.0000
     8 N5       2.6614  10.3924  16.3058   N.1       1 RES1   0.0000
     9 N6       2.2663   9.4518  15.8796   N.1       1 RES1   0.0000
    10 C1       3.6788  11.3597  18.8251   C.3       1 RES1   0.0000
    11 C2       3.7832  10.5510  20.9664   C.ar      1 RES1   0.0000
    12 C3       3.6386   9.8055  22.1295   C.ar      1 RES1   0.0000
    13 H2       3.2043   8.9601  22.1219   H         1 RES1   0.0000
    14 C4       4.1526  10.3413  23.3028   C.ar      1 RES1   0.0000
    15 H3       4.0514   9.8654  24.1190   H         1 RES1   0.0000
    16 C5       4.8128  11.5645  23.3023   C.ar      1 RES1   0.0000
    17 H4       5.1801  11.8924  24.1136   H         1 RES1   0.0000
    18 C6       4.9502  12.3217  22.1425   C.ar      1 RES1   0.0000
    19 H5       5.3988  13.1605  22.1463   H         1 RES1   0.0000
    20 C7       4.4029  11.7992  20.9794   C.ar      1 RES1   0.0000
    21 C8       4.3320  13.4173  17.7086   C.ar      1 RES1   0.0000
    22 C9       4.7133  13.4700  19.0454   C.ar      1 RES1   0.0000
    23 C10      5.4058  14.5434  19.5790   C.ar      1 RES1   0.0000
    24 H6       5.6599  14.5584  20.4956   H         1 RES1   0.0000
    25 C11      5.7164  15.5952  18.7323   C.ar      1 RES1   0.0000
    26 H7       6.1651  16.3524  19.0884   H         1 RES1   0.0000
    27 C12      5.3930  15.5786  17.3766   C.ar      1 RES1   0.0000
    28 H8       5.6209  16.3058  16.8099   H         1 RES1   0.0000
    29 C13      4.7248  14.4607  16.8833   C.ar      1 RES1   0.0000
    30 C14      3.6199  12.9741  15.4161   C.3       1 RES1   0.0000
    31 C15      4.6485  14.7298  14.3285   C.ar      1 RES1   0.0000
    32 C16      5.4237  15.8232  13.9526   C.ar      1 RES1   0.0000
    33 H9       5.8515  16.3757  14.5964   H         1 RES1   0.0000
    34 C17      5.5410  16.0679  12.5899   C.ar      1 RES1   0.0000
    35 H10      6.0700  16.8001  12.2990   H         1 RES1   0.0000
    36 C18      4.9115  15.2757  11.6409   C.ar      1 RES1   0.0000
    37 H11      5.0093  15.4854  10.7186   H         1 RES1   0.0000
    38 C19      4.1371  14.1773  12.0148   C.ar      1 RES1   0.0000
    39 H12      3.6982  13.6331  11.3708   H         1 RES1   0.0000
    40 C20      4.0420  13.9210  13.3727   C.ar      1 RES1   0.0000
    41 C21      2.6990  11.8092  13.4185   C.ar      1 RES1   0.0000
    42 C22      1.3376  11.9390  13.1360   C.ar      1 RES1   0.0000
    43 C23      0.5820  13.2104  13.4101   C.3       1 RES1   0.0000
    44 H13      0.2938  13.2237  14.3474   H         1 RES1   0.0000
    45 H14     -0.2044  13.2554  12.8266   H         1 RES1   0.0000
    46 H15      1.1625  13.9793  13.2353   H         1 RES1   0.0000
    47 C24      0.6976  10.8439  12.5698   C.ar      1 RES1   0.0000
    48 H16     -0.2325  10.9055  12.3856   H         1 RES1   0.0000
    49 C25      1.3606   9.6640  12.2614   C.ar      1 RES1   0.0000
    50 C26      0.5969   8.4824  11.7077   C.3       1 RES1   0.0000
    51 H17      0.0194   8.1096  12.4072   H         1 RES1   0.0000
    52 H18      1.2298   7.7968  11.4087   H         1 RES1   0.0000
    53 H19      0.0478   8.7737  10.9514   H         1 RES1   0.0000
    54 C27      2.7272   9.6041  12.4887   C.ar      1 RES1   0.0000
    55 H20      3.2035   8.8186  12.2448   H         1 RES1   0.0000
    56 C28      3.4194  10.6642  13.0653   C.ar      1 RES1   0.0000
    57 C29      4.8926  10.5743  13.3435   C.3       1 RES1   0.0000
    58 H21      5.3469  11.3515  12.9538   H         1 RES1   0.0000
    59 H22      5.2510   9.7539  12.9457   H         1 RES1   0.0000
    60 H23      5.0417  10.5593  14.3123   H         1 RES1   0.0000
    61 C30      3.0188   8.9960  19.1656   C.ar      1 RES1   0.0000
    62 C31      4.0160   8.2594  18.5194   C.ar      1 RES1   0.0000
    63 C32      5.4110   8.7836  18.4022   C.3       1 RES1   0.0000
    64 H24      5.4237   9.5425  17.7814   H         1 RES1   0.0000
    65 H25      5.9981   8.0747  18.0628   H         1 RES1   0.0000
    66 H26      5.7255   9.0749  19.2833   H         1 RES1   0.0000
    67 C33      3.6644   7.0246  17.9882   C.ar      1 RES1   0.0000
    68 H27      4.3244   6.5153  17.5325   H         1 RES1   0.0000
    69 C34      2.3884   6.5137  18.1002   C.ar      1 RES1   0.0000
    70 C35      2.0371   5.1690  17.5086   C.3       1 RES1   0.0000
    71 H28      2.6552   4.9626  16.7775   H         1 RES1   0.0000
    72 H29      1.1199   5.1923  17.1644   H         1 RES1   0.0000
    73 H30      2.1087   4.4784  18.2009   H         1 RES1   0.0000
    74 C36      1.4383   7.2509  18.7981   C.ar      1 RES1   0.0000
    75 H31      0.5634   6.8948  18.9044   H         1 RES1   0.0000
    76 C37      1.7375   8.5041  19.3507   C.ar      1 RES1   0.0000
    77 C38      0.6936   9.2763  20.1059   C.3       1 RES1   0.0000
    78 H32      1.1201   9.7822  20.8284   H         1 RES1   0.0000
    79 H33      0.0380   8.6538  20.4848   H         1 RES1   0.0000
    80 H34      0.2410   9.8953  19.4970   H         1 RES1   0.0000
    81 C39      1.1130  13.1039  19.3442   C.3       1 RES1   0.0000
    82 H35      1.1211  12.2402  19.8082   H         1 RES1   0.0000
    83 H36      0.2373  13.5283  19.4565   H         1 RES1   0.0000
    84 H37      1.8081  13.6831  19.7217   H         1 RES1   0.0000
    85 C40     -0.0761  11.9723  17.0302   C.3       1 RES1   0.0000
    86 H38     -0.0390  11.8208  16.0631   H         1 RES1   0.0000
    87 H39     -0.8614  12.5181  17.2456   H         1 RES1   0.0000
    88 H40     -0.1409  11.1119  17.4946   H         1 RES1   0.0000
    89 C41      1.1505  14.5434  16.9620   C.3       1 RES1   0.0000
    90 H41      1.8641  15.1326  17.2862   H         1 RES1   0.0000
    91 H42      0.2860  14.8663  17.2916   H         1 RES1   0.0000
    92 H43      1.1473  14.5451  15.9819   H         1 RES1   0.0000
@<TRIPOS>BOND
     1     1     2    1
     2     3     1    1
     3     4    10    1
     4     5    10    1
     5     6    29    1
     6     7    30    1
     7     8     1    1
     8     9     8    3
     9    10     1    1
    10    11     4    1
    11    12    11   ar
    12    13    12    1
    13    14    12   ar
    14    15    14    1
    15    16    14   ar
    16    17    16    1
    17    18    16   ar
    18    19    18    1
    19    20     5    1
    20    21     1    1
    21    22     5    1
    22    23    22   ar
    23    24    23    1
    24    25    23   ar
    25    26    25    1
    26    27    25   ar
    27    28    27    1
    28    29    21   ar
    29    30     1    1
    30    31     6    1
    31    32    31   ar
    32    33    32    1
    33    34    32   ar
    34    35    34    1
    35    36    34   ar
    36    37    36    1
    37    38    36   ar
    38    39    38    1
    39    40     7    1
    40    41     7    1
    41    42    41   ar
    42    43    42    1
    43    44    43    1
    44    45    43    1
    45    46    43    1
    46    47    42   ar
    47    48    47    1
    48    49    47   ar
    49    50    49    1
    50    51    50    1
    51    52    50    1
    52    53    50    1
    53    54    49   ar
    54    55    54    1
    55    56    41   ar
    56    57    56    1
    57    58    57    1
    58    59    57    1
    59    60    57    1
    60    61     4    1
    61    62    61   ar
    62    63    62    1
    63    64    63    1
    64    65    63    1
    65    66    63    1
    66    67    62   ar
    67    68    67    1
    68    69    67   ar
    69    70    69    1
    70    71    70    1
    71    72    70    1
    72    73    70    1
    73    74    69   ar
    74    75    74    1
    75    76    61   ar
    76    77    76    1
    77    78    77    1
    78    79    77    1
    79    80    77    1
    80    81     3    1
    81    82    81    1
    82    83    81    1
    83    84    81    1
    84    85     3    1
    85    86    85    1
    86    87    85    1
    87    88    85    1
    88    89     3    1
    89    90    89    1
    90    91    89    1
    91    92    89    1
    92     6    30    1
    93    11    20   ar
    94    18    20   ar
    95    21    22   ar
    96    27    29   ar
    97    31    40   ar
    98    38    40   ar
    99    54    56   ar
   100    74    76   ar
@<TRIPOS>SUBSTRUCTURE
     1 RES1        1 GROUP             0 ****  ****    0  
@<TRIPOS>CRYSIN
    7.9260   16.6420   27.0610   90.0000   90.3680   90.0000   231     1
