@<TRIPOS>MOLECULE
PIYYIH
    86    88     2     0     0
SMALL
USER_CHARGES
****
Generated from the CSD

@<TRIPOS>ATOM
     1 Fe1      3.0027   6.1149   8.8603   Fe        1 RES1   2.0000
     2 P1       2.7853   3.5292   6.9995   P.3       1 RES1   0.0000
     3 O1       2.2684   4.8955   7.3946   O.2       1 RES1   0.0000
     4 N1       4.0397   4.3413   9.7217   N.ar      1 RES1   0.0000
     5 N2       4.3035   3.2706   7.6383   N.pl3     1 RES1   0.0000
     6 H1       4.9456   3.0489   7.0794   H         1 RES1   0.0000
     7 N3       4.8880   6.4131   7.7146   N.1       1 RES1   0.0000
     8 C1       4.6401   3.3776   8.9967   C.ar      1 RES1   0.0000
     9 C2       5.5823   2.4960   9.5381   C.ar      1 RES1   0.0000
    10 H2       6.0155   1.8504   8.9932   H         1 RES1   0.0000
    11 C3       5.8656   2.5893  10.8882   C.ar      1 RES1   0.0000
    12 H3       6.5091   2.0118  11.2827   H         1 RES1   0.0000
    13 C4       5.2021   3.5344  11.6647   C.ar      1 RES1   0.0000
    14 H4       5.3625   3.5955  12.5993   H         1 RES1   0.0000
    15 C5       4.3057   4.3804  11.0456   C.ar      1 RES1   0.0000
    16 H5       3.8526   5.0240  11.5768   H         1 RES1   0.0000
    17 C6       3.0463   3.3659   5.2167   C.3       1 RES1   0.0000
    18 H6       3.5116   2.4973   5.0450   H         1 RES1   0.0000
    19 C7       3.9375   4.5025   4.6951   C.3       1 RES1   0.0000
    20 H7       4.0292   4.4259   3.7231   H         1 RES1   0.0000
    21 H8       4.8217   4.4418   5.1124   H         1 RES1   0.0000
    22 H9       3.5295   5.3652   4.9174   H         1 RES1   0.0000
    23 C8       1.6952   3.3463   4.4787   C.3       1 RES1   0.0000
    24 H10      1.8510   3.2641   3.5140   H         1 RES1   0.0000
    25 H11      1.2110   4.1789   4.6623   H         1 RES1   0.0000
    26 H12      1.1642   2.5841   4.7899   H         1 RES1   0.0000
    27 C9       1.6731   2.2202   7.5688   C.3       1 RES1   0.0000
    28 H13      0.7868   2.3677   7.1307   H         1 RES1   0.0000
    29 C10      2.1739   0.8344   7.1396   C.3       1 RES1   0.0000
    30 H14      1.5622   0.1468   7.4781   H         1 RES1   0.0000
    31 H15      3.0697   0.6824   7.5064   H         1 RES1   0.0000
    32 H16      2.2095   0.7888   6.1614   H         1 RES1   0.0000
    33 C11      1.4509   2.2801   9.0876   C.3       1 RES1   0.0000
    34 H17      0.7628   1.6302   9.3423   H         1 RES1   0.0000
    35 H18      1.1594   3.1809   9.3405   H         1 RES1   0.0000
    36 H19      2.2892   2.0668   9.5496   H         1 RES1   0.0000
    37 C12      5.8777   6.0641   7.2606   C.1       1 RES1   0.0000
    38 C13      7.1172   5.5486   6.6994   C.3       1 RES1   0.0000
    39 H20      7.0422   4.5788   6.5779   H         1 RES1   0.0000
    40 H21      7.8587   5.7443   7.3097   H         1 RES1   0.0000
    41 H22      7.2853   5.9754   5.8336   H         1 RES1   0.0000
    42 P1B      3.2202   8.7005  10.7210   P.3       1 RES1   0.0000
    43 O1B      3.7370   7.3342  10.3259   O.2       1 RES1   0.0000
    44 N1B      1.9658   7.8884   7.9989   N.ar      1 RES1   0.0000
    45 N2B      1.7019   8.9591  10.0823   N.pl3     1 RES1   0.0000
    46 H1B      1.0599   9.1808  10.6412   H         1 RES1   0.0000
    47 N3B      1.1174   5.8166  10.0059   N.1       1 RES1   0.0000
    48 C1B      1.3654   8.8521   8.7238   C.ar      1 RES1   0.0000
    49 C2B      0.4231   9.7337   8.1825   C.ar      1 RES1   0.0000
    50 H2B     -0.0100  10.3793   8.7274   H         1 RES1   0.0000
    51 C3B      0.1398   9.6404   6.8323   C.ar      1 RES1   0.0000
    52 H3B     -0.5037  10.2179   6.4379   H         1 RES1   0.0000
    53 C4B      0.8033   8.6953   6.0558   C.ar      1 RES1   0.0000
    54 H4B      0.6429   8.6342   5.1212   H         1 RES1   0.0000
    55 C5B      1.6997   7.8493   6.6750   C.ar      1 RES1   0.0000
    56 H5B      2.1528   7.2057   6.1437   H         1 RES1   0.0000
    57 C6B      2.9591   8.8638  12.5038   C.3       1 RES1   0.0000
    58 H6B      2.4938   9.7324  12.6755   H         1 RES1   0.0000
    59 C7B      2.0679   7.7272  13.0255   C.3       1 RES1   0.0000
    60 H7B      1.9762   7.8038  13.9975   H         1 RES1   0.0000
    61 H8B      1.1837   7.7879  12.6082   H         1 RES1   0.0000
    62 H9B      2.4760   6.8645  12.8031   H         1 RES1   0.0000
    63 C8B      4.3102   8.8834  13.2418   C.3       1 RES1   0.0000
    64 H10B     4.1544   8.9656  14.2066   H         1 RES1   0.0000
    65 H11B     4.7944   8.0508  13.0583   H         1 RES1   0.0000
    66 H12B     4.8413   9.6456  12.9307   H         1 RES1   0.0000
    67 C9B      4.3323  10.0095  10.1517   C.3       1 RES1   0.0000
    68 H13B     5.2186   9.8620  10.5898   H         1 RES1   0.0000
    69 C10B     3.8315  11.3953  10.5809   C.3       1 RES1   0.0000
    70 H14B     4.4432  12.0829  10.2425   H         1 RES1   0.0000
    71 H15B     2.9357  11.5473  10.2141   H         1 RES1   0.0000
    72 H16B     3.7959  11.4409  11.5591   H         1 RES1   0.0000
    73 C11B     4.5545   9.9496   8.6329   C.3       1 RES1   0.0000
    74 H17B     5.2426  10.5995   8.3783   H         1 RES1   0.0000
    75 H18B     4.8460   9.0488   8.3800   H         1 RES1   0.0000
    76 H19B     3.7163  10.1629   8.1709   H         1 RES1   0.0000
    77 C12B     0.1277   6.1656  10.4599   C.1       1 RES1   0.0000
    78 C13B    -1.1117   6.6811  11.0211   C.3       1 RES1   0.0000
    79 H20B    -1.0368   7.6509  11.1427   H         1 RES1   0.0000
    80 H21B    -1.8533   6.4854  10.4108   H         1 RES1   0.0000
    81 H22B    -1.2798   6.2543  11.8869   H         1 RES1   0.0000
    82 B1       6.4536   0.8337   6.0200   B         2 RES2  -1.0000
    83 F1       6.5700   2.2366   6.2080   F         2 RES2   0.0000
    84 F2       5.2323   0.6004   5.4211   F         2 RES2   0.0000
    85 F3       7.4769   0.4052   5.1992   F         2 RES2   0.0000
    86 F4       6.5442   0.2107   7.2500   F         2 RES2   0.0000
@<TRIPOS>BOND
     1     1     3    1
     2     2     3    2
     3     4     1    1
     4     5     2    1
     5     6     5    1
     6     7     1    1
     7     8     4   ar
     8     9     8   ar
     9    10     9    1
    10    11     9   ar
    11    12    11    1
    12    13    11   ar
    13    14    13    1
    14    15     4   ar
    15    16    15    1
    16    17     2    1
    17    18    17    1
    18    19    17    1
    19    20    19    1
    20    21    19    1
    21    22    19    1
    22    23    17    1
    23    24    23    1
    24    25    23    1
    25    26    23    1
    26    27     2    1
    27    28    27    1
    28    29    27    1
    29    30    29    1
    30    31    29    1
    31    32    29    1
    32    33    27    1
    33    34    33    1
    34    35    33    1
    35    36    33    1
    36    37     7    3
    37    38    37    1
    38    39    38    1
    39    40    38    1
    40    41    38    1
    41    42    43    2
    42    43     1    1
    43    44     1    1
    44    45    42    1
    45    46    45    1
    46    47     1    1
    47    48    44   ar
    48    49    48   ar
    49    50    49    1
    50    51    49   ar
    51    52    51    1
    52    53    51   ar
    53    54    53    1
    54    55    44   ar
    55    56    55    1
    56    57    42    1
    57    58    57    1
    58    59    57    1
    59    60    59    1
    60    61    59    1
    61    62    59    1
    62    63    57    1
    63    64    63    1
    64    65    63    1
    65    66    63    1
    66    67    42    1
    67    68    67    1
    68    69    67    1
    69    70    69    1
    70    71    69    1
    71    72    69    1
    72    73    67    1
    73    74    73    1
    74    75    73    1
    75    76    73    1
    76    77    47    3
    77    78    77    1
    78    79    78    1
    79    80    78    1
    80    81    78    1
    81     5     8    1
    82    13    15   ar
    83    45    48    1
    84    53    55   ar
    85    82    83    1
    86    84    82    1
    87    85    82    1
    88    86    82    1
@<TRIPOS>SUBSTRUCTURE
     1 RES1        1 GROUP             0 ****  ****    0  
     2 RES2       82 GROUP             0 ****  ****    0  
@<TRIPOS>CRYSIN
    8.0404   12.2297   17.8370   90.0000   96.5510   90.0000    14     1
