@<TRIPOS>MOLECULE
PIZGEN
   115   129     1     0     0
SMALL
NO_CHARGES
****
Generated from the CSD

@<TRIPOS>ATOM
     1 Fe1     -2.9624   9.3760  13.0833   Fe        1 RES1   0.0000
     2 F1      -5.8969  13.7214  11.4626   F         1 RES1   0.0000
     3 F2      -7.4485  15.1363   9.7700   F         1 RES1   0.0000
     4 F3      -7.9465  14.2081   7.2651   F         1 RES1   0.0000
     5 F4      -6.8477  11.8700   6.4605   F         1 RES1   0.0000
     6 F5      -5.2715  10.4521   8.1218   F         1 RES1   0.0000
     7 F6      -0.3409  14.3115  13.4976   F         1 RES1   0.0000
     8 F7       1.8032  15.9163  13.3229   F         1 RES1   0.0000
     9 F8       4.1547  14.9484  12.3723   F         1 RES1   0.0000
    10 F9       4.3367  12.3688  11.5644   F         1 RES1   0.0000
    11 F10      2.2225  10.7409  11.7451   F         1 RES1   0.0000
    12 F11     -1.7206   8.6783  18.2016   F         1 RES1   0.0000
    13 F12     -0.6432   7.5088  20.4148   F         1 RES1   0.0000
    14 F13      0.8785   5.2964  20.1572   F         1 RES1   0.0000
    15 F14      1.4022   4.2643  17.7052   F         1 RES1   0.0000
    16 F15      0.3467   5.4307  15.4948   F         1 RES1   0.0000
    17 F16     -7.6903   8.2791  15.3886   F         1 RES1   0.0000
    18 F17     -9.7435   6.7551  16.2343   F         1 RES1   0.0000
    19 F18    -10.0448   4.2260  15.2684   F         1 RES1   0.0000
    20 F19     -8.3413   3.2886  13.3875   F         1 RES1   0.0000
    21 F20     -6.2881   4.7961  12.5440   F         1 RES1   0.0000
    22 N1      -4.8146   9.2786  12.2987   N.2       1 RES1   0.0000
    23 N2      -2.6166  11.0604  12.0578   N.2       1 RES1   0.0000
    24 N3      -1.1803   9.5829  13.9827   N.2       1 RES1   0.0000
    25 N4      -3.3808   7.8282  14.2491   N.2       1 RES1   0.0000
    26 N5      -3.9351  10.5357  14.6182   N.2       1 RES1   0.0000
    27 N6      -5.6702  11.7356  15.3109   N.pl3     1 RES1   0.0000
    28 C1      -5.5249  12.0464   9.8434   C.ar      1 RES1   0.0000
    29 C2      -6.1027  13.2529  10.2248   C.ar      1 RES1   0.0000
    30 C3      -6.9035  13.9886   9.3731   C.ar      1 RES1   0.0000
    31 C4      -7.1567  13.5122   8.1095   C.ar      1 RES1   0.0000
    32 C5      -6.5974  12.3292   7.6912   C.ar      1 RES1   0.0000
    33 C6      -5.7904  11.6127   8.5613   C.ar      1 RES1   0.0000
    34 C7       0.8541  12.4573  12.6371   C.ar      1 RES1   0.0000
    35 C8       0.8055  13.7969  13.0191   C.ar      1 RES1   0.0000
    36 C9       1.8971  14.6323  12.9456   C.ar      1 RES1   0.0000
    37 C10      3.0914  14.1430  12.4627   C.ar      1 RES1   0.0000
    38 C11      3.1839  12.8402  12.0625   C.ar      1 RES1   0.0000
    39 C12      2.0816  12.0134  12.1530   C.ar      1 RES1   0.0000
    40 C13     -0.6984   7.0984  16.7875   C.ar      1 RES1   0.0000
    41 C14     -0.9384   7.5967  18.0652   C.ar      1 RES1   0.0000
    42 C15     -0.4070   7.0136  19.1909   C.ar      1 RES1   0.0000
    43 C16      0.3820   5.8907  19.0598   C.ar      1 RES1   0.0000
    44 C17      0.6483   5.3707  17.8114   C.ar      1 RES1   0.0000
    45 C18      0.1068   5.9730  16.6973   C.ar      1 RES1   0.0000
    46 C19     -6.9230   6.5934  13.9293   C.ar      1 RES1   0.0000
    47 C20     -7.8340   7.0529  14.8723   C.ar      1 RES1   0.0000
    48 C21     -8.8846   6.2758  15.3145   C.ar      1 RES1   0.0000
    49 C22     -9.0526   5.0006  14.8280   C.ar      1 RES1   0.0000
    50 C23     -8.1807   4.5243  13.8708   C.ar      1 RES1   0.0000
    51 C24     -7.1374   5.3169  13.4402   C.ar      1 RES1   0.0000
    52 C25     -2.3447   8.3339  11.7382   C.2       1 RES1   0.0000
    53 C26     -1.6693   8.8825  10.5363   C.ar      1 RES1   0.0000
    54 C27     -0.2780   9.0399  10.5246   C.ar      1 RES1   0.0000
    55 H1       0.2291   8.8089  11.2942   H         1 RES1   0.0000
    56 C28      0.3659   9.5324   9.3925   C.ar      1 RES1   0.0000
    57 H2       1.3103   9.6347   9.3911   H         1 RES1   0.0000
    58 C29     -0.3674   9.8747   8.2691   C.ar      1 RES1   0.0000
    59 H3       0.0740  10.2103   7.4974   H         1 RES1   0.0000
    60 C30     -1.7493   9.7296   8.2708   C.ar      1 RES1   0.0000
    61 H4      -2.2540   9.9676   7.5022   H         1 RES1   0.0000
    62 C31     -2.3905   9.2348   9.3974   C.ar      1 RES1   0.0000
    63 H5      -3.3358   9.1342   9.3927   H         1 RES1   0.0000
    64 C32     -2.5468   6.8612  11.6832   C.ar      1 RES1   0.0000
    65 C33     -1.7090   6.0091  12.4024   C.ar      1 RES1   0.0000
    66 H6      -1.0172   6.3714  12.9437   H         1 RES1   0.0000
    67 C34     -1.8820   4.6277  12.3319   C.ar      1 RES1   0.0000
    68 H7      -1.3051   4.0541  12.8224   H         1 RES1   0.0000
    69 C35     -2.8799   4.0914  11.5604   C.ar      1 RES1   0.0000
    70 H8      -2.9957   3.1482  11.5211   H         1 RES1   0.0000
    71 C36     -3.7192   4.9227  10.8395   C.ar      1 RES1   0.0000
    72 H9      -4.4076   4.5496  10.3033   H         1 RES1   0.0000
    73 C37     -3.5578   6.3039  10.8961   C.ar      1 RES1   0.0000
    74 H10     -4.1372   6.8694  10.3978   H         1 RES1   0.0000
    75 C38     -4.8030  11.4919  14.3083   C.2       1 RES1   0.0000
    76 H11     -4.8118  11.9521  13.4762   H         1 RES1   0.0000
    77 C39     -5.3421  10.8752  16.3400   C.2       1 RES1   0.0000
    78 H12     -5.7744  10.8034  17.1831   H         1 RES1   0.0000
    79 C40     -4.2727  10.1468  15.9056   C.2       1 RES1   0.0000
    80 H13     -3.8270   9.4746  16.4096   H         1 RES1   0.0000
    81 C41     -6.8291  12.6123  15.2380   C.3       1 RES1   0.0000
    82 H14     -6.6629  13.3185  14.5648   H         1 RES1   0.0000
    83 H15     -6.9634  13.0507  16.1150   H         1 RES1   0.0000
    84 C42     -8.0833  11.8465  14.8633   C.3       1 RES1   0.0000
    85 H16     -7.9731  11.4541  13.9708   H         1 RES1   0.0000
    86 H17     -8.8500  12.4576  14.8594   H         1 RES1   0.0000
    87 H18     -8.2372  11.1338  15.5163   H         1 RES1   0.0000
    88 C43     -5.8078   8.3867  12.6228   C.2       1 RES1   0.0000
    89 C44     -5.3656  10.1132  11.3544   C.2       1 RES1   0.0000
    90 C45     -3.4493  11.6630  11.1386   C.2       1 RES1   0.0000
    91 C46     -1.4464  11.7962  12.0209   C.2       1 RES1   0.0000
    92 C47     -0.1973  10.5081  13.7100   C.2       1 RES1   0.0000
    93 C48     -0.6712   8.8006  15.0007   C.2       1 RES1   0.0000
    94 C49     -2.5965   7.2871  15.2428   C.2       1 RES1   0.0000
    95 C50     -4.5662   7.1325  14.3299   C.2       1 RES1   0.0000
    96 C51     -6.9900   8.6593  11.8476   C.2       1 RES1   0.0000
    97 H19     -7.8102   8.1833  11.8866   H         1 RES1   0.0000
    98 C52     -6.7184   9.7116  11.0604   C.2       1 RES1   0.0000
    99 H20     -7.3045  10.1152  10.4309   H         1 RES1   0.0000
   100 C53     -2.7963  12.7832  10.5207   C.2       1 RES1   0.0000
   101 H21     -3.1651  13.3585   9.8621   H         1 RES1   0.0000
   102 C54     -1.5638  12.8623  11.0519   C.2       1 RES1   0.0000
   103 H22     -0.8949  13.4986  10.8310   H         1 RES1   0.0000
   104 C55      0.9424  10.2949  14.5615   C.2       1 RES1   0.0000
   105 H23      1.7490  10.7959  14.5632   H         1 RES1   0.0000
   106 C56      0.6477   9.2456  15.3583   C.2       1 RES1   0.0000
   107 H24      1.2064   8.8715  16.0299   H         1 RES1   0.0000
   108 C57     -3.2812   6.2115  15.9171   C.2       1 RES1   0.0000
   109 H25     -2.9402   5.6707  16.6207   H         1 RES1   0.0000
   110 C58     -4.4956   6.1252  15.3520   C.2       1 RES1   0.0000
   111 H26     -5.1822   5.5106  15.5857   H         1 RES1   0.0000
   112 C59     -4.7290  11.2296  10.8142   C.2       1 RES1   0.0000
   113 C60     -0.3213  11.5467  12.7839   C.2       1 RES1   0.0000
   114 C61     -1.3322   7.7468  15.5956   C.2       1 RES1   0.0000
   115 C62     -5.7055   7.3980  13.5874   C.2       1 RES1   0.0000
@<TRIPOS>BOND
     1     1    22    1
     2     2    29    1
     3     3    30    1
     4     4    31    1
     5     5    32    1
     6     6    33    1
     7     7    35    1
     8     8    36    1
     9     9    37    1
    10    10    38    1
    11    11    39    1
    12    12    41    1
    13    13    42    1
    14    14    43    1
    15    15    44    1
    16    16    45    1
    17    17    47    1
    18    18    48    1
    19    19    49    1
    20    20    50    1
    21    21    51    1
    22    22    88    1
    23    23     1    1
    24    24     1    1
    25    25     1    1
    26    26     1    1
    27    27    75    1
    28    28    29   ar
    29    29    30   ar
    30    30    31   ar
    31    31    32   ar
    32    32    33   ar
    33    33    28   ar
    34    34    35   ar
    35    35    36   ar
    36    36    37   ar
    37    37    38   ar
    38    38    39   ar
    39    39    34   ar
    40    40    41   ar
    41    41    42   ar
    42    42    43   ar
    43    43    44   ar
    44    44    45   ar
    45    45    40   ar
    46    46    47   ar
    47    47    48   ar
    48    48    49   ar
    49    49    50   ar
    50    50    51   ar
    51    51    46   ar
    52    52     1    2
    53    53    52    1
    54    54    53   ar
    55    55    54    1
    56    56    54   ar
    57    57    56    1
    58    58    56   ar
    59    59    58    1
    60    60    58   ar
    61    61    60    1
    62    62    53   ar
    63    63    62    1
    64    64    52    1
    65    65    64   ar
    66    66    65    1
    67    67    65   ar
    68    68    67    1
    69    69    67   ar
    70    70    69    1
    71    71    69   ar
    72    72    71    1
    73    73    64   ar
    74    74    73    1
    75    75    26    2
    76    76    75    1
    77    77    27    1
    78    78    77    1
    79    79    26    1
    80    80    79    1
    81    81    27    1
    82    82    81    1
    83    83    81    1
    84    84    81    1
    85    85    84    1
    86    86    84    1
    87    87    84    1
    88    88    96    1
    89    89    22    1
    90    90    23    2
    91    91    23    1
    92    92    24    1
    93    93    24    1
    94    94    25    1
    95    95    25    2
    96    96    97    1
    97    98    89    1
    98    99    98    1
    99   100    90    1
   100   101   100    1
   101   102    91    1
   102   103   102    1
   103   104    92    2
   104   105   104    1
   105   106    93    2
   106   107   106    1
   107   108    94    1
   108   109   108    1
   109   110    95    1
   110   111   110    1
   111   112    28    1
   112   113    34    1
   113   114    40    1
   114   115    46    1
   115    60    62   ar
   116    71    73   ar
   117    77    79    2
   118    88   115    2
   119    89   112    2
   120    90   112    1
   121    91   113    2
   122    92   113    1
   123    93   114    1
   124    94   114    2
   125    95   115    1
   126    96    98    2
   127   100   102    2
   128   104   106    1
   129   108   110    2
@<TRIPOS>SUBSTRUCTURE
     1 RES1        1 GROUP             0 ****  ****    0  
@<TRIPOS>CRYSIN
   13.0350   25.0253   16.3164   90.0000  105.0840   90.0000    14     1
