@<TRIPOS>MOLECULE
PODVOT
    27    29     1     0     0
SMALL
NO_CHARGES
****
Generated from the CSD

@<TRIPOS>ATOM
     1 Te1      2.1964   3.4360   3.3689   Te        1 RES1   0.0000
     2 Fe1      2.7493   5.7356   4.5862   Fe        1 RES1   0.0000
     3 P1       4.9036   5.7187   3.8631   P.3       1 RES1   0.0000
     4 P2       1.9579   7.0097   2.9491   P.3       1 RES1   0.0000
     5 C1       5.5007   7.1111   2.7829   C.3       1 RES1   0.0000
     6 C2       5.7393   4.2372   3.1187   C.3       1 RES1   0.0000
     7 C3       5.9725   5.9714   5.3549   C.3       1 RES1   0.0000
     8 C4       0.0913   7.1422   3.0104   C.3       1 RES1   0.0000
     9 C5       2.2973   6.4811   1.1796   C.3       1 RES1   0.0000
    10 C6       2.3534   8.8297   2.8618   C.3       1 RES1   0.0000
    11 C7       7.0326   7.1394   2.4381   C.3       1 RES1   0.0000
    12 C8       5.5348   4.0616   1.6052   C.3       1 RES1   0.0000
    13 C9       1.3306   5.5354   0.5485   C.3       1 RES1   0.0000
    14 C10      1.7232   9.6381   1.7116   C.3       1 RES1   0.0000
    15 Te1F     3.3021   3.4360   5.8036   Te        1 RES1   0.0000
    16 P1F      0.5949   5.7187   5.3094   P.3       1 RES1   0.0000
    17 P2F      3.5406   7.0097   6.2234   P.3       1 RES1   0.0000
    18 C4F      5.4072   7.1422   6.1621   C.3       1 RES1   0.0000
    19 C3F     -0.4740   5.9714   3.8176   C.3       1 RES1   0.0000
    20 C1F     -0.0022   7.1111   6.3896   C.3       1 RES1   0.0000
    21 C2F     -0.2408   4.2372   6.0538   C.3       1 RES1   0.0000
    22 C5F      3.2012   6.4811   7.9929   C.3       1 RES1   0.0000
    23 C6F      3.1451   8.8297   6.3107   C.3       1 RES1   0.0000
    24 C7F     -1.5341   7.1394   6.7344   C.3       1 RES1   0.0000
    25 C8F     -0.0363   4.0616   7.5673   C.3       1 RES1   0.0000
    26 C9F      4.1679   5.5354   8.6240   C.3       1 RES1   0.0000
    27 C10F     3.7753   9.6381   7.4609   C.3       1 RES1   0.0000
@<TRIPOS>BOND
     1     1     2    1
     2     2     3    1
     3     3     5    1
     4     4     2    1
     5     5    11    1
     6     6     3    1
     7     7     3    1
     8     8     4    1
     9     9     4    1
    10    10     4    1
    11    12     6    1
    12    13     9    1
    13    14    10    1
    14    15     1    1
    15    16     2    1
    16    17     2    1
    17    18     7    1
    18    19     8    1
    19    20    16    1
    20    21    16    1
    21    22    17    1
    22    23    17    1
    23    24    20    1
    24    25    21    1
    25    26    22    1
    26    27    23    1
    27     2    15    1
    28    16    19    1
    29    17    18    1
@<TRIPOS>SUBSTRUCTURE
     1 RES1        1 GROUP             0 ****  ****    0  
@<TRIPOS>CRYSIN
   10.9970   14.1570   18.3450   90.0000   90.0000   90.0000    52     2
