@<TRIPOS>MOLECULE
POFJEZ
    89   101     1     0     0
SMALL
USER_CHARGES
****
Generated from the CSD

@<TRIPOS>ATOM
     1 Fe1      4.1518   4.7721   1.6092   Fe        1 RES1   0.0000
     2 N1       2.5144   5.2333   2.6113   N.2       1 RES1   0.0000
     3 N2       5.0411   6.4275   2.2843   N.2       1 RES1   0.0000
     4 N3       5.8078   4.3303   0.5831   N.2       1 RES1   0.0000
     5 N4       3.2447   3.1676   0.8648   N.2       1 RES1   0.0000
     6 N5       4.8579   3.7817   3.1052   N.2       1 RES1   0.0000
     7 N6       4.1871   3.0366   3.7407   N.1       1 RES1   1.0000
     8 N7       3.6093   2.2768   4.3507   N.3       1 RES1  -1.0000
     9 N8       3.4612   5.8037   0.0609   N.2       1 RES1   0.0000
    10 N9       3.3467   7.2601  -1.5639   N.pl3     1 RES1   0.0000
    11 C1       2.2634   6.4348   3.2552   C.2       1 RES1   0.0000
    12 C2       3.1351   7.5101   3.3104   C.2       1 RES1   0.0000
    13 C3       4.4381   7.4809   2.8759   C.2       1 RES1   0.0000
    14 C4       5.3668   8.5490   3.0755   C.2       1 RES1   0.0000
    15 C5       6.5557   8.1387   2.6169   C.2       1 RES1   0.0000
    16 C6       6.3383   6.8134   2.0904   C.2       1 RES1   0.0000
    17 C7       7.2960   6.0780   1.4125   C.2       1 RES1   0.0000
    18 C8       7.0627   4.9007   0.7190   C.2       1 RES1   0.0000
    19 C9       7.9917   4.1677  -0.0651   C.2       1 RES1   0.0000
    20 C10      7.3263   3.2016  -0.7034   C.2       1 RES1   0.0000
    21 C11      5.9559   3.2866  -0.2916   C.2       1 RES1   0.0000
    22 C12      4.9315   2.4127  -0.7204   C.2       1 RES1   0.0000
    23 C13      3.6623   2.3690  -0.1628   C.2       1 RES1   0.0000
    24 C14      2.6370   1.4540  -0.5322   C.2       1 RES1   0.0000
    25 C15      1.6276   1.6360   0.3043   C.2       1 RES1   0.0000
    26 C16      1.9848   2.7016   1.1959   C.2       1 RES1   0.0000
    27 C17      1.1605   3.2259   2.1966   C.2       1 RES1   0.0000
    28 C18      1.4112   4.4444   2.8222   C.2       1 RES1   0.0000
    29 C19      0.4801   5.1265   3.6827   C.2       1 RES1   0.0000
    30 C20      0.9995   6.3547   3.9289   C.2       1 RES1   0.0000
    31 C21      1.7923   9.5806   2.9750   C.ar      1 RES1   0.0000
    32 C22      1.2356  10.7821   3.4180   C.ar      1 RES1   0.0000
    33 C23      1.4375  11.1996   4.7328   C.ar      1 RES1   0.0000
    34 C24      2.1953  10.4180   5.6033   C.ar      1 RES1   0.0000
    35 C25      2.7519   9.2189   5.1603   C.ar      1 RES1   0.0000
    36 C26      2.5500   8.7990   3.8454   C.ar      1 RES1   0.0000
    37 C27      9.5335   6.5658   2.4131   C.ar      1 RES1   0.0000
    38 C28     10.8190   7.1023   2.3240   C.ar      1 RES1   0.0000
    39 C29     11.2311   7.7237   1.1507   C.ar      1 RES1   0.0000
    40 C30     10.3552   7.8111   0.0665   C.ar      1 RES1   0.0000
    41 C31      9.0697   7.2746   0.1557   C.ar      1 RES1   0.0000
    42 C32      8.6589   6.6508   1.3290   C.ar      1 RES1   0.0000
    43 C33      5.4953   1.9006  -3.0967   C.ar      1 RES1   0.0000
    44 C34      5.9301   1.0195  -4.0875   C.ar      1 RES1   0.0000
    45 C35      6.1483  -0.3253  -3.7846   C.ar      1 RES1   0.0000
    46 C36      5.9330  -0.7889  -2.4910   C.ar      1 RES1   0.0000
    47 C37      5.4985   0.0922  -1.5017   C.ar      1 RES1   0.0000
    48 C38      5.2803   1.4345  -1.8045   C.ar      1 RES1   0.0000
    49 C39     -1.3442   2.8278   2.0720   C.ar      1 RES1   0.0000
    50 C40     -2.4787   2.1142   2.4584   C.ar      1 RES1   0.0000
    51 C41     -2.3554   1.0413   3.3387   C.ar      1 RES1   0.0000
    52 C42     -1.0984   0.6845   3.8313   C.ar      1 RES1   0.0000
    53 C43      0.0348   1.3981   3.4449   C.ar      1 RES1   0.0000
    54 C44     -0.0872   2.4710   2.5646   C.ar      1 RES1   0.0000
    55 C45      2.2588   5.7114  -0.5562   C.2       1 RES1   0.0000
    56 C46      2.1668   6.5974  -1.5385   C.2       1 RES1   0.0000
    57 C47      4.0889   6.7333  -0.5930   C.2       1 RES1   0.0000
    58 C48      3.7277   8.3499  -2.5278   C.3       1 RES1   0.0000
    59 H1       5.1738   9.4058   3.4661   H         1 RES1   0.0000
    60 H2       7.3826   7.4130   2.6382   H         1 RES1   0.0000
    61 H3       8.9146   4.3400  -0.0538   H         1 RES1   0.0000
    62 H4       7.6948   2.5657  -1.3219   H         1 RES1   0.0000
    63 H5       2.6673   0.5777  -1.2540   H         1 RES1   0.0000
    64 H6       0.8043   1.1408   0.3100   H         1 RES1   0.0000
    65 H7       0.5973   7.0465   4.4583   H         1 RES1   0.0000
    66 H8       1.0540  12.0515   5.0385   H         1 RES1   0.0000
    67 H9       2.3345  10.7068   6.5077   H         1 RES1   0.0000
    68 H10      3.2747   8.6800   5.7589   H         1 RES1   0.0000
    69 H11      9.2511   6.1362   3.2199   H         1 RES1   0.0000
    70 H12     11.4217   7.0416   3.0712   H         1 RES1   0.0000
    71 H13     12.1153   8.0950   1.0898   H         1 RES1   0.0000
    72 H14     10.6389   8.2407  -0.7402   H         1 RES1   0.0000
    73 H15      8.4679   7.3329  -0.5902   H         1 RES1   0.0000
    74 H16      5.3461   2.8254  -3.3048   H         1 RES1   0.0000
    75 H17      6.0798   1.3399  -4.9763   H         1 RES1   0.0000
    76 H18      6.4485  -0.9297  -4.4653   H         1 RES1   0.0000
    77 H19      6.0822  -1.7137  -2.2829   H         1 RES1   0.0000
    78 H20      5.3484  -0.2282  -0.6114   H         1 RES1   0.0000
    79 H21     -1.4285   3.5657   1.4663   H         1 RES1   0.0000
    80 H22     -3.3431   2.3618   2.1187   H         1 RES1   0.0000
    81 H23     -3.1355   0.5510   3.6048   H         1 RES1   0.0000
    82 H24     -1.0141  -0.0534   4.4370   H         1 RES1   0.0000
    83 H25      0.8992   1.1505   3.7846   H         1 RES1   0.0000
    84 H26      1.5657   5.0925  -0.3170   H         1 RES1   0.0000
    85 H27      1.4107   6.7406  -2.1159   H         1 RES1   0.0000
    86 H28      4.9895   7.0076  -0.3977   H         1 RES1   0.0000
    87 H29      2.9907   8.5271  -3.1180   H         1 RES1   0.0000
    88 H30      4.4886   8.0683  -3.0401   H         1 RES1   0.0000
    89 H31      3.9491   9.1509  -2.0409   H         1 RES1   0.0000
@<TRIPOS>BOND
     1     1     2    1
     2     2    11    2
     3     3     1    1
     4     4     1    1
     5     5     1    1
     6     6     1    1
     7     7     6    2
     8     8     7    2
     9     9     1    1
    10    10    56    1
    11    11    12    1
    12    12    13    2
    13    13     3    1
    14    14    13    1
    15    15    14    2
    16    16     3    1
    17    17    16    2
    18    18     4    2
    19    19    18    1
    20    20    19    2
    21    21     4    1
    22    22    21    2
    23    23     5    1
    24    24    23    2
    25    25    24    1
    26    26     5    1
    27    27    26    1
    28    28     2    1
    29    29    28    1
    30    30    11    1
    31    31    32   ar
    32    32    33   ar
    33    33    34   ar
    34    34    35   ar
    35    35    36   ar
    36    36    12    1
    37    37    38   ar
    38    38    39   ar
    39    39    40   ar
    40    40    41   ar
    41    41    42   ar
    42    42    17    1
    43    43    44   ar
    44    44    45   ar
    45    45    46   ar
    46    46    47   ar
    47    47    48   ar
    48    48    22    1
    49    49    50   ar
    50    50    51   ar
    51    51    52   ar
    52    52    53   ar
    53    53    54   ar
    54    54    27    1
    55    55     9    1
    56    56    55    2
    57    57     9    2
    58    58    10    1
    59    59    14    1
    60    60    15    1
    61    61    19    1
    62    62    20    1
    63    63    24    1
    64    64    25    1
    65    65    30    1
    66    66    33    1
    67    67    34    1
    68    68    35    1
    69    69    37    1
    70    70    38    1
    71    71    39    1
    72    72    40    1
    73    73    41    1
    74    74    43    1
    75    75    44    1
    76    76    45    1
    77    77    46    1
    78    78    47    1
    79    79    49    1
    80    80    50    1
    81    81    51    1
    82    82    52    1
    83    83    53    1
    84    84    55    1
    85    85    56    1
    86    86    57    1
    87    87    58    1
    88    88    58    1
    89    89    58    1
    90    10    57    1
    91    15    16    1
    92    17    18    1
    93    20    21    1
    94    22    23    1
    95    25    26    2
    96    27    28    2
    97    29    30    2
    98    31    36   ar
    99    37    42   ar
   100    43    48   ar
   101    49    54   ar
@<TRIPOS>SUBSTRUCTURE
     1 RES1        1 GROUP             0 ****  ****    0  
@<TRIPOS>CRYSIN
   12.7580   24.2730   14.7550   90.0000  106.4200   90.0000   231     1
