@<TRIPOS>MOLECULE
POKCUO
    80    84     4     0     0
SMALL
USER_CHARGES
****
Generated from the CSD

@<TRIPOS>ATOM
     1 Fe1      6.5319   5.2319  13.6246   Fe        1 RES1   2.0000
     2 C1       7.4530   2.9112  12.4541   C.2       1 RES1   0.0000
     3 H1       7.6907   2.3065  11.7923   H         1 RES1   0.0000
     4 C2       7.6867   2.6693  13.8379   C.ar      1 RES1   0.0000
     5 C3       8.2189   1.5296  14.3849   C.ar      1 RES1   0.0000
     6 H2       8.4742   0.8283  13.8343   H         1 RES1   0.0000
     7 C4       8.3630   1.4119  15.7158   C.ar      1 RES1   0.0000
     8 H3       8.7177   0.6323  16.0877   H         1 RES1   0.0000
     9 C5       7.9700   2.4393  16.5362   C.ar      1 RES1   0.0000
    10 H4       8.0615   2.3754  17.4588   H         1 RES1   0.0000
    11 C6       7.4480   3.5950  15.9492   C.ar      1 RES1   0.0000
    12 H5       7.1821   4.2900  16.5016   H         1 RES1   0.0000
    13 C7       5.8920   5.5326  10.7094   C.2       1 RES1   0.0000
    14 C8       4.7907   6.8724   8.9390   C.ar      1 RES1   0.0000
    15 C9       5.0783   8.1617   9.3073   C.ar      1 RES1   0.0000
    16 H6       5.7476   8.3292   9.9327   H         1 RES1   0.0000
    17 C10      4.3822   9.2009   8.7513   C.ar      1 RES1   0.0000
    18 H7       4.5502  10.0742   9.0193   H         1 RES1   0.0000
    19 C11      3.4097   8.9416   7.7667   C.ar      1 RES1   0.0000
    20 H8       2.9420   9.6416   7.3711   H         1 RES1   0.0000
    21 C12      3.1539   7.6390   7.3839   C.ar      1 RES1   0.0000
    22 H9       2.5089   7.4608   6.7458   H         1 RES1   0.0000
    23 C13      3.8457   6.6134   7.9564   C.ar      1 RES1   0.0000
    24 H10      3.6855   5.7362   7.6847   H         1 RES1   0.0000
    25 C14      5.0764   6.2165  15.7322   C.2       1 RES1   0.0000
    26 H11      4.8659   6.7128  16.4925   H         1 RES1   0.0000
    27 C15      4.1791   5.2269  15.1616   C.ar      1 RES1   0.0000
    28 C16      2.9086   4.9669  15.6265   C.ar      1 RES1   0.0000
    29 H12      2.5721   5.4128  16.3667   H         1 RES1   0.0000
    30 C17      2.1612   4.0191  14.9683   C.ar      1 RES1   0.0000
    31 H13      1.3003   3.8105  15.2709   H         1 RES1   0.0000
    32 C18      2.7004   3.3809  13.8817   C.ar      1 RES1   0.0000
    33 H14      2.2015   2.7424  13.4259   H         1 RES1   0.0000
    34 C19      3.9627   3.7017  13.4551   C.ar      1 RES1   0.0000
    35 H15      4.3082   3.2646  12.7076   H         1 RES1   0.0000
    36 C20      8.2657   7.3494  14.8498   C.2       1 RES1   0.0000
    37 C21     10.4312   8.5362  14.9045   C.ar      1 RES1   0.0000
    38 C22     11.3626   8.7748  15.8981   C.ar      1 RES1   0.0000
    39 H16     11.1268   8.6971  16.8024   H         1 RES1   0.0000
    40 C23     12.6554   9.1189  15.5517   C.ar      1 RES1   0.0000
    41 H17     13.2759   9.3169  16.2044   H         1 RES1   0.0000
    42 C24     13.0077   9.1761  14.2573   C.ar      1 RES1   0.0000
    43 H18     13.8912   9.3648  14.0202   H         1 RES1   0.0000
    44 C25     12.0924   8.9608  13.2727   C.ar      1 RES1   0.0000
    45 H19     12.3441   9.0069  12.3776   H         1 RES1   0.0000
    46 C26     10.7614   8.6553  13.5827   C.ar      1 RES1   0.0000
    47 H20     10.1221   8.5383  12.9263   H         1 RES1   0.0000
    48 N1       6.8665   4.0387  12.1898   N.2       1 RES1   0.0000
    49 N2       7.3088   3.7271  14.6328   N.ar      1 RES1   0.0000
    50 N3       6.5153   4.3531  10.9208   N.am      1 RES1   0.0000
    51 H21      6.6218   3.8488  10.1369   H         1 RES1   0.0000
    52 N4       5.4527   5.7503   9.4568   N.am      1 RES1   0.0000
    53 H22      5.6639   5.0817   8.8242   H         1 RES1   0.0000
    54 N5       6.1723   6.3486  15.0923   N.2       1 RES1   0.0000
    55 N6       4.7209   4.5985  14.0749   N.ar      1 RES1   0.0000
    56 N7       7.0840   7.3040  15.4952   N.am      1 RES1   0.0000
    57 H23      6.8582   7.7590  16.3175   H         1 RES1   0.0000
    58 N8       9.1016   8.2704  15.3311   N.am      1 RES1   0.0000
    59 H24      8.7763   8.5106  16.1898   H         1 RES1   0.0000
    60 S1       5.6801   6.6029  12.0093   S.2       1 RES1   0.0000
    61 S2       8.5679   6.3044  13.5717   S.2       1 RES1   0.0000
    62 C27      6.5963  11.6527  16.7915   C.3       2 RES2   0.0000
    63 F1       5.3697  11.9584  17.0650   F         2 RES2   0.0000
    64 F2       6.5461  11.3024  15.5700   F         2 RES2   0.0000
    65 F3       7.3057  12.7098  16.9355   F         2 RES2   0.0000
    66 S3       7.1681  10.3205  17.8635   S.o2      2 RES2   0.0000
    67 O1       6.3434   9.1903  17.4770   O.3       2 RES2  -1.0000
    68 O2       6.9145  10.7895  19.1634   O.2       2 RES2   0.0000
    69 O3       8.5209  10.1463  17.5353   O.2       2 RES2   0.0000
    70 C28      6.7177   2.9656   5.9071   C.3       3 RES3   0.0000
    71 F4       5.9345   2.4885   4.9390   F         3 RES3   0.0000
    72 F5       6.8086   4.2514   5.7430   F         3 RES3   0.0000
    73 F6       7.8814   2.4644   5.7248   F         3 RES3   0.0000
    74 S4       6.0734   2.5019   7.5133   S.o2      3 RES3   0.0000
    75 O4       4.7713   3.2142   7.5480   O.3       3 RES3  -1.0000
    76 O5       6.0530   1.0990   7.4714   O.2       3 RES3   0.0000
    77 O6       6.9269   3.0861   8.4468   O.2       3 RES3   0.0000
    78 O7       8.8890   1.0044  10.1186   O.3       4 RES4   0.0000
    79 H25      8.4277   0.4567  10.5015   H         4 RES4   0.0000
    80 H26      8.8189   1.0893   9.1524   H         4 RES4   0.0000
@<TRIPOS>BOND
     1     1    48    1
     2     2     3    1
     3     4     2    1
     4     5     4   ar
     5     6     5    1
     6     7     5   ar
     7     8     7    1
     8     9     7   ar
     9    10     9    1
    10    11     9   ar
    11    12    11    1
    12    13    50   am
    13    14    15   ar
    14    15    16    1
    15    17    15   ar
    16    18    17    1
    17    19    17   ar
    18    20    19    1
    19    21    19   ar
    20    22    21    1
    21    23    14   ar
    22    24    23    1
    23    25    26    1
    24    27    25    1
    25    28    27   ar
    26    29    28    1
    27    30    28   ar
    28    31    30    1
    29    32    30   ar
    30    33    32    1
    31    34    32   ar
    32    35    34    1
    33    36    56   am
    34    37    38   ar
    35    38    39    1
    36    40    38   ar
    37    41    40    1
    38    42    40   ar
    39    43    42    1
    40    44    42   ar
    41    45    44    1
    42    46    37   ar
    43    47    46    1
    44    48     2    2
    45    49     1    1
    46    50    48    1
    47    51    50    1
    48    52    13   am
    49    53    52    1
    50    54     1    1
    51    55     1    1
    52    56    54    1
    53    57    56    1
    54    58    36   am
    55    59    58    1
    56    60     1    1
    57    61     1    1
    58     4    49   ar
    59    11    49   ar
    60    13    60    2
    61    14    52    1
    62    21    23   ar
    63    25    54    2
    64    27    55   ar
    65    34    55   ar
    66    36    61    2
    67    37    58    1
    68    44    46   ar
    69    62    63    1
    70    64    62    1
    71    65    62    1
    72    66    62    1
    73    67    66    1
    74    68    66    2
    75    69    66    2
    76    70    71    1
    77    72    70    1
    78    73    70    1
    79    74    70    1
    80    75    74    1
    81    76    74    2
    82    77    74    2
    83    78    79    1
    84    80    78    1
@<TRIPOS>SUBSTRUCTURE
     1 RES1        1 GROUP             0 ****  ****    0  
     2 RES2       62 GROUP             0 ****  ****    0  
     3 RES3       70 GROUP             0 ****  ****    0  
     4 RES4       78 GROUP             0 ****  ****    0  
@<TRIPOS>CRYSIN
    9.1000   11.3930   18.5630   80.0220   83.3970   75.1800     2     1
