@<TRIPOS>MOLECULE
POLXEV
    97   101     5     0     0
SMALL
USER_CHARGES
****
Generated from the CSD

@<TRIPOS>ATOM
     1 C1       5.6895   9.1287  13.0592   C.3       1 RES1   0.0000
     2 H1       5.6239   8.4628  13.7482   H         1 RES1   0.0000
     3 H2       4.9060   9.0959  12.5069   H         1 RES1   0.0000
     4 H3       5.7630   9.9981  13.4613   H         1 RES1   0.0000
     5 O1       6.8018   8.8843  12.2930   O.3       1 RES1   0.0000
     6 H4       7.4668   9.1676  12.6775   H         1 RES1   0.0000
     7 C2       9.3663  11.2406   6.2273   C.ar      2 RES2   0.0000
     8 H5       9.6771  10.3839   6.0402   H         2 RES2   0.0000
     9 C3       9.9997  11.9777   7.2146   C.ar      2 RES2   0.0000
    10 H6      10.7170  11.6133   7.6809   H         2 RES2   0.0000
    11 C4       9.5603  13.2708   7.5093   C.ar      2 RES2   0.0000
    12 C5       8.4921  13.7701   6.7681   C.ar      2 RES2   0.0000
    13 H7       8.1808  14.6331   6.9229   H         2 RES2   0.0000
    14 C6       7.8913  12.9737   5.7926   C.ar      2 RES2   0.0000
    15 C7       6.7478  13.3966   4.9665   C.ar      2 RES2   0.0000
    16 C8       6.1821  14.6593   4.9976   C.ar      2 RES2   0.0000
    17 H8       6.5300  15.3068   5.5678   H         2 RES2   0.0000
    18 C9       5.0964  14.9687   4.1815   C.ar      2 RES2   0.0000
    19 C10      4.5940  13.9442   3.3774   C.ar      2 RES2   0.0000
    20 H9       3.8473  14.0943   2.8414   H         2 RES2   0.0000
    21 C11      5.2070  12.7045   3.3787   C.ar      2 RES2   0.0000
    22 H10      4.8618  12.0381   2.8292   H         2 RES2   0.0000
    23 C12     10.2074  14.0801   8.5920   C.3       2 RES2   0.0000
    24 H11      9.8221  13.8470   9.4394   H         2 RES2   0.0000
    25 H12     10.0655  15.0141   8.4214   H         2 RES2   0.0000
    26 H13     11.1496  13.8961   8.6069   H         2 RES2   0.0000
    27 C13      4.5122  16.3495   4.1586   C.3       2 RES2   0.0000
    28 H14      5.0181  16.9006   3.5575   H         2 RES2   0.0000
    29 H15      4.5431  16.7250   5.0412   H         2 RES2   0.0000
    30 H16      3.6001  16.3057   3.8621   H         2 RES2   0.0000
    31 C14      9.4004  12.5080   2.7893   C.ar      2 RES2   0.0000
    32 H17      9.6491  12.7713   3.6455   H         2 RES2   0.0000
    33 C15     10.0450  13.0883   1.7111   C.ar      2 RES2   0.0000
    34 H18     10.7139  13.7190   1.8532   H         2 RES2   0.0000
    35 C16      9.6936  12.7291   0.4156   C.ar      2 RES2   0.0000
    36 C17      8.6869  11.7677   0.2711   C.ar      2 RES2   0.0000
    37 H19      8.4175  11.4972  -0.5767   H         2 RES2   0.0000
    38 C18      8.0892  11.2186   1.3981   C.ar      2 RES2   0.0000
    39 C19      7.0222  10.2139   1.3483   C.ar      2 RES2   0.0000
    40 C20      6.6330   9.5669   0.1773   C.ar      2 RES2   0.0000
    41 H20      7.0482   9.7697  -0.6295   H         2 RES2   0.0000
    42 C21      5.6168   8.6147   0.2234   C.ar      2 RES2   0.0000
    43 C22      5.0243   8.3595   1.4566   C.ar      2 RES2   0.0000
    44 H21      4.3353   7.7395   1.5229   H         2 RES2   0.0000
    45 C23      5.4627   9.0307   2.5896   C.ar      2 RES2   0.0000
    46 H22      5.0539   8.8475   3.4046   H         2 RES2   0.0000
    47 C24     10.3833  13.3097  -0.7824   C.3       2 RES2   0.0000
    48 H23     11.1737  12.7997  -0.9747   H         2 RES2   0.0000
    49 H24     10.6288  14.2212  -0.5997   H         2 RES2   0.0000
    50 H25      9.7922  13.2830  -1.5378   H         2 RES2   0.0000
    51 C25      5.1845   7.8988  -1.0302   C.3       2 RES2   0.0000
    52 H26      5.4384   6.9746  -0.9733   H         2 RES2   0.0000
    53 H27      5.6095   8.3017  -1.7910   H         2 RES2   0.0000
    54 H28      4.2321   7.9647  -1.1236   H         2 RES2   0.0000
    55 C26      9.5208   8.8283   3.5215   C.ar      2 RES2   0.0000
    56 H29      9.8869   9.4758   2.9633   H         2 RES2   0.0000
    57 C27     10.1281   7.5849   3.5873   C.ar      2 RES2   0.0000
    58 H30     10.8942   7.4155   3.0892   H         2 RES2   0.0000
    59 C28      9.5911   6.5907   4.3995   C.ar      2 RES2   0.0000
    60 C29      8.4820   6.9275   5.1779   C.ar      2 RES2   0.0000
    61 H31      8.1152   6.3020   5.7600   H         2 RES2   0.0000
    62 C30      7.9304   8.1939   5.0837   C.ar      2 RES2   0.0000
    63 C31      6.7625   8.6428   5.8583   C.ar      2 RES2   0.0000
    64 C32      6.2161   7.9361   6.9215   C.ar      2 RES2   0.0000
    65 H32      6.5893   7.1244   7.1814   H         2 RES2   0.0000
    66 C33      5.1107   8.4446   7.6011   C.ar      2 RES2   0.0000
    67 C34      4.5677   9.6403   7.1381   C.ar      2 RES2   0.0000
    68 H33      3.8065   9.9936   7.5388   H         2 RES2   0.0000
    69 C35      5.1669  10.3037   6.0804   C.ar      2 RES2   0.0000
    70 H34      4.7935  11.1036   5.7885   H         2 RES2   0.0000
    71 C36     10.1595   5.2002   4.4199   C.3       2 RES2   0.0000
    72 H35     11.0016   5.1908   3.9596   H         2 RES2   0.0000
    73 H36      9.5497   4.5996   3.9840   H         2 RES2   0.0000
    74 H37     10.2883   4.9204   5.3282   H         2 RES2   0.0000
    75 C37      4.5539   7.7315   8.8005   C.3       2 RES2   0.0000
    76 H38      4.7337   6.7918   8.7260   H         2 RES2   0.0000
    77 H39      3.6054   7.8728   8.8438   H         2 RES2   0.0000
    78 H40      4.9649   8.0753   9.5964   H         2 RES2   0.0000
    79 N1       6.2811  12.4165   4.1386   N.ar      2 RES2   0.0000
    80 N2       8.3142  11.7170   5.5247   N.ar      2 RES2   0.0000
    81 N3       8.4345  11.5860   2.6621   N.ar      2 RES2   0.0000
    82 N4       6.4601   9.9382   2.5511   N.ar      2 RES2   0.0000
    83 N5       8.4256   9.1353   4.2322   N.ar      2 RES2   0.0000
    84 N6       6.2711   9.8412   5.4537   N.ar      2 RES2   0.0000
    85 Fe1      7.3517  10.7763   4.0998   Fe        2 RES2   2.0000
    86 C38      7.4717   2.5866   2.8644   C.1       3 RES3   0.0000
    87 N7       8.5220   2.4671   2.4177   N.1       3 RES3   0.0000
    88 Se1      5.8221   2.7265   3.5504   Se        3 RES3  -1.0000
    89 C39     12.3598   9.7946   5.1184   C.1       4 RES4   0.0000
    90 N8      11.9705   9.3698   6.1580   N.1       4 RES4   0.0000
    91 Se2     12.8453  10.3724   3.5146   Se        4 RES4  -1.0000
    92 C40     10.5472   2.1365  -0.2870   C.3       5 RES5   0.0000
    93 H41      9.9003   2.7604  -0.6227   H         5 RES5   0.0000
    94 H42     10.1793   1.2505  -0.3073   H         5 RES5   0.0000
    95 H43     11.3365   2.1680  -0.8339   H         5 RES5   0.0000
    96 O2      10.8724   2.4664   1.0017   O.3       5 RES5   0.0000
    97 H44     10.2358   2.3088   1.4931   H         5 RES5   0.0000
@<TRIPOS>BOND
     1     1     2    1
     2     3     1    1
     3     4     1    1
     4     5     1    1
     5     6     5    1
     6     7     8    1
     7     9     7   ar
     8    10     9    1
     9    11     9   ar
    10    12    11   ar
    11    13    12    1
    12    14    12   ar
    13    15    14    1
    14    16    15   ar
    15    17    16    1
    16    18    16   ar
    17    19    18   ar
    18    20    19    1
    19    21    19   ar
    20    22    21    1
    21    23    11    1
    22    24    23    1
    23    25    23    1
    24    26    23    1
    25    27    18    1
    26    28    27    1
    27    29    27    1
    28    30    27    1
    29    31    32    1
    30    33    31   ar
    31    34    33    1
    32    35    33   ar
    33    36    35   ar
    34    37    36    1
    35    38    36   ar
    36    39    38    1
    37    40    39   ar
    38    41    40    1
    39    42    40   ar
    40    43    42   ar
    41    44    43    1
    42    45    43   ar
    43    46    45    1
    44    47    35    1
    45    48    47    1
    46    49    47    1
    47    50    47    1
    48    51    42    1
    49    52    51    1
    50    53    51    1
    51    54    51    1
    52    55    56    1
    53    57    55   ar
    54    58    57    1
    55    59    57   ar
    56    60    59   ar
    57    61    60    1
    58    62    60   ar
    59    63    62    1
    60    64    63   ar
    61    65    64    1
    62    66    64   ar
    63    67    66   ar
    64    68    67    1
    65    69    67   ar
    66    70    69    1
    67    71    59    1
    68    72    71    1
    69    73    71    1
    70    74    71    1
    71    75    66    1
    72    76    75    1
    73    77    75    1
    74    78    75    1
    75    79    15   ar
    76    80     7   ar
    77    81    31   ar
    78    82    39   ar
    79    83    55   ar
    80    84    63   ar
    81    85    79    1
    82    14    80   ar
    83    21    79   ar
    84    38    81   ar
    85    45    82   ar
    86    62    83   ar
    87    69    84   ar
    88    80    85    1
    89    81    85    1
    90    82    85    1
    91    83    85    1
    92    84    85    1
    93    86    87    3
    94    88    86    1
    95    89    90    3
    96    91    89    1
    97    92    93    1
    98    94    92    1
    99    95    92    1
   100    96    92    1
   101    97    96    1
@<TRIPOS>SUBSTRUCTURE
     1 RES1        1 GROUP             0 ****  ****    0  
     2 RES2        7 GROUP             0 ****  ****    0  
     3 RES3       86 GROUP             0 ****  ****    0  
     4 RES4       89 GROUP             0 ****  ****    0  
     5 RES5       92 GROUP             0 ****  ****    0  
@<TRIPOS>CRYSIN
   10.5940   14.2967   14.5177   84.8660   68.8300   77.3390     2     1
