@<TRIPOS>MOLECULE
POMSIU
    92    97     1     0     0
SMALL
NO_CHARGES
****
Generated from the CSD

@<TRIPOS>ATOM
     1 Fe1      5.5873  19.4034  -0.0524   Fe        1 RES1   0.0000
     2 P1       6.9031  17.9378   1.0322   P.3       1 RES1   0.0000
     3 P2       3.8479  19.2123   1.3782   P.3       1 RES1   0.0000
     4 P3       7.3282  20.3695  -1.1837   P.3       1 RES1   0.0000
     5 P4       4.5753  18.0488  -1.5942   P.3       1 RES1   0.0000
     6 C1       6.2209  20.6957   1.3581   C.ar      1 RES1   0.0000
     7 C2       7.2701  20.3164   2.2569   C.ar      1 RES1   0.0000
     8 C3       7.8285  19.0266   2.1883   C.ar      1 RES1   0.0000
     9 C4       8.8641  18.6613   3.0166   C.ar      1 RES1   0.0000
    10 H1       9.2287  17.8068   2.9509   H         1 RES1   0.0000
    11 C5       9.3695  19.5617   3.9540   C.ar      1 RES1   0.0000
    12 H2      10.0843  19.3121   4.4930   H         1 RES1   0.0000
    13 C6       8.8311  20.7916   4.0836   C.ar      1 RES1   0.0000
    14 H3       9.1693  21.3705   4.7260   H         1 RES1   0.0000
    15 C7       7.7591  21.2148   3.2590   C.ar      1 RES1   0.0000
    16 C8       7.1655  22.4746   3.3886   C.ar      1 RES1   0.0000
    17 H4       7.4687  23.0656   4.0385   H         1 RES1   0.0000
    18 C9       6.1418  22.8320   2.5640   C.ar      1 RES1   0.0000
    19 H5       5.7305  23.6605   2.6729   H         1 RES1   0.0000
    20 C10      5.6983  21.9595   1.5440   C.ar      1 RES1   0.0000
    21 H6       5.0245  22.2490   0.9730   H         1 RES1   0.0000
    22 C11      4.6422  20.7416  -1.0500   C.1       1 RES1   0.0000
    23 C12      4.0610  21.5342  -1.7901   C.1       1 RES1   0.0000
    24 C13      3.3333  22.4067  -2.6335   C.ar      1 RES1   0.0000
    25 C14      3.8924  22.9558  -3.7962   C.ar      1 RES1   0.0000
    26 H7       4.7714  22.7521  -4.0216   H         1 RES1   0.0000
    27 C15      3.1620  23.7943  -4.6170   C.ar      1 RES1   0.0000
    28 H8       3.5585  24.1616  -5.3721   H         1 RES1   0.0000
    29 C16      1.8643  24.0878  -4.3259   C.ar      1 RES1   0.0000
    30 H9       1.3726  24.6428  -4.8875   H         1 RES1   0.0000
    31 C17      1.2887  23.5667  -3.2045   C.ar      1 RES1   0.0000
    32 H10      0.4002  23.7584  -3.0091   H         1 RES1   0.0000
    33 C18      2.0145  22.7541  -2.3555   C.ar      1 RES1   0.0000
    34 H11      1.6139  22.4307  -1.5816   H         1 RES1   0.0000
    35 C19      9.0635  20.0788  -0.6950   C.3       1 RES1   0.0000
    36 H12      9.2697  19.1444  -0.7852   H         1 RES1   0.0000
    37 H13      9.1882  20.3463   0.2179   H         1 RES1   0.0000
    38 H14      9.6464  20.5919  -1.2604   H         1 RES1   0.0000
    39 C20      7.3871  22.1991  -1.1120   C.3       1 RES1   0.0000
    40 H15      7.9607  22.5285  -1.8089   H         1 RES1   0.0000
    41 H16      7.7305  22.4766  -0.2592   H         1 RES1   0.0000
    42 H17      6.5030  22.5545  -1.2322   H         1 RES1   0.0000
    43 C21      7.5027  20.2086  -2.9941   C.3       1 RES1   0.0000
    44 H18      8.2636  20.7137  -3.2890   H         1 RES1   0.0000
    45 H19      6.7120  20.5420  -3.4243   H         1 RES1   0.0000
    46 H20      7.6245  19.2842  -3.2233   H         1 RES1   0.0000
    47 C22      5.0994  18.0304  -3.3641   C.3       1 RES1   0.0000
    48 H21      6.0009  17.7050  -3.4261   H         1 RES1   0.0000
    49 H22      5.0536  18.9188  -3.7210   H         1 RES1   0.0000
    50 H23      4.5164  17.4534  -3.8638   H         1 RES1   0.0000
    51 C23      2.7976  18.3838  -1.9141   C.3       1 RES1   0.0000
    52 H24      2.4730  17.7748  -2.5809   H         1 RES1   0.0000
    53 H25      2.6928  19.2842  -2.2240   H         1 RES1   0.0000
    54 H26      2.2990  18.2640  -1.1026   H         1 RES1   0.0000
    55 C24      4.4951  16.2435  -1.3430   C.3       1 RES1   0.0000
    56 H27      4.1526  16.0578  -0.4640   H         1 RES1   0.0000
    57 H28      5.3744  15.8682  -1.4294   H         1 RES1   0.0000
    58 H29      3.9147  15.8542  -2.0005   H         1 RES1   0.0000
    59 C25      4.1211  19.5258   3.1613   C.3       1 RES1   0.0000
    60 H30      4.3702  20.4422   3.2928   H         1 RES1   0.0000
    61 H31      4.8221  18.9548   3.4844   H         1 RES1   0.0000
    62 H32      3.3127  19.3421   3.6459   H         1 RES1   0.0000
    63 C26      2.9229  17.6451   1.5741   C.3       1 RES1   0.0000
    64 H33      2.2993  17.7289   2.2991   H         1 RES1   0.0000
    65 H34      3.5378  16.9323   1.7619   H         1 RES1   0.0000
    66 H35      2.4459  17.4514   0.7645   H         1 RES1   0.0000
    67 C27      2.4859  20.4042   1.1270   C.3       1 RES1   0.0000
    68 H36      1.7989  20.2465   1.7788   H         1 RES1   0.0000
    69 H37      2.1230  20.2944   0.2461   H         1 RES1   0.0000
    70 H38      2.8214  21.2987   1.2266   H         1 RES1   0.0000
    71 C28      6.3640  16.5889   2.1883   C.ar      1 RES1   0.0000
    72 C29      6.2776  16.7946   3.5802   C.ar      1 RES1   0.0000
    73 H39      6.5019  17.6231   3.9389   H         1 RES1   0.0000
    74 C30      5.8613  15.7783   4.4141   C.ar      1 RES1   0.0000
    75 H40      5.8046  15.9261   5.3308   H         1 RES1   0.0000
    76 C31      5.5305  14.5545   3.9032   C.ar      1 RES1   0.0000
    77 H41      5.2509  13.8777   4.4761   H         1 RES1   0.0000
    78 C32      5.6056  14.3129   2.5508   C.ar      1 RES1   0.0000
    79 H42      5.3701  13.4804   2.2071   H         1 RES1   0.0000
    80 C33      6.0423  15.3351   1.6980   C.ar      1 RES1   0.0000
    81 H43      6.1177  15.1674   0.7852   H         1 RES1   0.0000
    82 C34      8.1372  16.9263   0.1014   C.ar      1 RES1   0.0000
    83 C35      8.0983  16.9283  -1.2867   C.ar      1 RES1   0.0000
    84 H44      7.4670  17.4494  -1.7281   H         1 RES1   0.0000
    85 C36      8.9806  16.1697  -2.0211   C.ar      1 RES1   0.0000
    86 H45      8.9273  16.1776  -2.9509   H         1 RES1   0.0000
    87 C37      9.9292  15.4090  -1.4163   C.ar      1 RES1   0.0000
    88 H46     10.5302  14.9119  -1.9216   H         1 RES1   0.0000
    89 C38      9.9867  15.3810  -0.0413   C.ar      1 RES1   0.0000
    90 H47     10.6246  14.8560   0.3832   H         1 RES1   0.0000
    91 C39      9.1048  16.1317   0.7081   C.ar      1 RES1   0.0000
    92 H48      9.1584  16.1058   1.6361   H         1 RES1   0.0000
@<TRIPOS>BOND
     1     1     2    1
     2     2     8    1
     3     3     1    1
     4     4     1    1
     5     5     1    1
     6     6     1    1
     7     7     6   ar
     8     8     7   ar
     9     9     8   ar
    10    10     9    1
    11    11     9   ar
    12    12    11    1
    13    13    11   ar
    14    14    13    1
    15    15     7   ar
    16    16    15   ar
    17    17    16    1
    18    18    16   ar
    19    19    18    1
    20    20     6   ar
    21    21    20    1
    22    22     1    1
    23    23    22    3
    24    24    23    1
    25    25    24   ar
    26    26    25    1
    27    27    25   ar
    28    28    27    1
    29    29    27   ar
    30    30    29    1
    31    31    29   ar
    32    32    31    1
    33    33    24   ar
    34    34    33    1
    35    35     4    1
    36    36    35    1
    37    37    35    1
    38    38    35    1
    39    39     4    1
    40    40    39    1
    41    41    39    1
    42    42    39    1
    43    43     4    1
    44    44    43    1
    45    45    43    1
    46    46    43    1
    47    47     5    1
    48    48    47    1
    49    49    47    1
    50    50    47    1
    51    51     5    1
    52    52    51    1
    53    53    51    1
    54    54    51    1
    55    55     5    1
    56    56    55    1
    57    57    55    1
    58    58    55    1
    59    59     3    1
    60    60    59    1
    61    61    59    1
    62    62    59    1
    63    63     3    1
    64    64    63    1
    65    65    63    1
    66    66    63    1
    67    67     3    1
    68    68    67    1
    69    69    67    1
    70    70    67    1
    71    71     2    1
    72    72    71   ar
    73    73    72    1
    74    74    72   ar
    75    75    74    1
    76    76    74   ar
    77    77    76    1
    78    78    76   ar
    79    79    78    1
    80    80    71   ar
    81    81    80    1
    82    82     2    1
    83    83    82   ar
    84    84    83    1
    85    85    83   ar
    86    86    85    1
    87    87    85   ar
    88    88    87    1
    89    89    87   ar
    90    90    89    1
    91    91    82   ar
    92    92    91    1
    93    13    15   ar
    94    18    20   ar
    95    31    33   ar
    96    78    80   ar
    97    89    91   ar
@<TRIPOS>SUBSTRUCTURE
     1 RES1        1 GROUP             0 ****  ****    0  
@<TRIPOS>CRYSIN
    9.6667   19.9650   19.0350   90.0000   99.3220   90.0000     9     1
