@<TRIPOS>MOLECULE
POMYIC01
    89    96     3     0     0
SMALL
USER_CHARGES
****
Generated from the CSD

@<TRIPOS>ATOM
     1 As1      2.1252   2.1632   7.3725   As        1 RES1  -1.0000
     2 F1       3.2505   1.0496   7.9194   F         1 RES1   0.0000
     3 F2       3.3933   3.0889   6.7715   F         1 RES1   0.0000
     4 F3       1.0069   3.3395   6.9926   F         1 RES1   0.0000
     5 F4       0.9074   1.2905   8.0520   F         1 RES1   0.0000
     6 F5       2.3187   2.9207   8.8066   F         1 RES1   0.0000
     7 F6       1.9742   1.3795   5.9773   F         1 RES1   0.0000
     8 Fe1      5.3180   5.1660   3.6852   Fe        2 RES2   2.0000
     9 Cl1      2.2052   6.7136   8.4486   Cl        2 RES2   0.0000
    10 Cl2     10.1801   8.0928   2.5412   Cl        2 RES2   0.0000
    11 O1       5.6105   5.5357   5.7380   O.2       2 RES2   0.0000
    12 O2       5.8950   7.0591   2.9223   O.2       2 RES2   0.0000
    13 N1       3.4420   5.9578   5.8340   N.am      2 RES2   0.0000
    14 N2       3.4314   5.6909   4.5032   N.2       2 RES2   0.0000
    15 N3       3.8879   4.9551   2.1007   N.ar      2 RES2   0.0000
    16 N4       7.3429   4.9874   3.1144   N.2       2 RES2   0.0000
    17 N5       5.8301   3.0727   3.7913   N.ar      2 RES2   0.0000
    18 N6       7.9194   6.1470   2.6708   N.am      2 RES2   0.0000
    19 N7       0.8440   6.5076   5.3873   N.ar      2 RES2   0.0000
    20 C1       4.6419   5.8898   6.4133   C.2       2 RES2   0.0000
    21 C2       2.6427   5.3643   2.3690   C.ar      2 RES2   0.0000
    22 C3       7.0732   7.1917   2.5793   C.2       2 RES2   0.0000
    23 C4       2.3490   5.5810   3.8065   C.2       2 RES2   0.0000
    24 C5       4.8435   6.2375   7.8493   C.ar      2 RES2   0.0000
    25 C6       7.9628   3.8700   3.1327   C.2       2 RES2   0.0000
    26 N8      10.1367   4.7546   2.9178   N.ar      2 RES2   0.0000
    27 C7       9.3761   3.6840   2.7470   C.ar      2 RES2   0.0000
    28 C8       7.1043   2.7525   3.6312   C.ar      2 RES2   0.0000
    29 C9       0.9842   5.6828   4.3370   C.ar      2 RES2   0.0000
    30 C10      3.8914   6.5707   8.8005   C.ar      2 RES2   0.0000
    31 C11      4.9966   2.1282   4.2455   C.ar      2 RES2   0.0000
    32 H1       4.0974   2.3429   4.3428   H         2 RES2   0.0000
    33 C12      7.5263   8.4838   2.0046   C.ar      2 RES2   0.0000
    34 C13      6.1755   6.2214   8.2548   C.ar      2 RES2   0.0000
    35 H2       6.8389   6.0061   7.6387   H         2 RES2   0.0000
    36 C14     -0.0660   4.9438   3.8355   C.ar      2 RES2   0.0000
    37 H3       0.0572   4.3715   3.1128   H         2 RES2   0.0000
    38 C15      1.7382   5.6165   1.3445   C.ar      2 RES2   0.0000
    39 H4       0.8743   5.9026   1.5366   H         2 RES2   0.0000
    40 C16      4.2553   4.7756   0.8339   C.ar      2 RES2   0.0000
    41 H5       5.1254   4.5062   0.6464   H         2 RES2   0.0000
    42 C17      4.2912   6.8553  10.1070   C.ar      2 RES2   0.0000
    43 H6       3.6473   7.0823  10.7392   H         2 RES2   0.0000
    44 C18      5.4010   0.8684   4.5733   C.ar      2 RES2   0.0000
    45 H7       4.7840   0.2354   4.8655   H         2 RES2   0.0000
    46 C19      5.5809   6.8116  10.4744   C.ar      2 RES2   0.0000
    47 H8       5.8220   6.9783  11.3562   H         2 RES2   0.0000
    48 C20      6.5287   6.5222   9.5536   C.ar      2 RES2   0.0000
    49 H9       7.4249   6.5253   9.7998   H         2 RES2   0.0000
    50 C21      9.8556   2.5325   2.1799   C.ar      2 RES2   0.0000
    51 H10      9.2869   1.8277   1.9665   H         2 RES2   0.0000
    52 C22      6.5136   9.2649   1.4863   C.ar      2 RES2   0.0000
    53 H11      5.6349   8.9639   1.5338   H         2 RES2   0.0000
    54 C23      8.8293   8.9609   1.9116   C.ar      2 RES2   0.0000
    55 C24      9.0777  10.2078   1.3506   C.ar      2 RES2   0.0000
    56 H12      9.9470  10.5341   1.3092   H         2 RES2   0.0000
    57 C25      2.1365   5.4386   0.0640   C.ar      2 RES2   0.0000
    58 H13      1.5521   5.6344  -0.6329   H         2 RES2   0.0000
    59 C26     -0.3748   6.6208   5.9194   C.ar      2 RES2   0.0000
    60 H14     -0.4866   7.1894   6.6473   H         2 RES2   0.0000
    61 C27     -1.2876   5.0732   4.4209   C.ar      2 RES2   0.0000
    62 H15     -2.0040   4.5656   4.1158   H         2 RES2   0.0000
    63 C28      3.3697   4.9826  -0.2104   C.ar      2 RES2   0.0000
    64 H16      3.6253   4.8096  -1.0873   H         2 RES2   0.0000
    65 C29     12.0132   3.5255   2.1784   C.ar      2 RES2   0.0000
    66 H17     12.9337   3.4763   2.0526   H         2 RES2   0.0000
    67 C30     11.4405   4.6575   2.6053   C.ar      2 RES2   0.0000
    68 H18     11.9719   5.4163   2.6898   H         2 RES2   0.0000
    69 C31      7.6002   1.5153   4.0062   C.ar      2 RES2   0.0000
    70 H19      8.5101   1.3353   3.9508   H         2 RES2   0.0000
    71 C32     -1.4619   5.9497   5.4590   C.ar      2 RES2   0.0000
    72 H20     -2.3023   6.0816   5.8375   H         2 RES2   0.0000
    73 C33      6.7188   0.5515   4.4681   C.ar      2 RES2   0.0000
    74 H21      7.0228  -0.2960   4.6995   H         2 RES2   0.0000
    75 C34     11.2289   2.4565   1.9376   C.ar      2 RES2   0.0000
    76 H22     11.6004   1.6709   1.6080   H         2 RES2   0.0000
    77 C35      6.7834  10.4795   0.9009   C.ar      2 RES2   0.0000
    78 H23      6.0935  10.9804   0.5287   H         2 RES2   0.0000
    79 C36      8.0532  10.9468   0.8644   C.ar      2 RES2   0.0000
    80 H24      8.2231  11.7852   0.5021   H         2 RES2   0.0000
    81 H25      2.7788   6.3556   6.1892   H         2 RES2   0.0000
    82 H26      8.8221   6.1939   2.7287   H         2 RES2   0.0000
    83 As2      6.3326   1.6969  -0.8615   As        3 RES3  -1.0000
    84 F7       5.8065   3.1891  -1.4619   F         3 RES3   0.0000
    85 F8       6.8264   0.1941  -0.2531   F         3 RES3   0.0000
    86 F9       5.1626   1.7886   0.3613   F         3 RES3   0.0000
    87 F10      7.3954   1.5800  -2.1007   F         3 RES3   0.0000
    88 F11      5.1937   0.9331  -1.7241   F         3 RES3   0.0000
    89 F12      7.3700   2.4905   0.0732   F         3 RES3   0.0000
@<TRIPOS>BOND
     1     1     2    1
     2     3     1    1
     3     4     1    1
     4     5     1    1
     5     6     1    1
     6     7     1    1
     7     8    11    1
     8     9    30    1
     9    10    54    1
    10    11    20    2
    11    12     8    1
    12    13    14    1
    13    14     8    1
    14    15     8    1
    15    16     8    1
    16    17     8    1
    17    18    16    1
    18    19    29   ar
    19    20    13   am
    20    21    15   ar
    21    22    12    2
    22    23    14    2
    23    24    20    1
    24    25    16    2
    25    26    27   ar
    26    27    25    1
    27    28    17   ar
    28    29    23    1
    29    30    24   ar
    30    31    17   ar
    31    32    31    1
    32    33    22    1
    33    34    24   ar
    34    35    34    1
    35    36    29   ar
    36    37    36    1
    37    38    21   ar
    38    39    38    1
    39    40    15   ar
    40    41    40    1
    41    42    30   ar
    42    43    42    1
    43    44    31   ar
    44    45    44    1
    45    46    42   ar
    46    47    46    1
    47    48    34   ar
    48    49    48    1
    49    50    27   ar
    50    51    50    1
    51    52    33   ar
    52    53    52    1
    53    54    33   ar
    54    55    54   ar
    55    56    55    1
    56    57    38   ar
    57    58    57    1
    58    59    19   ar
    59    60    59    1
    60    61    36   ar
    61    62    61    1
    62    63    40   ar
    63    64    63    1
    64    65    66    1
    65    67    26   ar
    66    68    67    1
    67    69    28   ar
    68    70    69    1
    69    71    59   ar
    70    72    71    1
    71    73    44   ar
    72    74    73    1
    73    75    50   ar
    74    76    75    1
    75    77    52   ar
    76    78    77    1
    77    79    55   ar
    78    80    79    1
    79    81    13    1
    80    82    18    1
    81    18    22   am
    82    21    23    1
    83    25    28    1
    84    46    48   ar
    85    57    63   ar
    86    61    71   ar
    87    65    67   ar
    88    65    75   ar
    89    69    73   ar
    90    77    79   ar
    91    83    84    1
    92    85    83    1
    93    86    83    1
    94    87    83    1
    95    88    83    1
    96    89    83    1
@<TRIPOS>SUBSTRUCTURE
     1 RES1        1 GROUP             0 ****  ****    0  
     2 RES2        8 GROUP             0 ****  ****    0  
     3 RES3       83 GROUP             0 ****  ****    0  
@<TRIPOS>CRYSIN
   16.8760   16.1720   17.2329   90.0000  117.7970   90.0000   231     1
