@<TRIPOS>MOLECULE
POMYIC
    89    96     3     0     0
SMALL
USER_CHARGES
****
Generated from the CSD

@<TRIPOS>ATOM
     1 As1      2.7391  14.4309  15.8064   As        1 RES1  -1.0000
     2 F1       1.2959  13.8619  15.0523   F         1 RES1   0.0000
     3 F2       3.0533  12.8452  16.4088   F         1 RES1   0.0000
     4 F3       2.4208  16.0131  15.2191   F         1 RES1   0.0000
     5 F4       4.1960  14.9962  16.5313   F         1 RES1   0.0000
     6 F5       1.8572  14.8001  17.2422   F         1 RES1   0.0000
     7 F6       3.6096  14.0661  14.3635   F         1 RES1   0.0000
     8 As2      6.8288  13.8017   7.3966   As        2 RES2  -1.0000
     9 F7       7.0758  14.4414   8.9723   F         2 RES2   0.0000
    10 F8       5.5105  12.8505   7.9630   F         2 RES2   0.0000
    11 F9       5.7274  15.0693   7.0472   F         2 RES2   0.0000
    12 F10      8.1396  14.7279   6.7960   F         2 RES2   0.0000
    13 F11      6.5921  13.1821   5.8015   F         2 RES2   0.0000
    14 F12      7.9101  12.5053   7.7423   F         2 RES2   0.0000
    15 Fe1      3.7737  10.9241  11.3603   Fe        3 RES3   1.0000
    16 Cl1      6.4807   9.5427   6.5460   Cl        3 RES3   0.0000
    17 Cl2     -0.8790   8.0010  12.2461   Cl        3 RES3   0.0000
    18 O1       3.1947  10.5600   9.4902   O.2       3 RES3   0.0000
    19 O2       3.3923   9.0604  11.8942   O.3       3 RES3   0.0000
    20 N1       5.4442  10.5459  10.5547   N.2       3 RES3   0.0000
    21 N2       2.0199  11.1221  11.9850   N.2       3 RES3   0.0000
    22 N3       5.3847  10.2066   9.2255   N.am      3 RES3   0.0000
    23 H1       6.0759  10.0045   8.7578   H         3 RES3   0.0000
    24 N4      -0.8305  11.3462  12.0891   N.ar      3 RES3   1.0000
    25 H2      -0.4560  10.5911  11.9165   H         3 RES3   0.0000
    26 N5       1.3627   9.9937  12.4311   N.2       3 RES3   0.0000
    27 N6       7.9599   9.6784   9.5259   N.ar      3 RES3   0.0000
    28 N7       3.5379  12.8683  11.1078   N.ar      3 RES3   0.0000
    29 N8       4.9660  11.0837  12.9143   N.ar      3 RES3   0.0000
    30 C1       2.2176   8.9598  12.3671   C.2       3 RES3   0.0000
    31 C2       1.3814  12.2777  11.9003   C.2       3 RES3   0.0000
    32 C3       2.2747  13.3276  11.3680   C.ar      3 RES3   0.0000
    33 C4       6.5656  10.6243  11.2193   C.2       3 RES3   0.0000
    34 C5       9.0219  11.1877  11.0692   C.ar      3 RES3   0.0000
    35 H3       8.9546  11.7576  11.8009   H         3 RES3   0.0000
    36 C6       4.1339  10.2242   8.7304   C.2       3 RES3   0.0000
    37 C7       4.7546   9.5472   6.3070   C.ar      3 RES3   0.0000
    38 C8       7.9084  10.4867  10.6127   C.ar      3 RES3   0.0000
    39 C9      10.3025  10.1634   9.3296   C.ar      3 RES3   0.0000
    40 H4      11.1091  10.0216   8.8869   H         3 RES3   0.0000
    41 C10      3.8460   9.8465   7.3239   C.ar      3 RES3   0.0000
    42 C11      6.2909  10.8356  12.6526   C.ar      3 RES3   0.0000
    43 C12     -0.0421  12.4457  12.2006   C.ar      3 RES3   0.0000
    44 C13     -0.6601  13.6381  12.5783   C.ar      3 RES3   0.0000
    45 H5      -0.1494  14.3989  12.7385   H         3 RES3   0.0000
    46 C14      1.7844   7.6553  12.9158   C.ar      3 RES3   0.0000
    47 C15      4.3267   9.2127   5.0254   C.ar      3 RES3   0.0000
    48 H6       4.9479   9.0130   4.3630   H         3 RES3   0.0000
    49 C16      7.2031  10.6627  13.6755   C.ar      3 RES3   0.0000
    50 H7       8.0918  10.4630  13.4862   H         3 RES3   0.0000
    51 C17      2.0494   9.4559   5.7331   C.ar      3 RES3   0.0000
    52 H8       1.1404   9.4241   5.5400   H         3 RES3   0.0000
    53 C18     10.2253  11.0212  10.4150   C.ar      3 RES3   0.0000
    54 H9      10.9810  11.4814  10.7021   H         3 RES3   0.0000
    55 C19      0.4869   7.1624  12.9514   C.ar      3 RES3   0.0000
    56 C20      2.9768   9.1790   4.7444   C.ar      3 RES3   0.0000
    57 H10      2.6893   8.9697   3.8854   H         3 RES3   0.0000
    58 C21      2.4754   9.7824   7.0087   C.ar      3 RES3   0.0000
    59 H11      1.8460   9.9619   7.6690   H         3 RES3   0.0000
    60 C22     -2.0322  13.6877  12.7136   C.ar      3 RES3   0.0000
    61 H12     -2.4470  14.4884  12.9389   H         3 RES3   0.0000
    62 C23      9.1413   9.5232   8.9222   C.ar      3 RES3   0.0000
    63 H13      9.1867   8.9546   8.1874   H         3 RES3   0.0000
    64 C24     -2.1560  11.3750  12.2333   C.ar      3 RES3   0.0000
    65 H14     -2.6490  10.5914  12.1411   H         3 RES3   0.0000
    66 C25      4.5744  11.2133  14.1959   C.ar      3 RES3   0.0000
    67 H15      3.6809  11.3968  14.3776   H         3 RES3   0.0000
    68 C26      6.7723  10.7908  14.9958   C.ar      3 RES3   0.0000
    69 H16      7.3709  10.6779  15.6982   H         3 RES3   0.0000
    70 C27      2.8045   6.8567  13.4763   C.ar      3 RES3   0.0000
    71 H17      3.6838   7.1584  13.4570   H         3 RES3   0.0000
    72 C28      4.4630  13.7037  10.6142   C.ar      3 RES3   0.0000
    73 H18      5.3228  13.3836  10.4618   H         3 RES3   0.0000
    74 C29      0.1965   5.9204  13.5179   C.ar      3 RES3   0.0000
    75 H19     -0.6761   5.6002  13.5231   H         3 RES3   0.0000
    76 C30      2.5197   5.6339  14.0546   C.ar      3 RES3   0.0000
    77 H20      3.2018   5.1247  14.4301   H         3 RES3   0.0000
    78 C31      4.1821  15.0226  10.3258   C.ar      3 RES3   0.0000
    79 H21      4.8456  15.5863   9.9972   H         3 RES3   0.0000
    80 C32     -2.7948  12.5514  12.5143   C.ar      3 RES3   0.0000
    81 H22     -3.7229  12.5858  12.5712   H         3 RES3   0.0000
    82 C33      2.9092  15.4915  10.5295   C.ar      3 RES3   0.0000
    83 H23      2.6946  16.3716  10.3217   H         3 RES3   0.0000
    84 C34      1.9346  14.6352  11.0528   C.ar      3 RES3   0.0000
    85 H24      1.0657  14.9397  11.1886   H         3 RES3   0.0000
    86 C35      5.4566  11.0837  15.2456   C.ar      3 RES3   0.0000
    87 H25      5.1605  11.1932  16.1209   H         3 RES3   0.0000
    88 C36      1.2161   5.1713  14.0695   C.ar      3 RES3   0.0000
    89 H26      1.0238   4.3467  14.4559   H         3 RES3   0.0000
@<TRIPOS>BOND
     1     1     2    1
     2     3     1    1
     3     4     1    1
     4     5     1    1
     5     6     1    1
     6     7     1    1
     7     8     9    1
     8    10     8    1
     9    11     8    1
    10    12     8    1
    11    13     8    1
    12    14     8    1
    13    15    18    1
    14    16    37    1
    15    17    55    1
    16    18    36    2
    17    19    15    1
    18    20    15    1
    19    21    15    1
    20    22    20    1
    21    23    22    1
    22    24    25    1
    23    26    21    1
    24    27    38   ar
    25    28    15    1
    26    29    15    1
    27    30    19    1
    28    31    21    2
    29    32    28   ar
    30    33    20    2
    31    34    35    1
    32    36    22   am
    33    37    41   ar
    34    38    33    1
    35    39    40    1
    36    41    36    1
    37    42    29   ar
    38    43    24   ar
    39    44    43   ar
    40    45    44    1
    41    46    30    1
    42    47    37   ar
    43    48    47    1
    44    49    42   ar
    45    50    49    1
    46    51    52    1
    47    53    34   ar
    48    54    53    1
    49    55    46   ar
    50    56    47   ar
    51    57    56    1
    52    58    41   ar
    53    59    58    1
    54    60    44   ar
    55    61    60    1
    56    62    27   ar
    57    63    62    1
    58    64    24   ar
    59    65    64    1
    60    66    29   ar
    61    67    66    1
    62    68    49   ar
    63    69    68    1
    64    70    46   ar
    65    71    70    1
    66    72    28   ar
    67    73    72    1
    68    74    55   ar
    69    75    74    1
    70    76    70   ar
    71    77    76    1
    72    78    72   ar
    73    79    78    1
    74    80    60   ar
    75    81    80    1
    76    82    78   ar
    77    83    82    1
    78    84    32   ar
    79    85    84    1
    80    86    66   ar
    81    87    86    1
    82    88    74   ar
    83    89    88    1
    84    26    30    2
    85    31    32    1
    86    31    43    1
    87    33    42    1
    88    34    38   ar
    89    39    53   ar
    90    39    62   ar
    91    51    56   ar
    92    51    58   ar
    93    64    80   ar
    94    68    86   ar
    95    76    88   ar
    96    82    84   ar
@<TRIPOS>SUBSTRUCTURE
     1 RES1        1 GROUP             0 ****  ****    0  
     2 RES2        8 GROUP             0 ****  ****    0  
     3 RES3       15 GROUP             0 ****  ****    0  
@<TRIPOS>CRYSIN
   16.4896   16.0053   16.6301   90.0000  116.6150   90.0000   231     1
