@<TRIPOS>MOLECULE
POMYIC03
    89    96     3     0     0
SMALL
USER_CHARGES
****
Generated from the CSD

@<TRIPOS>ATOM
     1 As1      6.3163   1.5667  -0.9810   As        1 RES1  -1.0000
     2 F1       6.6298   0.0029  -0.3656   F         1 RES1   0.0000
     3 F2       6.0116   3.1343  -1.6085   F         1 RES1   0.0000
     4 F3       7.7493   2.1337  -0.2548   F         1 RES1   0.0000
     5 F4       5.4550   1.9685   0.4482   F         1 RES1   0.0000
     6 F5       7.1783   1.1595  -2.4066   F         1 RES1   0.0000
     7 F6       4.8675   0.9960  -1.6776   F         1 RES1   0.0000
     8 As2      2.3172   2.1683   7.5140   As        2 RES2  -1.0000
     9 F7       3.6600   3.0818   6.9530   F         2 RES2   0.0000
    10 F8       1.2759   3.4648   7.1110   F         2 RES2   0.0000
    11 F9       3.3875   0.9101   7.9187   F         2 RES2   0.0000
    12 F10      2.0978   1.5059   5.9582   F         2 RES2   0.0000
    13 F11      0.9849   1.2783   8.0995   F         2 RES2   0.0000
    14 F12      2.5228   2.8269   9.0767   F         2 RES2   0.0000
    15 Fe1      5.3411   5.1378   3.5289   Fe        3 RES3   1.0000
    16 Cl1      2.6464   6.4989   8.3266   Cl        3 RES3   0.0000
    17 Cl2      9.9241   8.1036   2.6017   Cl        3 RES3   0.0000
    18 O1       5.9315   5.4694   5.3857   O.2       3 RES3   0.0000
    19 O2       5.6849   6.9989   3.0404   O.3       3 RES3   0.0000
    20 N1       5.5625   3.2070   3.7651   N.ar      3 RES3   0.0000
    21 N2       3.6837   5.4691   4.3285   N.2       3 RES3   0.0000
    22 N3       4.1787   4.9946   1.9647   N.ar      3 RES3   0.0000
    23 N4       7.0630   4.9553   2.8742   N.2       3 RES3   0.0000
    24 N5       3.7407   5.7829   5.6618   N.am      3 RES3   0.0000
    25 N6       7.6992   6.0845   2.4291   N.2       3 RES3   0.0000
    26 N7       9.9099   4.7336   2.7469   N.ar      3 RES3   1.0000
    27 N8       1.1727   6.3590   5.3408   N.ar      3 RES3   0.0000
    28 C1       4.9867   5.7806   6.1510   C.2       3 RES3   0.0000
    29 C2       6.8223   2.7476   3.4917   C.ar      3 RES3   0.0000
    30 C3       7.6959   3.7982   2.9531   C.2       3 RES3   0.0000
    31 C4       2.8550   5.2365   2.2227   C.ar      3 RES3   0.0000
    32 C5       6.8552   7.1058   2.5392   C.2       3 RES3   0.0000
    33 C6       1.2240   5.5678   4.2530   C.ar      3 RES3   0.0000
    34 C7       2.5640   5.4219   3.6504   C.2       3 RES3   0.0000
    35 C8       9.1231   3.6319   2.6472   C.ar      3 RES3   0.0000
    36 C9       4.6547   2.3523   4.2499   C.ar      3 RES3   0.0000
    37 H1       3.7931   2.6628   4.4109   H         3 RES3   0.0000
    38 C10      7.2494   8.4231   1.9885   C.ar      3 RES3   0.0000
    39 C11      4.5711   4.8728   0.6924   C.ar      3 RES3   0.0000
    40 H2       5.4651   4.6877   0.5147   H         3 RES3   0.0000
    41 C12      4.3670   6.4509   8.5747   C.ar      3 RES3   0.0000
    42 C13      5.2807   6.1368   7.5617   C.ar      3 RES3   0.0000
    43 C14      4.9418   1.0273   4.5221   C.ar      3 RES3   0.0000
    44 H3       4.2853   0.4574   4.8523   H         3 RES3   0.0000
    45 C15      8.5461   8.9347   1.9247   C.ar      3 RES3   0.0000
    46 C16      0.1114   4.8901   3.7769   C.ar      3 RES3   0.0000
    47 H4       0.1736   4.3348   3.0335   H         3 RES3   0.0000
    48 C17      4.7959   6.7713   9.8513   C.ar      3 RES3   0.0000
    49 H5       4.1744   6.9762  10.5121   H         3 RES3   0.0000
    50 C18      1.9455   5.4144   1.1959   C.ar      3 RES3   0.0000
    51 H6       1.0549   5.6053   1.3842   H         3 RES3   0.0000
    52 C19     11.2373   4.7092   2.5923   C.ar      3 RES3   0.0000
    53 H7      11.7291   5.4942   2.6748   H         3 RES3   0.0000
    54 C20      6.2218   9.2080   1.4637   C.ar      3 RES3   0.0000
    55 H8       5.3469   8.8946   1.5003   H         3 RES3   0.0000
    56 C21      9.7343   2.4563   2.2545   C.ar      3 RES3   0.0000
    57 H9       9.2210   1.6999   2.0836   H         3 RES3   0.0000
    58 C22      7.1724   1.4351   3.7775   C.ar      3 RES3   0.0000
    59 H10      8.0401   1.1383   3.6234   H         3 RES3   0.0000
    60 C23      6.1401   6.7872  10.1435   C.ar      3 RES3   0.0000
    61 H11      6.4262   6.9988  11.0028   H         3 RES3   0.0000
    62 C24      6.6405   6.1753   7.8911   C.ar      3 RES3   0.0000
    63 H12      7.2716   5.9844   7.2353   H         3 RES3   0.0000
    64 C25     -1.0931   5.0609   4.4357   C.ar      3 RES3   0.0000
    65 H13     -1.8511   4.6057   4.1475   H         3 RES3   0.0000
    66 C26     -0.0051   6.5228   5.9400   C.ar      3 RES3   0.0000
    67 H14     -0.0485   7.0822   6.6817   H         3 RES3   0.0000
    68 C27      6.2205   0.5697   4.2939   C.ar      3 RES3   0.0000
    69 H15      6.4436  -0.3128   4.4847   H         3 RES3   0.0000
    70 C28      7.0663   6.4888   9.1614   C.ar      3 RES3   0.0000
    71 H16      7.9751   6.4999   9.3589   H         3 RES3   0.0000
    72 C29     11.8719   3.5333   2.3134   C.ar      3 RES3   0.0000
    73 H17     12.7996   3.4957   2.2581   H         3 RES3   0.0000
    74 C30     -1.1655   5.9049   5.5167   C.ar      3 RES3   0.0000
    75 H18     -1.9735   6.0561   5.9515   H         3 RES3   0.0000
    76 C31     11.1100   2.4045   2.1158   C.ar      3 RES3   0.0000
    77 H19     11.5219   1.6025   1.8878   H         3 RES3   0.0000
    78 C32      8.7935  10.1796   1.3770   C.ar      3 RES3   0.0000
    79 H20      9.6602  10.5161   1.3618   H         3 RES3   0.0000
    80 C33      2.3763   5.3049  -0.1159   C.ar      3 RES3   0.0000
    81 H21      1.7795   5.4280  -0.8184   H         3 RES3   0.0000
    82 C34      3.6960   5.0121  -0.3683   C.ar      3 RES3   0.0000
    83 H22      3.9960   4.9089  -1.2424   H         3 RES3   0.0000
    84 C35      6.4730  10.4380   0.8921   C.ar      3 RES3   0.0000
    85 H23      5.7758  10.9382   0.5334   H         3 RES3   0.0000
    86 C36      7.7606  10.9207   0.8554   C.ar      3 RES3   0.0000
    87 H24      7.9337  11.7520   0.4760   H         3 RES3   0.0000
    88 H25      9.5251   5.4734   2.8340   H         3 RES3   0.0000
    89 H26      3.0749   6.0689   6.0259   H         3 RES3   0.0000
@<TRIPOS>BOND
     1     1     2    1
     2     3     1    1
     3     4     1    1
     4     5     1    1
     5     6     1    1
     6     7     1    1
     7     8     9    1
     8    10     8    1
     9    11     8    1
    10    12     8    1
    11    13     8    1
    12    14     8    1
    13    15    18    1
    14    16    41    1
    15    17    45    1
    16    18    28    2
    17    19    15    1
    18    20    15    1
    19    21    15    1
    20    22    15    1
    21    23    15    1
    22    24    21    1
    23    25    23    1
    24    26    35   ar
    25    27    33   ar
    26    28    24   am
    27    29    20   ar
    28    30    23    2
    29    31    22   ar
    30    32    19    1
    31    33    34    1
    32    34    21    2
    33    35    30    1
    34    36    20   ar
    35    37    36    1
    36    38    32    1
    37    39    22   ar
    38    40    39    1
    39    41    42   ar
    40    42    28    1
    41    43    36   ar
    42    44    43    1
    43    45    38   ar
    44    46    33   ar
    45    47    46    1
    46    48    41   ar
    47    49    48    1
    48    50    31   ar
    49    51    50    1
    50    52    26   ar
    51    53    52    1
    52    54    38   ar
    53    55    54    1
    54    56    35   ar
    55    57    56    1
    56    58    29   ar
    57    59    58    1
    58    60    48   ar
    59    61    60    1
    60    62    42   ar
    61    63    62    1
    62    64    46   ar
    63    65    64    1
    64    66    27   ar
    65    67    66    1
    66    68    43   ar
    67    69    68    1
    68    70    60   ar
    69    71    70    1
    70    72    52   ar
    71    73    72    1
    72    74    64   ar
    73    75    74    1
    74    76    56   ar
    75    77    76    1
    76    78    45   ar
    77    79    78    1
    78    80    50   ar
    79    81    80    1
    80    82    39   ar
    81    83    82    1
    82    84    54   ar
    83    85    84    1
    84    86    78   ar
    85    87    86    1
    86    88    26    1
    87    89    24    1
    88    25    32    2
    89    29    30    1
    90    31    34    1
    91    58    68   ar
    92    62    70   ar
    93    66    74   ar
    94    72    76   ar
    95    80    82   ar
    96    84    86   ar
@<TRIPOS>SUBSTRUCTURE
     1 RES1        1 GROUP             0 ****  ****    0  
     2 RES2        8 GROUP             0 ****  ****    0  
     3 RES3       15 GROUP             0 ****  ****    0  
@<TRIPOS>CRYSIN
   16.5677   16.0511   16.6587   90.0000  116.4450   90.0000   231     1
