@<TRIPOS>MOLECULE
PONBUS
    93   100     3     0     0
SMALL
USER_CHARGES
****
Generated from the CSD

@<TRIPOS>ATOM
     1 Fe1      7.8475  10.6450   8.9258   Fe        1 RES1   2.0000
     2 O1       8.6433   8.8421   8.9045   O.2       1 RES1   0.0000
     3 O2       6.5851  10.1649   7.5086   O.2       1 RES1   0.0000
     4 O3       2.7778   9.1467   8.7201   O.3       1 RES1   0.0000
     5 O4      11.0263   8.0483   5.7218   O.3       1 RES1   0.0000
     6 N1       9.2162  10.9527   7.7080   N.2       1 RES1   0.0000
     7 N2       6.3629  10.2410   9.9889   N.2       1 RES1   0.0000
     8 N3       5.2358   9.9137   9.2820   N.am      1 RES1   0.0000
     9 N4       9.9508   9.8452   7.3775   N.am      1 RES1   0.0000
    10 N5       8.6561  10.8754  10.6713   N.ar      1 RES1   0.0000
    11 N6       7.5588  12.5440   8.5904   N.ar      1 RES1   0.0000
    12 N7       4.3713   9.1950  11.7867   N.ar      1 RES1   0.0000
    13 N8      10.6207  11.2924   5.2780   N.ar      1 RES1   0.0000
    14 C1       9.5830   8.7524   8.0666   C.2       1 RES1   0.0000
    15 C2       4.6947   9.5264   5.6500   C.ar      1 RES1   0.0000
    16 H1       5.5920   9.6912   5.3852   H         1 RES1   0.0000
    17 C3       6.4308  10.2938  11.2923   C.2       1 RES1   0.0000
    18 C4       9.3736  12.1089   7.1259   C.2       1 RES1   0.0000
    19 C5       4.3673   9.5345   7.0167   C.ar      1 RES1   0.0000
    20 C6       5.4377   9.8755   7.9497   C.2       1 RES1   0.0000
    21 C7       3.0442   9.2331   7.3929   C.ar      1 RES1   0.0000
    22 C8       5.3108  10.0664  12.2231   C.ar      1 RES1   0.0000
    23 C9      10.2880   7.4758   7.8861   C.ar      1 RES1   0.0000
    24 C10      2.0815   9.0171   6.4184   C.ar      1 RES1   0.0000
    25 H2       1.1812   8.8488   6.6707   H         1 RES1   0.0000
    26 C11      9.9604  11.0840  10.9090   C.ar      1 RES1   0.0000
    27 H3      10.5299  11.3183  10.1858   H         1 RES1   0.0000
    28 C12     10.2089   6.5563   8.9356   C.ar      1 RES1   0.0000
    29 H4       9.7386   6.7902   9.7272   H         1 RES1   0.0000
    30 C13      7.8256  10.5546  11.7043   C.ar      1 RES1   0.0000
    31 C14      6.3766  14.6243   8.6923   C.ar      1 RES1   0.0000
    32 H5       5.6946  15.1529   9.0897   H         1 RES1   0.0000
    33 C15      8.3838  13.0751   7.6309   C.ar      1 RES1   0.0000
    34 C16     10.4987  10.9671  12.1793   C.ar      1 RES1   0.0000
    35 H6      11.4216  11.1344  12.3300   H         1 RES1   0.0000
    36 C17      6.5950  13.3209   9.1140   C.ar      1 RES1   0.0000
    37 H7       6.0423  12.9638   9.7991   H         1 RES1   0.0000
    38 C18      8.3225  10.3953  12.9862   C.ar      1 RES1   0.0000
    39 H8       7.7454  10.1459  13.6983   H         1 RES1   0.0000
    40 C19      3.7452   9.2853   4.6916   C.ar      1 RES1   0.0000
    41 H9       3.9831   9.2817   3.7718   H         1 RES1   0.0000
    42 C20      3.3651   8.9196  12.6109   C.ar      1 RES1   0.0000
    43 H10      2.7111   8.2934  12.3236   H         1 RES1   0.0000
    44 C21      9.6761  10.6050  13.2179   C.ar      1 RES1   0.0000
    45 H11     10.0319  10.4983  14.0923   H         1 RES1   0.0000
    46 C22     10.9893   7.1307   6.7193   C.ar      1 RES1   0.0000
    47 C23      8.1803  14.3631   7.1533   C.ar      1 RES1   0.0000
    48 H12      8.7341  14.7100   6.4639   H         1 RES1   0.0000
    49 C24      2.4299   9.0458   5.0769   C.ar      1 RES1   0.0000
    50 H13      1.7643   8.9009   4.4147   H         1 RES1   0.0000
    51 C25      7.1652  15.1386   7.6880   C.ar      1 RES1   0.0000
    52 H14      7.0143  16.0188   7.3642   H         1 RES1   0.0000
    53 C26      5.2242  10.7126  13.4495   C.ar      1 RES1   0.0000
    54 H15      5.8825  11.3443  13.7141   H         1 RES1   0.0000
    55 C27      1.5125   8.6089   9.1114   C.3       1 RES1   0.0000
    56 H16      1.3559   7.7651   8.6383   H         1 RES1   0.0000
    57 H17      0.8030   9.2462   8.8863   H         1 RES1   0.0000
    58 H18      1.5114   8.4466  10.0779   H         1 RES1   0.0000
    59 C28      3.2136   9.4915  13.8638   C.ar      1 RES1   0.0000
    60 H19      2.4815   9.2542  14.4208   H         1 RES1   0.0000
    61 C29     10.7998   5.3200   8.8418   C.ar      1 RES1   0.0000
    62 H20     10.7449   4.7041   9.5629   H         1 RES1   0.0000
    63 C30     10.3588  12.3559   6.0557   C.ar      1 RES1   0.0000
    64 C31     11.5799   5.8655   6.6291   C.ar      1 RES1   0.0000
    65 H21     12.0513   5.6154   5.8431   H         1 RES1   0.0000
    66 C32     11.4770   4.9836   7.6811   C.ar      1 RES1   0.0000
    67 H22     11.8790   4.1258   7.6095   H         1 RES1   0.0000
    68 C33     11.0028  13.5706   5.8677   C.ar      1 RES1   0.0000
    69 H23     10.8336  14.3055   6.4455   H         1 RES1   0.0000
    70 C34      4.1473  10.4109  14.2832   C.ar      1 RES1   0.0000
    71 H24      4.0598  10.8345  15.1290   H         1 RES1   0.0000
    72 C35     11.4894  11.4289   4.2787   C.ar      1 RES1   0.0000
    73 H25     11.6622  10.6789   3.7219   H         1 RES1   0.0000
    74 C36     11.6102   7.6681   4.4666   C.3       1 RES1   0.0000
    75 H26     11.4079   8.3499   3.7925   H         1 RES1   0.0000
    76 H27     11.2381   6.8068   4.1815   H         1 RES1   0.0000
    77 H28     12.5808   7.5866   4.5689   H         1 RES1   0.0000
    78 C37     12.1466  12.6062   4.0172   C.ar      1 RES1   0.0000
    79 H29     12.7607  12.6673   3.2940   H         1 RES1   0.0000
    80 C38     11.9009  13.6864   4.8138   C.ar      1 RES1   0.0000
    81 H30     12.3422  14.5118   4.6494   H         1 RES1   0.0000
    82 H31      4.5245   9.6652   9.7387   H         1 RES1   0.0000
    83 H32     10.3497   9.8302   6.7329   H         1 RES1   0.0000
    84 Cl1      2.9463  13.1265   9.7700   Cl        2 RES2   0.0000
    85 O5       3.3936  12.1465  10.6520   O.2       2 RES2   0.0000
    86 O6       3.5615  14.3492  10.2647   O.3       2 RES2  -1.0000
    87 O7       3.4406  12.9607   8.4704   O.2       2 RES2   0.0000
    88 O8       1.5747  13.3716   9.8379   O.2       2 RES2   0.0000
    89 Cl2     12.5043  13.5941   9.9207   Cl        3 RES3   0.0000
    90 O9      12.0492  14.2510  11.0596   O.2       3 RES3   0.0000
    91 O10     12.8278  12.2412  10.2437   O.3       3 RES3  -1.0000
    92 O11     13.6777  14.2216   9.4321   O.2       3 RES3   0.0000
    93 O12     11.4605  13.5257   9.0053   O.2       3 RES3   0.0000
@<TRIPOS>BOND
     1     1     2    1
     2     2    14    2
     3     3     1    1
     4     4    21    1
     5     5    46    1
     6     6     1    1
     7     7     1    1
     8     8     7    1
     9     9     6    1
    10    10     1    1
    11    11     1    1
    12    12    22   ar
    13    13    63   ar
    14    14     9   am
    15    15    16    1
    16    17     7    2
    17    18     6    2
    18    19    15   ar
    19    20     3    2
    20    21    19   ar
    21    22    17    1
    22    23    14    1
    23    24    21   ar
    24    25    24    1
    25    26    10   ar
    26    27    26    1
    27    28    23   ar
    28    29    28    1
    29    30    10   ar
    30    31    32    1
    31    33    11   ar
    32    34    26   ar
    33    35    34    1
    34    36    11   ar
    35    37    36    1
    36    38    30   ar
    37    39    38    1
    38    40    15   ar
    39    41    40    1
    40    42    12   ar
    41    43    42    1
    42    44    34   ar
    43    45    44    1
    44    46    23   ar
    45    47    33   ar
    46    48    47    1
    47    49    24   ar
    48    50    49    1
    49    51    31   ar
    50    52    51    1
    51    53    22   ar
    52    54    53    1
    53    55     4    1
    54    56    55    1
    55    57    55    1
    56    58    55    1
    57    59    42   ar
    58    60    59    1
    59    61    28   ar
    60    62    61    1
    61    63    18    1
    62    64    46   ar
    63    65    64    1
    64    66    61   ar
    65    67    66    1
    66    68    63   ar
    67    69    68    1
    68    70    53   ar
    69    71    70    1
    70    72    13   ar
    71    73    72    1
    72    74     5    1
    73    75    74    1
    74    76    74    1
    75    77    74    1
    76    78    72   ar
    77    79    78    1
    78    80    68   ar
    79    81    80    1
    80    82     8    1
    81    83     9    1
    82     8    20   am
    83    17    30    1
    84    18    33    1
    85    19    20    1
    86    31    36   ar
    87    38    44   ar
    88    40    49   ar
    89    47    51   ar
    90    59    70   ar
    91    64    66   ar
    92    78    80   ar
    93    84    85    2
    94    86    84    1
    95    87    84    2
    96    88    84    2
    97    89    90    2
    98    91    89    1
    99    92    89    2
   100    93    89    2
@<TRIPOS>SUBSTRUCTURE
     1 RES1        1 GROUP             0 ****  ****    0  
     2 RES2       84 GROUP             0 ****  ****    0  
     3 RES3       89 GROUP             0 ****  ****    0  
@<TRIPOS>CRYSIN
   16.3409   15.5665   16.8955   90.0000  117.1870   90.0000   231     1
