@<TRIPOS>MOLECULE
POQWUQ
   101   107     4     0     0
SMALL
USER_CHARGES
****
Generated from the CSD

@<TRIPOS>ATOM
     1 Fe1      9.4946   2.4362  10.0643   Fe        1 RES1   2.0000
     2 N1       7.1316   5.9110  10.4937   N.pl3     1 RES1   0.0000
     3 H1       6.3302   6.1906  10.7269   H         1 RES1   0.0000
     4 C1       7.5419   4.6418  10.3760   C.cat     1 RES1   0.0000
     5 N2       8.8016   4.4854  10.0039   N.2       1 RES1   0.0000
     6 C2       9.2797   5.7952   9.8684   C.ar      1 RES1   0.0000
     7 C3      10.5277   6.2681   9.4942   C.ar      1 RES1   0.0000
     8 H2      11.2384   5.6696   9.2961   H         1 RES1   0.0000
     9 C4      10.7064   7.6369   9.4152   C.ar      1 RES1   0.0000
    10 H3      11.5496   7.9828   9.1498   H         1 RES1   0.0000
    11 C5       9.6666   8.5159   9.7208   C.ar      1 RES1   0.0000
    12 H4       9.8243   9.4511   9.6625   H         1 RES1   0.0000
    13 C6       8.4055   8.0702  10.1067   C.ar      1 RES1   0.0000
    14 H5       7.7001   8.6733  10.3139   H         1 RES1   0.0000
    15 C7       8.2414   6.6998  10.1688   C.ar      1 RES1   0.0000
    16 N3       6.7245   3.5463  10.6347   N.pl3     1 RES1   0.0000
    17 C8       5.3243   3.6474  11.0222   C.3       1 RES1   0.0000
    18 H6       4.8248   2.8974  10.6389   H         1 RES1   0.0000
    19 H7       4.9546   4.4913  10.6894   H         1 RES1   0.0000
    20 H8       5.2528   3.6227  11.9985   H         1 RES1   0.0000
    21 N4       7.4492   2.4177  10.7966   N.2       1 RES1   0.0000
    22 C9       6.9571   1.3226  11.2410   C.2       1 RES1   0.0000
    23 H9       6.0469   1.2172  11.4909   H         1 RES1   0.0000
    24 C10      7.9391   0.2601  11.3239   C.2       1 RES1   0.0000
    25 N5       9.2014   0.4257  10.9266   N.2       1 RES1   0.0000
    26 C11      9.8275  -0.7606  11.1672   C.2       1 RES1   0.0000
    27 H10     10.7431  -0.9390  10.9898   H         1 RES1   0.0000
    28 C12      8.9468  -1.6545  11.7020   C.2       1 RES1   0.0000
    29 H11      9.1274  -2.5522  11.9571   H         1 RES1   0.0000
    30 N6       7.7416  -0.9908  11.7976   N.pl3     1 RES1   0.0000
    31 C13      6.4969  -1.5370  12.3559   C.3       1 RES1   0.0000
    32 H12      6.4508  -1.3361  13.3142   H         1 RES1   0.0000
    33 H13      6.4782  -2.5086  12.2251   H         1 RES1   0.0000
    34 H14      5.7287  -1.1329  11.9001   H         1 RES1   0.0000
    35 N7       9.7524   0.9921   6.1073   N.pl3     1 RES1   0.0000
    36 H15     10.2990   0.6790   5.4917   H         1 RES1   0.0000
    37 C14     10.0826   1.3706   7.3615   C.cat     1 RES1   0.0000
    38 N8       9.0466   1.8218   8.0729   N.2       1 RES1   0.0000
    39 C15      7.9513   1.7184   7.2022   C.ar      1 RES1   0.0000
    40 C16      6.6077   2.0181   7.4003   C.ar      1 RES1   0.0000
    41 H16      6.2989   2.3645   8.2291   H         1 RES1   0.0000
    42 C17      5.7311   1.7948   6.3437   C.ar      1 RES1   0.0000
    43 H17      4.8081   1.9945   6.4525   H         1 RES1   0.0000
    44 C18      6.1784   1.2823   5.1304   C.ar      1 RES1   0.0000
    45 H18      5.5536   1.1408   4.4286   H         1 RES1   0.0000
    46 C19      7.5208   0.9708   4.9180   C.ar      1 RES1   0.0000
    47 H19      7.8284   0.6243   4.0893   H         1 RES1   0.0000
    48 C20      8.3841   1.1940   5.9760   C.ar      1 RES1   0.0000
    49 N9      11.3438   1.3129   7.8852   N.pl3     1 RES1   0.0000
    50 C21     12.5217   0.9371   7.1206   C.3       1 RES1   0.0000
    51 H20     12.9435   1.7425   6.7542   H         1 RES1   0.0000
    52 H21     12.2593   0.3434   6.3864   H         1 RES1   0.0000
    53 H22     13.1572   0.4732   7.7046   H         1 RES1   0.0000
    54 N10     11.3988   1.8987   9.1052   N.2       1 RES1   0.0000
    55 C22     12.5037   2.1478   9.7299   C.2       1 RES1   0.0000
    56 H23     13.3658   1.9272   9.3984   H         1 RES1   0.0000
    57 C23     12.2610   2.8133  11.0066   C.2       1 RES1   0.0000
    58 N11     11.0129   3.0686  11.4219   N.2       1 RES1   0.0000
    59 C24     11.1406   3.7488  12.6110   C.2       1 RES1   0.0000
    60 H24     10.4211   4.0618  13.1471   H         1 RES1   0.0000
    61 C25     12.4680   3.9023  12.8998   C.2       1 RES1   0.0000
    62 H25     12.8380   4.3396  13.6573   H         1 RES1   0.0000
    63 N12     13.1654   3.2960  11.8781   N.pl3     1 RES1   0.0000
    64 C26     14.6275   3.2330  11.7642   C.3       1 RES1   0.0000
    65 H26     14.8992   2.3162  11.5505   H         1 RES1   0.0000
    66 H27     15.0334   3.5026  12.6149   H         1 RES1   0.0000
    67 H28     14.9267   3.8361  11.0533   H         1 RES1   0.0000
    68 C27     15.2209   8.5162  10.7503   C.3       2 RES2   0.0000
    69 F1      15.7733   8.8865   9.5876   F         2 RES2   0.0000
    70 F2      15.4199   9.5334  11.6093   F         2 RES2   0.0000
    71 F3      13.9050   8.4201  10.5502   F         2 RES2   0.0000
    72 S1      15.9154   6.9676  11.3723   S.o2      2 RES2   0.0000
    73 O1      15.6375   6.0304  10.3188   O.2       2 RES2   0.0000
    74 O2      15.2038   6.7642  12.6017   O.2       2 RES2   0.0000
    75 O3      17.3220   7.2648  11.5294   O.3       2 RES2  -1.0000
    76 C28      5.6915  11.2564   9.8620   C.3       3 RES3   0.0000
    77 F4       5.4961  10.5612   8.7345   F         3 RES3   0.0000
    78 F5       5.9700  10.4079  10.8230   F         3 RES3   0.0000
    79 F6       4.5342  11.8538  10.1637   F         3 RES3   0.0000
    80 S2       7.0200  12.4877   9.6208   S.o2      3 RES3   0.0000
    81 O4       6.4714  13.3720   8.6378   O.2       3 RES3   0.0000
    82 O5       7.1654  13.0488  10.9330   O.2       3 RES3   0.0000
    83 O6       8.1467  11.6877   9.1763   O.3       3 RES3  -1.0000
    84 O7      12.4263   4.2763   7.3018   O.3       4 RES4   0.0000
    85 C29     11.2538   4.6163   6.5975   C.3       4 RES4   0.0000
    86 H29     11.2762   4.2049   5.7079   H         4 RES4   0.0000
    87 H30     11.2002   5.5911   6.5043   H         4 RES4   0.0000
    88 H31     10.4712   4.2923   7.0883   H         4 RES4   0.0000
    89 C30     13.6536   4.9620   6.8992   C.3       4 RES4   0.0000
    90 C31     14.7419   4.1937   7.6321   C.3       4 RES4   0.0000
    91 H32     14.5495   4.1901   8.5929   H         4 RES4   0.0000
    92 H33     15.6082   4.6234   7.4742   H         4 RES4   0.0000
    93 H34     14.7695   3.2720   7.3006   H         4 RES4   0.0000
    94 C32     13.8628   4.8584   5.3984   C.3       4 RES4   0.0000
    95 H35     13.8048   3.9197   5.1239   H         4 RES4   0.0000
    96 H36     14.7464   5.2127   5.1654   H         4 RES4   0.0000
    97 H37     13.1706   5.3764   4.9349   H         4 RES4   0.0000
    98 C33     13.6094   6.3995   7.3744   C.3       4 RES4   0.0000
    99 H38     12.8797   6.8715   6.9212   H         4 RES4   0.0000
   100 H39     14.4612   6.8381   7.1686   H         4 RES4   0.0000
   101 H40     13.4587   6.4181   8.3430   H         4 RES4   0.0000
@<TRIPOS>BOND
     1     1     5    1
     2     2     3    1
     3     4     2    1
     4     5     4    2
     5     6     5    1
     6     7     6   ar
     7     8     7    1
     8     9     7   ar
     9    10     9    1
    10    11     9   ar
    11    12    11    1
    12    13    11   ar
    13    14    13    1
    14    15     2    1
    15    16     4    1
    16    17    16    1
    17    18    17    1
    18    19    17    1
    19    20    17    1
    20    21     1    1
    21    22    21    2
    22    23    22    1
    23    24    22    1
    24    25     1    1
    25    26    25    1
    26    27    26    1
    27    28    26    2
    28    29    28    1
    29    30    24    1
    30    31    30    1
    31    32    31    1
    32    33    31    1
    33    34    31    1
    34    35    36    1
    35    37    35    1
    36    38     1    1
    37    39    38    1
    38    40    39   ar
    39    41    40    1
    40    42    40   ar
    41    43    42    1
    42    44    42   ar
    43    45    44    1
    44    46    44   ar
    45    47    46    1
    46    48    35    1
    47    49    37    1
    48    50    49    1
    49    51    50    1
    50    52    50    1
    51    53    50    1
    52    54     1    1
    53    55    54    2
    54    56    55    1
    55    57    55    1
    56    58     1    1
    57    59    58    1
    58    60    59    1
    59    61    59    2
    60    62    61    1
    61    63    57    1
    62    64    63    1
    63    65    64    1
    64    66    64    1
    65    67    64    1
    66     6    15   ar
    67    13    15   ar
    68    16    21    1
    69    24    25    2
    70    28    30    1
    71    37    38    2
    72    39    48   ar
    73    46    48   ar
    74    49    54    1
    75    57    58    2
    76    61    63    1
    77    68    69    1
    78    70    68    1
    79    71    68    1
    80    72    68    1
    81    73    72    2
    82    74    72    2
    83    75    72    1
    84    76    77    1
    85    78    76    1
    86    79    76    1
    87    80    76    1
    88    81    80    2
    89    82    80    2
    90    83    80    1
    91    84    85    1
    92    85    86    1
    93    87    85    1
    94    88    85    1
    95    89    84    1
    96    90    89    1
    97    91    90    1
    98    92    90    1
    99    93    90    1
   100    94    89    1
   101    95    94    1
   102    96    94    1
   103    97    94    1
   104    98    89    1
   105    99    98    1
   106   100    98    1
   107   101    98    1
@<TRIPOS>SUBSTRUCTURE
     1 RES1        1 GROUP             0 ****  ****    0  
     2 RES2       68 GROUP             0 ****  ****    0  
     3 RES3       76 GROUP             0 ****  ****    0  
     4 RES4       84 GROUP             0 ****  ****    0  
@<TRIPOS>CRYSIN
   12.4297   13.0407   13.4814   88.8700   74.1310   75.2620     2     1
