@<TRIPOS>MOLECULE
POQWIE
    92    98     4     0     0
SMALL
USER_CHARGES
****
Generated from the CSD

@<TRIPOS>ATOM
     1 Fe1      8.4348  10.9677  14.5590   Fe        1 RES1   2.0000
     2 N1      11.3549  14.0084  14.9043   N.pl3     1 RES1   0.0000
     3 H1      11.8216  14.4875  15.4772   H         1 RES1   0.0000
     4 C1      10.4063  13.0848  15.2032   C.cat     1 RES1   0.0000
     5 N2       9.8840  12.4996  14.1295   N.2       1 RES1   0.0000
     6 C2      10.5197  13.0967  13.0370   C.ar      1 RES1   0.0000
     7 C3      10.3593  12.9199  11.6753   C.ar      1 RES1   0.0000
     8 H2       9.7326  12.2908  11.3361   H         1 RES1   0.0000
     9 C4      11.1330  13.6833  10.8174   C.ar      1 RES1   0.0000
    10 H3      11.0425  13.5677   9.8782   H         1 RES1   0.0000
    11 C5      12.0479  14.6218  11.3060   C.ar      1 RES1   0.0000
    12 H4      12.5623  15.1336  10.6933   H         1 RES1   0.0000
    13 C6      12.2222  14.8241  12.6697   C.ar      1 RES1   0.0000
    14 H5      12.8427  15.4634  13.0021   H         1 RES1   0.0000
    15 C7      11.4490  14.0522  13.5180   C.ar      1 RES1   0.0000
    16 N3       9.9674  12.8170  16.4712   N.pl3     1 RES1   0.0000
    17 C8      10.6641  13.1732  17.7007   C.3       1 RES1   0.0000
    18 H6      10.0670  13.6969  18.2746   H         1 RES1   0.0000
    19 H7      11.4598  13.7037  17.4837   H         1 RES1   0.0000
    20 H8      10.9345  12.3554  18.1705   H         1 RES1   0.0000
    21 N4       8.9242  11.9260  16.4594   N.2       1 RES1   0.0000
    22 C9       8.3049  11.5946  17.5359   C.2       1 RES1   0.0000
    23 H9       8.5460  11.9168  18.3968   H         1 RES1   0.0000
    24 C10      7.2046  10.6856  17.3115   C.2       1 RES1   0.0000
    25 N5       7.0116  10.1781  16.0257   N.2       1 RES1   0.0000
    26 C11      5.9294   9.4396  16.0937   C.2       1 RES1   0.0000
    27 H10      5.5578   8.9652  15.3590   H         1 RES1   0.0000
    28 N6       5.4160   9.4401  17.3377   N.pl3     1 RES1   0.0000
    29 H11      4.6922   9.0094  17.5978   H         1 RES1   0.0000
    30 C12      6.2134  10.2285  18.1349   C.2       1 RES1   0.0000
    31 H12      6.1007  10.4138  19.0596   H         1 RES1   0.0000
    32 N7      10.9576   7.7562  13.5496   N.pl3     1 RES1   0.0000
    33 H13     11.2780   7.2854  12.8780   H         1 RES1   0.0000
    34 C13     10.0596   8.7556  13.4751   C.cat     1 RES1   0.0000
    35 N8       9.7465   9.2796  14.6544   N.2       1 RES1   0.0000
    36 C14     10.5119   8.5708  15.5841   C.ar      1 RES1   0.0000
    37 C15     10.5841   8.6558  16.9652   C.ar      1 RES1   0.0000
    38 H14     10.0754   9.2967  17.4456   H         1 RES1   0.0000
    39 C16     11.4186   7.7768  17.6142   C.ar      1 RES1   0.0000
    40 H15     11.4802   7.8159  18.5610   H         1 RES1   0.0000
    41 C17     12.1700   6.8382  16.9354   C.ar      1 RES1   0.0000
    42 H16     12.7271   6.2483  17.4296   H         1 RES1   0.0000
    43 C18     12.1330   6.7328  15.5563   C.ar      1 RES1   0.0000
    44 H17     12.6592   6.0970  15.0847   H         1 RES1   0.0000
    45 C19     11.2797   7.6118  14.9013   C.ar      1 RES1   0.0000
    46 N9       9.4842   9.1900  12.3038   N.pl3     1 RES1   0.0000
    47 C20      9.6762   8.5759  10.9996   C.3       1 RES1   0.0000
    48 H18      8.9282   7.9706  10.8114   H         1 RES1   0.0000
    49 H19     10.5158   8.0692  10.9976   H         1 RES1   0.0000
    50 H20      9.7135   9.2729  10.3128   H         1 RES1   0.0000
    51 N10      8.4639  10.0829  12.5638   N.2       1 RES1   0.0000
    52 C21      7.5937  10.4291  11.6765   C.2       1 RES1   0.0000
    53 H21      7.5955  10.1077  10.7814   H         1 RES1   0.0000
    54 C22      6.6148  11.3574  12.1943   C.2       1 RES1   0.0000
    55 N11      6.7058  11.7694  13.5150   N.2       1 RES1   0.0000
    56 C23      5.6642  12.5322  13.7294   C.2       1 RES1   0.0000
    57 H22      5.4725  12.9522  14.5600   H         1 RES1   0.0000
    58 N12      4.8993  12.6472  12.6343   N.pl3     1 RES1   0.0000
    59 H23      4.1564  13.1154  12.5656   H         1 RES1   0.0000
    60 C24      5.4820  11.9049  11.6384   C.2       1 RES1   0.0000
    61 H24      5.1669  11.7927  10.7493   H         1 RES1   0.0000
    62 C25      3.6662   5.8691  17.2834   C.3       2 RES2   0.0000
    63 F1       4.3406   5.5631  18.3692   F         2 RES2   0.0000
    64 F2       3.2348   4.7733  16.7161   F         2 RES2   0.0000
    65 F3       4.5371   6.4477  16.4374   F         2 RES2   0.0000
    66 S1       2.3121   7.0377  17.6459   S.o2      2 RES2   0.0000
    67 O1       1.5552   6.3872  18.7022   O.3       2 RES2  -1.0000
    68 O2       1.5938   7.1722  16.4230   O.2       2 RES2   0.0000
    69 O3       3.0148   8.1972  18.1104   O.2       2 RES2   0.0000
    70 C26     14.4465   7.5778  11.2199   C.3       3 RES3   0.0000
    71 F4      14.1835   7.9408   9.9537   F         3 RES3   0.0000
    72 F5      15.7551   7.4928  11.3781   F         3 RES3   0.0000
    73 F6      13.9835   8.5228  12.0179   F         3 RES3   0.0000
    74 S2      13.6455   5.9854  11.5838   S.o2      3 RES3   0.0000
    75 O4      14.2098   5.0931  10.6140   O.2       3 RES3   0.0000
    76 O5      14.0402   5.6860  12.9390   O.3       3 RES3  -1.0000
    77 O6      12.2540   6.2862  11.4186   O.2       3 RES3   0.0000
    78 O7       1.7026   2.3709  16.9680   O.3       4 RES4   0.0000
    79 C27      2.2535   1.8073  15.7736   C.3       4 RES4   0.0000
    80 H25      2.0934   0.8297  15.7595   H         4 RES4   0.0000
    81 H26      3.2327   1.9586  15.7535   H         4 RES4   0.0000
    82 C28      1.6189   2.4398  14.5821   C.3       4 RES4   0.0000
    83 H27      1.9729   2.0250  13.7671   H         4 RES4   0.0000
    84 H28      1.8223   3.3987  14.5741   H         4 RES4   0.0000
    85 H29      0.6484   2.3106  14.6221   H         4 RES4   0.0000
    86 C29      2.3761   1.8974  18.1345   C.3       4 RES4   0.0000
    87 H30      3.3416   2.1083  18.0764   H         4 RES4   0.0000
    88 H31      2.2758   0.9147  18.2066   H         4 RES4   0.0000
    89 C30      1.7843   2.5588  19.3440   C.3       4 RES4   0.0000
    90 H32      1.7703   3.5296  19.2118   H         4 RES4   0.0000
    91 H33      2.3243   2.3429  20.1330   H         4 RES4   0.0000
    92 H34      0.8682   2.2358  19.4761   H         4 RES4   0.0000
@<TRIPOS>BOND
     1     1     5    1
     2     2     3    1
     3     4     2    1
     4     5     4    2
     5     6     5    1
     6     7     6   ar
     7     8     7    1
     8     9     7   ar
     9    10     9    1
    10    11     9   ar
    11    12    11    1
    12    13    11   ar
    13    14    13    1
    14    15     2    1
    15    16     4    1
    16    17    16    1
    17    18    17    1
    18    19    17    1
    19    20    17    1
    20    21     1    1
    21    22    21    2
    22    23    22    1
    23    24    22    1
    24    25     1    1
    25    26    25    2
    26    27    26    1
    27    28    26    1
    28    29    28    1
    29    30    24    2
    30    31    30    1
    31    32    33    1
    32    34    32    1
    33    35     1    1
    34    36    35    1
    35    37    36   ar
    36    38    37    1
    37    39    37   ar
    38    40    39    1
    39    41    39   ar
    40    42    41    1
    41    43    41   ar
    42    44    43    1
    43    45    32    1
    44    46    34    1
    45    47    46    1
    46    48    47    1
    47    49    47    1
    48    50    47    1
    49    51     1    1
    50    52    51    2
    51    53    52    1
    52    54    52    1
    53    55     1    1
    54    56    55    2
    55    57    56    1
    56    58    56    1
    57    59    58    1
    58    60    54    2
    59    61    60    1
    60     6    15   ar
    61    13    15   ar
    62    16    21    1
    63    24    25    1
    64    28    30    1
    65    34    35    2
    66    36    45   ar
    67    43    45   ar
    68    46    51    1
    69    54    55    1
    70    58    60    1
    71    62    63    1
    72    64    62    1
    73    65    62    1
    74    66    62    1
    75    67    66    1
    76    68    66    2
    77    69    66    2
    78    70    71    1
    79    72    70    1
    80    73    70    1
    81    74    70    1
    82    75    74    2
    83    76    74    1
    84    77    74    2
    85    78    79    1
    86    79    80    1
    87    81    79    1
    88    82    79    1
    89    83    82    1
    90    84    82    1
    91    85    82    1
    92    86    78    1
    93    87    86    1
    94    88    86    1
    95    89    86    1
    96    90    89    1
    97    91    89    1
    98    92    89    1
@<TRIPOS>SUBSTRUCTURE
     1 RES1        1 GROUP             0 ****  ****    0  
     2 RES2       62 GROUP             0 ****  ****    0  
     3 RES3       70 GROUP             0 ****  ****    0  
     4 RES4       78 GROUP             0 ****  ****    0  
@<TRIPOS>CRYSIN
   23.1912   17.0021   22.3107   90.0000  116.1630   90.0000    15     1
