@<TRIPOS>MOLECULE
POQXAX
    81    85     4     0     0
SMALL
USER_CHARGES
****
Generated from the CSD

@<TRIPOS>ATOM
     1 Fe1     15.6170   4.3089   5.4901   Fe        1 RES1   2.0000
     2 N1      15.2358   2.5660   4.7276   N.ar      1 RES1   0.0000
     3 C1      13.9034   2.3590   4.4697   C.ar      1 RES1   0.0000
     4 C2      13.4294   1.1937   3.8838   C.ar      1 RES1   0.0000
     5 H1      12.5039   1.0713   3.7101   H         1 RES1   0.0000
     6 C3      14.3393   0.2305   3.5663   C.ar      1 RES1   0.0000
     7 H2      14.0375  -0.5784   3.1698   H         1 RES1   0.0000
     8 C4      15.6695   0.3948   3.7978   C.ar      1 RES1   0.0000
     9 H3      16.2888  -0.2850   3.5610   H         1 RES1   0.0000
    10 C5      16.1055   1.5760   4.3890   C.ar      1 RES1   0.0000
    11 H4      17.0310   1.6942   4.5609   H         1 RES1   0.0000
    12 N2      13.0695   3.4018   4.8574   N.pl3     1 RES1   0.0000
    13 C6      11.6365   3.4437   4.7293   C.3       1 RES1   0.0000
    14 H5      11.2340   3.6055   5.6082   H         1 RES1   0.0000
    15 H6      11.3145   2.5878   4.3767   H         1 RES1   0.0000
    16 H7      11.3838   4.1655   4.1171   H         1 RES1   0.0000
    17 N3      13.7402   4.4690   5.3643   N.2       1 RES1   0.0000
    18 C7      13.1343   5.5353   5.7854   C.2       1 RES1   0.0000
    19 H8      12.1954   5.6719   5.7748   H         1 RES1   0.0000
    20 C8      14.1068   6.4809   6.2713   C.2       1 RES1   0.0000
    21 N4      15.3923   6.1305   6.2414   N.2       1 RES1   0.0000
    22 C9      16.0965   7.1809   6.7695   C.2       1 RES1   0.0000
    23 H9      17.0422   7.2127   6.8572   H         1 RES1   0.0000
    24 C10     15.2604   8.1541   7.1413   C.2       1 RES1   0.0000
    25 H10     15.5041   8.9841   7.5343   H         1 RES1   0.0000
    26 N5      13.9749   7.7308   6.8466   N.pl3     1 RES1   0.0000
    27 C11     12.7297   8.4299   7.0852   C.3       1 RES1   0.0000
    28 H11     12.0836   8.1944   6.3853   H         1 RES1   0.0000
    29 H12     12.8884   9.3965   7.0694   H         1 RES1   0.0000
    30 H13     12.3720   8.1717   7.9606   H         1 RES1   0.0000
    31 N6      16.1144   5.0021   3.7294   N.ar      1 RES1   0.0000
    32 C12     17.4424   5.1547   3.5786   C.ar      1 RES1   0.0000
    33 C13     18.0058   5.6803   2.4103   C.ar      1 RES1   0.0000
    34 H14     18.9470   5.7868   2.3261   H         1 RES1   0.0000
    35 C14     17.1763   6.0299   1.4104   C.ar      1 RES1   0.0000
    36 H15     17.5363   6.4071   0.6157   H         1 RES1   0.0000
    37 C15     15.8193   5.8505   1.5174   C.ar      1 RES1   0.0000
    38 H16     15.2381   6.0802   0.8017   H         1 RES1   0.0000
    39 C16     15.3252   5.3307   2.6839   C.ar      1 RES1   0.0000
    40 H17     14.3863   5.1975   2.7611   H         1 RES1   0.0000
    41 N7      18.2338   4.7129   4.6434   N.pl3     1 RES1   0.0000
    42 C17     19.6780   4.7272   4.7591   C.3       1 RES1   0.0000
    43 H18     19.9351   5.1824   5.5889   H         1 RES1   0.0000
    44 H19     20.0625   5.2025   3.9943   H         1 RES1   0.0000
    45 H20     20.0134   3.8067   4.7749   H         1 RES1   0.0000
    46 N8      17.4983   4.2166   5.6643   N.2       1 RES1   0.0000
    47 C18     18.0371   3.7145   6.7554   C.2       1 RES1   0.0000
    48 H21     18.9716   3.6290   6.9098   H         1 RES1   0.0000
    49 C19     17.0176   3.3172   7.6711   C.2       1 RES1   0.0000
    50 N9      15.7344   3.5376   7.3273   N.2       1 RES1   0.0000
    51 C20     14.9631   3.1311   8.3710   C.2       1 RES1   0.0000
    52 H22     14.0152   3.1637   8.4061   H         1 RES1   0.0000
    53 C21     15.7947   2.6591   9.3797   C.2       1 RES1   0.0000
    54 H23     15.5242   2.3246  10.2270   H         1 RES1   0.0000
    55 N10     17.0892   2.7697   8.9148   N.pl3     1 RES1   0.0000
    56 C22     18.3210   2.3472   9.5744   C.3       1 RES1   0.0000
    57 H24     18.5378   1.4301   9.3060   H         1 RES1   0.0000
    58 H25     18.1980   2.3816  10.5463   H         1 RES1   0.0000
    59 H26     19.0520   2.9449   9.3166   H         1 RES1   0.0000
    60 C23     11.4531   5.1815   9.5534   C.3       2 RES2   0.0000
    61 F1      12.3988   5.8430   8.8640   F         2 RES2   0.0000
    62 F2      10.6259   6.1037  10.0937   F         2 RES2   0.0000
    63 F3      12.1618   4.6987  10.5550   F         2 RES2   0.0000
    64 S1      10.5949   3.9434   8.6201   S.o2      2 RES2   0.0000
    65 O1       9.7138   3.3943   9.5727   O.2       2 RES2   0.0000
    66 O2      11.6409   3.0908   8.1500   O.2       2 RES2   0.0000
    67 O3       9.9776   4.7716   7.5483   O.3       2 RES2  -1.0000
    68 C24     12.7677   0.8970  11.1006   C.3       3 RES3   0.0000
    69 F4      11.6923   0.7117  10.6375   F         3 RES3   0.0000
    70 F5      13.7201   0.1299  10.4796   F         3 RES3   0.0000
    71 F6      13.1589   2.1771  10.9445   F         3 RES3   0.0000
    72 S2      12.8412   0.6019  12.9214   S.o2      3 RES3   0.0000
    73 O4      12.4972  -0.7922  12.9741   O.3       3 RES3  -1.0000
    74 O5      11.8242   1.4444  13.3828   O.2       3 RES3   0.0000
    75 O6      14.0398   0.7629  13.2232   O.2       3 RES3   0.0000
    76 C25     13.2327  -0.2683  16.6263   C.3       4 RES4   0.0000
    77 H27     12.7274  -0.9054  16.0790   H         4 RES4   0.0000
    78 H28     12.7789   0.6011  16.6158   H         4 RES4   0.0000
    79 H29     13.2841  -0.5985  17.5473   H         4 RES4   0.0000
    80 O7      14.5092  -0.1299  16.1141   O.3       4 RES4   0.0000
    81 H30     14.4802   0.3144  15.4019   H         4 RES4   0.0000
@<TRIPOS>BOND
     1     1     2    1
     2     2     3   ar
     3     3     4   ar
     4     4     5    1
     5     6     4   ar
     6     7     6    1
     7     8     6   ar
     8     9     8    1
     9    10     2   ar
    10    11    10    1
    11    12     3    1
    12    13    12    1
    13    14    13    1
    14    15    13    1
    15    16    13    1
    16    17     1    1
    17    18    17    2
    18    19    18    1
    19    20    18    1
    20    21     1    1
    21    22    21    1
    22    23    22    1
    23    24    22    2
    24    25    24    1
    25    26    20    1
    26    27    26    1
    27    28    27    1
    28    29    27    1
    29    30    27    1
    30    31     1    1
    31    32    31   ar
    32    33    32   ar
    33    34    33    1
    34    35    33   ar
    35    36    35    1
    36    37    35   ar
    37    38    37    1
    38    39    31   ar
    39    40    39    1
    40    41    32    1
    41    42    41    1
    42    43    42    1
    43    44    42    1
    44    45    42    1
    45    46     1    1
    46    47    46    2
    47    48    47    1
    48    49    47    1
    49    50     1    1
    50    51    50    1
    51    52    51    1
    52    53    51    2
    53    54    53    1
    54    55    49    1
    55    56    55    1
    56    57    56    1
    57    58    56    1
    58    59    56    1
    59     8    10   ar
    60    12    17    1
    61    20    21    2
    62    24    26    1
    63    37    39   ar
    64    41    46    1
    65    49    50    2
    66    53    55    1
    67    60    61    1
    68    62    60    1
    69    63    60    1
    70    64    60    1
    71    65    64    2
    72    66    64    2
    73    67    64    1
    74    68    69    1
    75    70    68    1
    76    71    68    1
    77    72    68    1
    78    73    72    1
    79    74    72    2
    80    75    72    2
    81    76    77    1
    82    78    76    1
    83    79    76    1
    84    80    76    1
    85    81    80    1
@<TRIPOS>SUBSTRUCTURE
     1 RES1        1 GROUP             0 ****  ****    0  
     2 RES2       60 GROUP             0 ****  ****    0  
     3 RES3       68 GROUP             0 ****  ****    0  
     4 RES4       76 GROUP             0 ****  ****    0  
@<TRIPOS>CRYSIN
   22.3563    8.3830   17.5420   90.0000   90.0000   90.0000    29     1
