@<TRIPOS>MOLECULE
POQYAY
    84    88     4     0     0
SMALL
USER_CHARGES
****
Generated from the CSD

@<TRIPOS>ATOM
     1 Fe1     11.4280  11.0576   8.4363   Fe        1 RES1   2.0000
     2 N1      12.6509  12.0876   9.5651   N.ar      1 RES1   0.0000
     3 C1      12.5678  11.7909  10.8870   C.ar      1 RES1   0.0000
     4 C2      13.3960  12.4000  11.8298   C.ar      1 RES1   0.0000
     5 H1      13.3502  12.1590  12.7481   H         1 RES1   0.0000
     6 C3      14.2832  13.3619  11.3950   C.ar      1 RES1   0.0000
     7 H2      14.8574  13.7896  12.0197   H         1 RES1   0.0000
     8 C4      14.3454  13.7097  10.0532   C.ar      1 RES1   0.0000
     9 H3      14.9369  14.3872   9.7495   H         1 RES1   0.0000
    10 C5      13.5217  13.0405   9.1771   C.ar      1 RES1   0.0000
    11 H4      13.5689  13.2611   8.2547   H         1 RES1   0.0000
    12 N2      11.6061  10.8550  11.2155   N.pl3     1 RES1   0.0000
    13 C6      11.3071  10.3617  12.5511   C.3       1 RES1   0.0000
    14 H5      10.3501  10.4693  12.7318   H         1 RES1   0.0000
    15 H6      11.8238  10.8698  13.2101   H         1 RES1   0.0000
    16 H7      11.5460   9.4136  12.6104   H         1 RES1   0.0000
    17 N3      10.9296  10.3570  10.1322   N.2       1 RES1   0.0000
    18 C7      10.0540   9.3957  10.2168   C.2       1 RES1   0.0000
    19 H8       9.8100   8.9629  11.0268   H         1 RES1   0.0000
    20 C8       9.5035   9.0717   8.9228   C.2       1 RES1   0.0000
    21 N4      10.0116   9.8161   7.8540   N.2       1 RES1   0.0000
    22 C9       9.3560   9.4152   6.7823   C.2       1 RES1   0.0000
    23 H9       9.4967   9.7513   5.9048   H         1 RES1   0.0000
    24 N5       8.4569   8.4602   7.1066   N.pl3     1 RES1   0.0000
    25 H10      7.9106   8.0579   6.5462   H         1 RES1   0.0000
    26 C10      8.5385   8.2236   8.4531   C.2       1 RES1   0.0000
    27 H11      8.0300   7.5997   8.9577   H         1 RES1   0.0000
    28 N6      10.2625  12.6119   8.2449   N.ar      1 RES1   0.0000
    29 C11     10.4549  13.3188   7.1017   C.ar      1 RES1   0.0000
    30 C12      9.7279  14.4735   6.8161   C.ar      1 RES1   0.0000
    31 H12      9.8706  14.9508   6.0081   H         1 RES1   0.0000
    32 C13      8.7948  14.9067   7.7360   C.ar      1 RES1   0.0000
    33 H13      8.2943  15.6965   7.5680   H         1 RES1   0.0000
    34 C14      8.5888  14.1872   8.9066   C.ar      1 RES1   0.0000
    35 H14      7.9460  14.4725   9.5466   H         1 RES1   0.0000
    36 C15      9.3354  13.0550   9.1173   C.ar      1 RES1   0.0000
    37 H15      9.1920  12.5607   9.9162   H         1 RES1   0.0000
    38 N7      11.4283  12.8027   6.2597   N.pl3     1 RES1   0.0000
    39 C16     11.8335  13.3476   4.9768   C.3       1 RES1   0.0000
    40 H16     12.7997  13.5147   4.9826   H         1 RES1   0.0000
    41 H17     11.3566  14.1888   4.8141   H         1 RES1   0.0000
    42 H18     11.6169  12.7076   4.2669   H         1 RES1   0.0000
    43 N8      11.9842  11.6427   6.7176   N.2       1 RES1   0.0000
    44 C17     12.8435  10.9423   6.0345   C.2       1 RES1   0.0000
    45 H19     13.1362  11.1623   5.1583   H         1 RES1   0.0000
    46 C18     13.2943   9.7901   6.7768   C.2       1 RES1   0.0000
    47 N9      12.7702   9.6845   8.0643   N.2       1 RES1   0.0000
    48 C19     13.3144   8.6137   8.6031   C.2       1 RES1   0.0000
    49 H20     13.1356   8.2989   9.4813   H         1 RES1   0.0000
    50 N10     14.1601   8.0272   7.7317   N.pl3     1 RES1   0.0000
    51 H21     14.6333   7.3022   7.8869   H         1 RES1   0.0000
    52 C20     14.1601   8.7477   6.5665   C.2       1 RES1   0.0000
    53 H22     14.6566   8.5638   5.7779   H         1 RES1   0.0000
    54 C21     14.8128   3.7446   6.2635   C.3       2 RES2   0.0000
    55 F1      13.5541   4.1325   6.3485   F         2 RES2   0.0000
    56 F2      15.0464   2.8502   7.2294   F         2 RES2   0.0000
    57 F3      14.9345   3.1019   5.0981   F         2 RES2   0.0000
    58 S1      15.9567   5.1454   6.3817   S.o2      2 RES2   0.0000
    59 O1      15.5877   6.0054   5.2922   O.2       2 RES2   0.0000
    60 O2      17.2467   4.5229   6.2501   O.2       2 RES2   0.0000
    61 O3      15.6836   5.6740   7.7010   O.3       2 RES2  -1.0000
    62 C22      8.2174   5.3493   4.3017   C.3       3 RES3   0.0000
    63 F4       8.5336   4.0503   4.3361   F         3 RES3   0.0000
    64 F5       9.3173   6.0461   4.5948   F         3 RES3   0.0000
    65 F6       7.8742   5.6415   3.0459   F         3 RES3   0.0000
    66 S2       6.8648   5.7254   5.4730   S.o2      3 RES3   0.0000
    67 O4       7.4068   5.3505   6.7524   O.2       3 RES3   0.0000
    68 O5       6.6767   7.1512   5.2998   O.3       3 RES3  -1.0000
    69 O6       5.7787   4.9034   4.9996   O.2       3 RES3   0.0000
    70 O7      11.1955   4.3779   9.4158   O.3       4 RES4   0.0000
    71 C23     11.6393   5.5821   8.8180   C.3       4 RES4   0.0000
    72 H23     12.6210   5.5535   8.6914   H         4 RES4   0.0000
    73 H24     11.4233   6.3494   9.4052   H         4 RES4   0.0000
    74 C24     10.9577   5.7481   7.4894   C.3       4 RES4   0.0000
    75 H25     11.1845   4.9924   6.9085   H         4 RES4   0.0000
    76 H26     11.2572   6.5829   7.0716   H         4 RES4   0.0000
    77 H27      9.9868   5.7795   7.6224   H         4 RES4   0.0000
    78 C25     11.8503   4.1262  10.6384   C.3       4 RES4   0.0000
    79 H28     11.7744   4.9183  11.2280   H         4 RES4   0.0000
    80 H29     12.8114   3.9542  10.4742   H         4 RES4   0.0000
    81 C26     11.2262   2.9349  11.3037   C.3       4 RES4   0.0000
    82 H30     11.3037   2.1554  10.7152   H         4 RES4   0.0000
    83 H31     10.2789   3.1182  11.4798   H         4 RES4   0.0000
    84 H32     11.6864   2.7542  12.1502   H         4 RES4   0.0000
@<TRIPOS>BOND
     1     1     2    1
     2     2     3   ar
     3     3     4   ar
     4     4     5    1
     5     6     4   ar
     6     7     6    1
     7     8     6   ar
     8     9     8    1
     9    10     2   ar
    10    11    10    1
    11    12     3    1
    12    13    12    1
    13    14    13    1
    14    15    13    1
    15    16    13    1
    16    17     1    1
    17    18    17    2
    18    19    18    1
    19    20    18    1
    20    21     1    1
    21    22    21    2
    22    23    22    1
    23    24    22    1
    24    25    24    1
    25    26    20    2
    26    27    26    1
    27    28     1    1
    28    29    28   ar
    29    30    29   ar
    30    31    30    1
    31    32    30   ar
    32    33    32    1
    33    34    32   ar
    34    35    34    1
    35    36    28   ar
    36    37    36    1
    37    38    29    1
    38    39    38    1
    39    40    39    1
    40    41    39    1
    41    42    39    1
    42    43     1    1
    43    44    43    2
    44    45    44    1
    45    46    44    1
    46    47     1    1
    47    48    47    2
    48    49    48    1
    49    50    48    1
    50    51    50    1
    51    52    46    2
    52    53    52    1
    53     8    10   ar
    54    12    17    1
    55    20    21    1
    56    24    26    1
    57    34    36   ar
    58    38    43    1
    59    46    47    1
    60    50    52    1
    61    54    55    1
    62    56    54    1
    63    57    54    1
    64    58    54    1
    65    59    58    2
    66    60    58    2
    67    61    58    1
    68    62    63    1
    69    64    62    1
    70    65    62    1
    71    66    62    1
    72    67    66    2
    73    68    66    1
    74    69    66    2
    75    70    71    1
    76    71    72    1
    77    73    71    1
    78    74    71    1
    79    75    74    1
    80    76    74    1
    81    77    74    1
    82    78    70    1
    83    79    78    1
    84    80    78    1
    85    81    78    1
    86    82    81    1
    87    83    81    1
    88    84    81    1
@<TRIPOS>SUBSTRUCTURE
     1 RES1        1 GROUP             0 ****  ****    0  
     2 RES2       54 GROUP             0 ****  ****    0  
     3 RES3       62 GROUP             0 ****  ****    0  
     4 RES4       70 GROUP             0 ****  ****    0  
@<TRIPOS>CRYSIN
   15.5382   12.5532   18.1225   90.0000   91.2230   90.0000    14     1
