@<TRIPOS>MOLECULE
POTTAT
    76    79     3     0     0
SMALL
USER_CHARGES
****
Generated from the CSD

@<TRIPOS>ATOM
     1 Fe1      0.0000   0.0000   0.0000   Fe        1 RES1   0.0000
     2 Cl1     -1.9936   0.4784   1.2604   Cl        1 RES1   0.0000
     3 N1       0.8327  -1.1630   1.7741   N.ar      1 RES1   0.0000
     4 N2       0.8709   2.0011   0.6370   N.ar      1 RES1   0.0000
     5 C1       0.0270  -1.9058   2.5421   C.ar      1 RES1   0.0000
     6 H2      -0.8799  -1.9200   2.3358   H         1 RES1   0.0000
     7 C2       0.4573  -2.6480   3.6159   C.ar      1 RES1   0.0000
     8 H3      -0.1426  -3.1566   4.1128   H         1 RES1   0.0000
     9 C3       1.8038  -2.6214   3.9412   C.ar      1 RES1   0.0000
    10 H4       2.1303  -3.1102   4.6625   H         1 RES1   0.0000
    11 C4       2.6471  -1.8549   3.1716   C.ar      1 RES1   0.0000
    12 H5       3.5543  -1.8099   3.3719   H         1 RES1   0.0000
    13 C5       2.1374  -1.1554   2.1024   C.ar      1 RES1   0.0000
    14 H6       2.7220  -0.6528   1.5828   H         1 RES1   0.0000
    15 C6       2.1824   2.1712   0.8780   C.ar      1 RES1   0.0000
    16 H7       2.7625   1.4690   0.6928   H         1 RES1   0.0000
    17 C7       2.7037   3.3388   1.3885   C.ar      1 RES1   0.0000
    18 H8       3.6143   3.4083   1.5617   H         1 RES1   0.0000
    19 C8       1.8721   4.3964   1.6400   C.ar      1 RES1   0.0000
    20 H9       2.2031   5.1904   1.9924   H         1 RES1   0.0000
    21 C9       0.5308   4.2531   1.3599   C.ar      1 RES1   0.0000
    22 H10     -0.0578   4.9593   1.5000   H         1 RES1   0.0000
    23 C10      0.0772   3.0607   0.8705   C.ar      1 RES1   0.0000
    24 H11     -0.8316   2.9781   0.6882   H         1 RES1   0.0000
    25 Cl1A     1.9936  -0.4784  -1.2604   Cl        1 RES1   0.0000
    26 N1A     -0.8327   1.1630  -1.7741   N.ar      1 RES1   0.0000
    27 C1A     -0.0270   1.9058  -2.5421   C.ar      1 RES1   0.0000
    28 H2A      0.8799   1.9200  -2.3358   H         1 RES1   0.0000
    29 C2A     -0.4573   2.6480  -3.6159   C.ar      1 RES1   0.0000
    30 H3A      0.1426   3.1566  -4.1128   H         1 RES1   0.0000
    31 C3A     -1.8038   2.6214  -3.9412   C.ar      1 RES1   0.0000
    32 H4A     -2.1303   3.1102  -4.6625   H         1 RES1   0.0000
    33 C4A     -2.6471   1.8549  -3.1716   C.ar      1 RES1   0.0000
    34 H5A     -3.5543   1.8099  -3.3719   H         1 RES1   0.0000
    35 C5A     -2.1374   1.1554  -2.1024   C.ar      1 RES1   0.0000
    36 H6A     -2.7220   0.6528  -1.5828   H         1 RES1   0.0000
    37 N2A     -0.8709  -2.0011  -0.6370   N.ar      1 RES1   0.0000
    38 C6A     -2.1824  -2.1712  -0.8780   C.ar      1 RES1   0.0000
    39 H7A     -2.7625  -1.4690  -0.6928   H         1 RES1   0.0000
    40 C7A     -2.7037  -3.3388  -1.3885   C.ar      1 RES1   0.0000
    41 H8A     -3.6143  -3.4083  -1.5617   H         1 RES1   0.0000
    42 C8A     -1.8721  -4.3964  -1.6400   C.ar      1 RES1   0.0000
    43 H9A     -2.2031  -5.1904  -1.9924   H         1 RES1   0.0000
    44 C9A     -0.5308  -4.2531  -1.3599   C.ar      1 RES1   0.0000
    45 H10A     0.0578  -4.9593  -1.5000   H         1 RES1   0.0000
    46 C10A    -0.0772  -3.0607  -0.8705   C.ar      1 RES1   0.0000
    47 H11A     0.8316  -2.9781  -0.6882   H         1 RES1   0.0000
    48 Cl2      2.8704   5.7900   5.8926   Cl        2 RES2  -1.0000
    49 N3      -2.5963   0.8200   5.7604   N.pl3     3 RES3   0.0000
    50 N4      -3.6520   2.7910   6.3116   N.pl3     3 RES3   1.0000
    51 H1      -3.8392   3.6382   6.1128   H         3 RES3   0.0000
    52 C11     -3.1090   0.1366   6.9592   C.3       3 RES3   0.0000
    53 H12     -2.4650   0.2142   7.6805   H         3 RES3   0.0000
    54 H13     -3.2383  -0.8056   6.7694   H         3 RES3   0.0000
    55 C12     -4.4074   0.7477   7.3778   C.3       3 RES3   0.0000
    56 H14     -4.6854   0.3682   8.2257   H         3 RES3   0.0000
    57 H15     -5.0889   0.5413   6.7182   H         3 RES3   0.0000
    58 C13     -4.2781   2.2303   7.5134   C.3       3 RES3   0.0000
    59 H16     -5.1556   2.6244   7.6384   H         3 RES3   0.0000
    60 H17     -3.7388   2.4406   8.2920   H         3 RES3   0.0000
    61 C14     -2.8466   2.0982   5.5375   C.2       3 RES3   0.0000
    62 C15     -2.1602   2.8187   4.4216   C.3       3 RES3   0.0000
    63 H18     -2.5820   3.6827   4.2936   H         3 RES3   0.0000
    64 H19     -2.2647   2.3112   3.6023   H         3 RES3   0.0000
    65 C16     -0.6710   3.0235   4.6987   C.3       3 RES3   0.0000
    66 H20     -0.3555   3.7649   4.1595   H         3 RES3   0.0000
    67 H21     -0.5616   3.2727   5.6294   H         3 RES3   0.0000
    68 C17      0.1974   1.8188   4.4171   C.3       3 RES3   0.0000
    69 H22      1.1205   2.0489   4.6083   H         3 RES3   0.0000
    70 H23      0.1376   1.6048   3.4728   H         3 RES3   0.0000
    71 C18     -0.1729   0.5866   5.2197   C.3       3 RES3   0.0000
    72 H24     -0.0772   0.7884   6.1640   H         3 RES3   0.0000
    73 H25      0.4513  -0.1247   5.0059   H         3 RES3   0.0000
    74 C19     -1.5846   0.0909   4.9667   C.3       3 RES3   0.0000
    75 H26     -1.7904   0.1904   4.0240   H         3 RES3   0.0000
    76 H27     -1.6323  -0.8532   5.1836   H         3 RES3   0.0000
@<TRIPOS>BOND
     1     1     2    1
     2     3     1    1
     3     4     1    1
     4     5     3   ar
     5     6     5    1
     6     7     5   ar
     7     8     7    1
     8     9     7   ar
     9    10     9    1
    10    11     9   ar
    11    12    11    1
    12    13     3   ar
    13    14    13    1
    14    15     4   ar
    15    16    15    1
    16    17    15   ar
    17    18    17    1
    18    19    17   ar
    19    20    19    1
    20    21    19   ar
    21    22    21    1
    22    23     4   ar
    23    24    23    1
    24    25     1    1
    25    26     1    1
    26    27    26   ar
    27    28    27    1
    28    29    27   ar
    29    30    29    1
    30    31    29   ar
    31    32    31    1
    32    33    31   ar
    33    34    33    1
    34    35    26   ar
    35    36    35    1
    36    37     1    1
    37    38    37   ar
    38    39    38    1
    39    40    38   ar
    40    41    40    1
    41    42    40   ar
    42    43    42    1
    43    44    42   ar
    44    45    44    1
    45    46    37   ar
    46    47    46    1
    47    11    13   ar
    48    21    23   ar
    49    33    35   ar
    50    44    46   ar
    51    49    52    1
    52    50    51    1
    53    52    53    1
    54    54    52    1
    55    55    52    1
    56    56    55    1
    57    57    55    1
    58    58    50    1
    59    59    58    1
    60    60    58    1
    61    61    49    1
    62    62    61    1
    63    63    62    1
    64    64    62    1
    65    65    62    1
    66    66    65    1
    67    67    65    1
    68    68    65    1
    69    69    68    1
    70    70    68    1
    71    71    68    1
    72    72    71    1
    73    73    71    1
    74    74    49    1
    75    75    74    1
    76    76    74    1
    77    50    61    2
    78    55    58    1
    79    71    74    1
@<TRIPOS>SUBSTRUCTURE
     1 RES1        1 GROUP             0 ****  ****    0  
     2 RES2       48 GROUP             0 ****  ****    0  
     3 RES3       49 GROUP             0 ****  ****    0  
@<TRIPOS>CRYSIN
    7.2582    9.5850   15.4700   93.6260  101.7030  101.4790     2     1
