@<TRIPOS>MOLECULE
POWQOI
    85    86     2     0     0
SMALL
NO_CHARGES
****
Generated from the CSD

@<TRIPOS>ATOM
     1 Fe1      4.4580   0.0000   0.0000   Fe        1 RES1   0.0000
     2 N1       2.9826   1.1251   1.4239   N.ar      1 RES1   0.0000
     3 N2       1.5840  -0.7065   4.8858   N.2       1 RES1   0.0000
     4 N3       1.0869  -1.2934   6.0177   N.am      1 RES1   0.0000
     5 H1       0.3443  -0.9965   6.3846   H         1 RES1   0.0000
     6 N4       2.8057  -2.7714   5.9195   N.am      1 RES1   0.0000
     7 H2       3.0506  -2.3888   5.1649   H         1 RES1   0.0000
     8 H3       3.2689  -3.4472   6.2409   H         1 RES1   0.0000
     9 N5       4.3630  -1.7655   1.2055   N.2       1 RES1   0.0000
    10 O1       6.2563   0.6096   1.1037   O.3       1 RES1   0.0000
    11 S1       1.2344  -2.9827   8.0366   S.2       1 RES1   0.0000
    12 S2       4.3728  -3.7777   3.1225   S.2       1 RES1   0.0000
    13 C2       2.4633   2.3290   1.0948   C.ar      1 RES1   0.0000
    14 H8       2.7837   2.7671   0.3165   H         1 RES1   0.0000
    15 C3       1.4867   2.9449   1.8455   C.ar      1 RES1   0.0000
    16 H9       1.1412   3.7905   1.5856   H         1 RES1   0.0000
    17 C4       1.0183   2.3177   2.9765   C.ar      1 RES1   0.0000
    18 H10      0.3508   2.7320   3.5110   H         1 RES1   0.0000
    19 C5       1.5260   1.0790   3.3314   C.ar      1 RES1   0.0000
    20 C6       2.5060   0.5304   2.5162   C.ar      1 RES1   0.0000
    21 H11      2.8592  -0.3196   2.7516   H         1 RES1   0.0000
    22 C7       1.0491   0.3994   4.5246   C.2       1 RES1   0.0000
    23 H12      0.3419   0.7752   5.0357   H         1 RES1   0.0000
    24 C8       1.7513  -2.3332   6.5647   C.2       1 RES1   0.0000
    25 C9       4.3770  -2.6071   1.9980   C.1       1 RES1   0.0000
    26 C10      6.4495   1.8233   1.7918   C.3       1 RES1   0.0000
    27 H13      5.8701   2.5165   1.3881   H         1 RES1   0.0000
    28 H14      7.3899   2.1109   1.6771   H         1 RES1   0.0000
    29 C11      6.1447   1.7281   3.2555   C.3       1 RES1   0.0000
    30 H15      5.1990   1.5026   3.3789   H         1 RES1   0.0000
    31 H16      6.3341   2.5890   3.6853   H         1 RES1   0.0000
    32 H17      6.7023   1.0314   3.6606   H         1 RES1   0.0000
    33 H22      6.6857   0.0006   1.4375   H         1 RES1   0.0000
    34 N1A      5.9334  -1.1251  -1.4239   N.ar      1 RES1   0.0000
    35 N2A      7.3320   0.7065  -4.8858   N.2       1 RES1   0.0000
    36 N3A      7.8291   1.2934  -6.0177   N.am      1 RES1   0.0000
    37 H1A      8.5717   0.9965  -6.3846   H         1 RES1   0.0000
    38 N4A      6.1103   2.7714  -5.9195   N.am      1 RES1   0.0000
    39 H2A      5.8654   2.3888  -5.1649   H         1 RES1   0.0000
    40 H3A      5.6471   3.4472  -6.2409   H         1 RES1   0.0000
    41 N5A      4.5530   1.7655  -1.2055   N.2       1 RES1   0.0000
    42 O1A      2.6597  -0.6096  -1.1037   O.3       1 RES1   0.0000
    43 S1A      7.6816   2.9827  -8.0366   S.2       1 RES1   0.0000
    44 S2A      4.5432   3.7777  -3.1225   S.2       1 RES1   0.0000
    45 C2A      6.4527  -2.3290  -1.0948   C.ar      1 RES1   0.0000
    46 H8A      6.1323  -2.7671  -0.3165   H         1 RES1   0.0000
    47 C3A      7.4293  -2.9449  -1.8455   C.ar      1 RES1   0.0000
    48 H9A      7.7748  -3.7905  -1.5856   H         1 RES1   0.0000
    49 C4A      7.8977  -2.3177  -2.9765   C.ar      1 RES1   0.0000
    50 H10A     8.5652  -2.7320  -3.5110   H         1 RES1   0.0000
    51 C5A      7.3900  -1.0790  -3.3314   C.ar      1 RES1   0.0000
    52 C6A      6.4100  -0.5304  -2.5162   C.ar      1 RES1   0.0000
    53 H11A     6.0568   0.3196  -2.7516   H         1 RES1   0.0000
    54 C7A      7.8669  -0.3994  -4.5246   C.2       1 RES1   0.0000
    55 H12A     8.5741  -0.7752  -5.0357   H         1 RES1   0.0000
    56 C8A      7.1647   2.3332  -6.5647   C.2       1 RES1   0.0000
    57 C9A      4.5390   2.6071  -1.9980   C.1       1 RES1   0.0000
    58 C10A     2.4665  -1.8233  -1.7918   C.3       1 RES1   0.0000
    59 H13A     3.0459  -2.5165  -1.3881   H         1 RES1   0.0000
    60 H14A     1.5261  -2.1109  -1.6771   H         1 RES1   0.0000
    61 C11A     2.7713  -1.7281  -3.2555   C.3       1 RES1   0.0000
    62 H15A     3.7170  -1.5026  -3.3789   H         1 RES1   0.0000
    63 H16A     2.5819  -2.5890  -3.6853   H         1 RES1   0.0000
    64 H17A     2.2137  -1.0314  -3.6606   H         1 RES1   0.0000
    65 H22A     2.2303  -0.0006  -1.4375   H         1 RES1   0.0000
    66 C1       8.4909   3.2897  12.7663   C.ar      2 RES2   0.0000
    67 H4       7.7205   3.4858  13.2862   H         2 RES2   0.0000
    68 N6       9.6266   5.5076   9.3591   N.2       2 RES2   0.0000
    69 N7      10.1180   6.2408   8.3075   N.am      2 RES2   0.0000
    70 H5      10.8948   6.0356   7.9485   H         2 RES2   0.0000
    71 N8       8.1964   7.4456   8.3318   N.am      2 RES2   0.0000
    72 H6       7.9031   6.8912   8.9489   H         2 RES2   0.0000
    73 H7       7.6849   8.1068   8.0545   H         2 RES2   0.0000
    74 S3      10.0320   8.2820   6.6312   S.2       2 RES2   0.0000
    75 C12      9.3065   2.2447  13.1046   C.ar      2 RES2   0.0000
    76 H18      9.0918   1.7338  13.8771   H         2 RES2   0.0000
    77 N9      10.3875   1.9118  12.4019   N.ar      2 RES2   0.0000
    78 C13     10.6748   2.6487  11.3303   C.ar      2 RES2   0.0000
    79 H19     11.4435   2.4190  10.8220   H         2 RES2   0.0000
    80 C14      9.9128   3.7390  10.9106   C.ar      2 RES2   0.0000
    81 C15      8.7962   4.0550  11.6628   C.ar      2 RES2   0.0000
    82 H20      8.2462   4.7910  11.4203   H         2 RES2   0.0000
    83 C16     10.3283   4.5222   9.7591   C.2       2 RES2   0.0000
    84 H21     11.1303   4.2980   9.3018   H         2 RES2   0.0000
    85 C17      9.3960   7.2884   7.8226   C.2       2 RES2   0.0000
@<TRIPOS>BOND
     1     1     2    1
     2     2    13   ar
     3     3     4    1
     4     4     5    1
     5     6     7    1
     6     8     6    1
     7     9     1    1
     8    10     1    1
     9    11    24    2
    10    12    25    2
    11    13    14    1
    12    15    13   ar
    13    16    15    1
    14    17    15   ar
    15    18    17    1
    16    19    17   ar
    17    20     2   ar
    18    21    20    1
    19    22     3    2
    20    23    22    1
    21    24     4   am
    22    25     9    2
    23    26    10    1
    24    27    26    1
    25    28    26    1
    26    29    26    1
    27    30    29    1
    28    31    29    1
    29    32    29    1
    30    33    10    1
    31    34     1    1
    32    35    36    1
    33    36    37    1
    34    38    39    1
    35    40    38    1
    36    41     1    1
    37    42     1    1
    38    43    56    2
    39    44    57    2
    40    45    34   ar
    41    46    45    1
    42    47    45   ar
    43    48    47    1
    44    49    47   ar
    45    50    49    1
    46    51    49   ar
    47    52    34   ar
    48    53    52    1
    49    54    35    2
    50    55    54    1
    51    56    36   am
    52    57    41    2
    53    58    42    1
    54    59    58    1
    55    60    58    1
    56    61    58    1
    57    62    61    1
    58    63    61    1
    59    64    61    1
    60    65    42    1
    61     6    24   am
    62    19    20   ar
    63    19    22    1
    64    38    56   am
    65    51    52   ar
    66    51    54    1
    67    66    67    1
    68    68    69    1
    69    69    70    1
    70    71    72    1
    71    73    71    1
    72    74    85    2
    73    75    66   ar
    74    76    75    1
    75    77    75   ar
    76    78    77   ar
    77    79    78    1
    78    80    78   ar
    79    81    66   ar
    80    82    81    1
    81    83    68    2
    82    84    83    1
    83    85    69   am
    84    71    85   am
    85    80    81   ar
    86    80    83    1
@<TRIPOS>SUBSTRUCTURE
     1 RES1        1 GROUP             0 ****  ****    0  
     2 RES2       66 GROUP             0 ****  ****    0  
@<TRIPOS>CRYSIN
    8.9160    9.5560   14.5380   87.3410   88.1910   69.6040     2     1
