@<TRIPOS>MOLECULE
POWSID
    57    68     2     0     0
SMALL
NO_CHARGES
****
Generated from the CSD

@<TRIPOS>ATOM
     1 Fe1      6.7671   4.5325  15.2415   Fe        1 RES1   0.0000
     2 S1       9.7414   6.9760  17.9316   S.2       1 RES1   0.0000
     3 S2       3.7919   6.8941  12.5071   S.2       1 RES1   0.0000
     4 N1       5.1671   3.0626  15.0012   N.ar      1 RES1   0.0000
     5 N2       5.9517   4.2155  17.2219   N.ar      1 RES1   0.0000
     6 N3       1.4783   1.0162  17.3389   N.ar      1 RES1   0.0000
     7 N4       2.3511   2.2641  19.7081   N.ar      1 RES1   0.0000
     8 N5       8.1895   5.9232  15.9258   N.2       1 RES1   0.0000
     9 N6       5.3862   5.9371  14.5413   N.2       1 RES1   0.0000
    10 N7       8.3380   2.9677  15.4485   N.ar      1 RES1   0.0000
    11 N8       7.4893   4.1825  13.1535   N.ar      1 RES1   0.0000
    12 N9      12.1410   1.0389  13.1251   N.ar      1 RES1   0.0000
    13 N10     11.1811   2.2780  10.7242   N.ar      1 RES1   0.0000
    14 C1       4.8543   2.4618  13.8758   C.ar      1 RES1   0.0000
    15 C2       3.7031   1.6005  13.8189   C.ar      1 RES1   0.0000
    16 C3       2.8831   1.3907  14.9000   C.ar      1 RES1   0.0000
    17 C4       3.3235   1.9785  16.0981   C.ar      1 RES1   0.0000
    18 C5       4.4825   2.8867  16.1503   C.ar      1 RES1   0.0000
    19 C6       4.8233   3.4170  17.3610   C.ar      1 RES1   0.0000
    20 C7       4.1832   3.1984  18.5828   C.ar      1 RES1   0.0000
    21 C8       4.7608   3.8707  19.6987   C.ar      1 RES1   0.0000
    22 C9       5.8006   4.6135  19.6291   C.ar      1 RES1   0.0000
    23 C10      6.4094   4.7615  18.4042   C.ar      1 RES1   0.0000
    24 C11      2.4499   1.8052  17.4179   C.ar      1 RES1   0.0000
    25 C12      2.9252   2.4687  18.5306   C.ar      1 RES1   0.0000
    26 C13      1.2714   1.5413  19.7129   C.ar      1 RES1   0.0000
    27 C14      0.5237   1.3306  20.9157   C.ar      1 RES1   0.0000
    28 C15     -0.5774   0.5251  20.8620   C.ar      1 RES1   0.0000
    29 C16     -1.1107  -0.0078  19.7777   C.ar      1 RES1   0.0000
    30 C17     -0.4038   0.1123  18.5512   C.ar      1 RES1   0.0000
    31 C18      0.7974   0.8421  18.5369   C.ar      1 RES1   0.0000
    32 C19      8.8617   6.3804  16.6877   C.1       1 RES1   0.0000
    33 C20      4.7265   6.3499  13.6609   C.1       1 RES1   0.0000
    34 C21      8.8591   2.4304  16.5707   C.ar      1 RES1   0.0000
    35 C22      9.9518   1.6650  16.7051   C.ar      1 RES1   0.0000
    36 C23     10.6230   1.4229  15.5671   C.ar      1 RES1   0.0000
    37 C24     10.2737   2.0037  14.3421   C.ar      1 RES1   0.0000
    38 C25      9.1841   2.7012  14.3437   C.ar      1 RES1   0.0000
    39 C26      8.5851   3.4492  13.1219   C.ar      1 RES1   0.0000
    40 C27      9.3415   3.2664  11.9697   C.ar      1 RES1   0.0000
    41 C28      8.9218   3.8524  10.7795   C.ar      1 RES1   0.0000
    42 C29      7.6846   4.6283  10.8996   C.ar      1 RES1   0.0000
    43 C30      7.0875   4.7833  12.0993   C.ar      1 RES1   0.0000
    44 C31     10.9216   1.7608  13.1741   C.ar      1 RES1   0.0000
    45 C32     10.5148   2.3546  11.8906   C.ar      1 RES1   0.0000
    46 C33     12.7951   0.9370  11.9855   C.ar      1 RES1   0.0000
    47 C34     13.9373   0.1045  11.8922   C.ar      1 RES1   0.0000
    48 C35     14.6178  -0.0409  10.7969   C.ar      1 RES1   0.0000
    49 C36     14.2240   0.6853   9.5467   C.ar      1 RES1   0.0000
    50 C37     13.0391   1.3463   9.5972   C.ar      1 RES1   0.0000
    51 C38     12.3230   1.4377  10.7858   C.ar      1 RES1   0.0000
    52 N11      1.3160   4.9766  15.1340   N.ar      2 RES2   0.0000
    53 C39      1.1685   6.2663  15.1356   C.ar      2 RES2   0.0000
    54 C40     -0.1441   6.6547  15.2146   C.ar      2 RES2   0.0000
    55 C41     -1.1592   5.6959  15.2920   C.ar      2 RES2   0.0000
    56 C42     -0.8332   4.3575  15.2889   C.ar      2 RES2   0.0000
    57 C43      0.4986   3.9691  15.2130   C.ar      2 RES2   0.0000
@<TRIPOS>BOND
     1     1     4    1
     2     2    32    2
     3     3    33    2
     4     4    14   ar
     5     5     1    1
     6     6    24   ar
     7     7    25   ar
     8     8     1    1
     9     9     1    1
    10    10     1    1
    11    11     1    1
    12    12    44   ar
    13    13    45   ar
    14    14    15   ar
    15    15    16   ar
    16    16    17   ar
    17    17    18   ar
    18    18     4   ar
    19    19     5   ar
    20    20    19   ar
    21    21    20   ar
    22    22    21   ar
    23    23     5   ar
    24    24    17    1
    25    25    20    1
    26    26     7   ar
    27    27    26   ar
    28    28    27   ar
    29    29    28   ar
    30    30    29   ar
    31    31     6   ar
    32    32     8    2
    33    33     9    2
    34    34    10   ar
    35    35    34   ar
    36    36    35   ar
    37    37    36   ar
    38    38    10   ar
    39    39    11   ar
    40    40    39   ar
    41    41    40   ar
    42    42    41   ar
    43    43    11   ar
    44    44    37    1
    45    45    40    1
    46    46    12   ar
    47    47    46   ar
    48    48    47   ar
    49    49    48   ar
    50    50    49   ar
    51    51    13   ar
    52    18    19    1
    53    22    23   ar
    54    24    25   ar
    55    26    31   ar
    56    30    31   ar
    57    37    38   ar
    58    38    39    1
    59    42    43   ar
    60    44    45   ar
    61    46    51   ar
    62    50    51   ar
    63    52    53   ar
    64    53    54   ar
    65    54    55   ar
    66    55    56   ar
    67    56    57   ar
    68    57    52   ar
@<TRIPOS>SUBSTRUCTURE
     1 RES1        1 GROUP             0 ****  ****    0  
     2 RES2       52 GROUP             0 ****  ****    0  
