@<TRIPOS>MOLECULE
POWSID10
    82    93     2     0     0
SMALL
NO_CHARGES
****
Generated from the CSD

@<TRIPOS>ATOM
     1 Fe1      2.3553   0.1892   3.9522   Fe        1 RES1   0.0000
     2 N1       3.9546  -1.3423   4.1753   N.ar      1 RES1   0.0000
     3 N2       3.1312  -0.1477   1.9187   N.ar      1 RES1   0.0000
     4 N3       7.6937  -3.2951   1.8465   N.ar      1 RES1   0.0000
     5 N4       6.7683  -2.0763  -0.5260   N.ar      1 RES1   0.0000
     6 C1       4.3708  -1.8944   5.3191   C.ar      1 RES1   0.0000
     7 H1       3.8796  -1.7358   6.0926   H         1 RES1   0.0000
     8 C2       5.4914  -2.6862   5.4044   C.ar      1 RES1   0.0000
     9 H2       5.7448  -3.0529   6.2206   H         1 RES1   0.0000
    10 C3       6.2330  -2.9311   4.2773   C.ar      1 RES1   0.0000
    11 H3       6.9876  -3.4724   4.3201   H         1 RES1   0.0000
    12 C4       5.8422  -2.3563   3.0600   C.ar      1 RES1   0.0000
    13 C5       4.6953  -1.5717   3.0631   C.ar      1 RES1   0.0000
    14 C6       4.2383  -0.9165   1.8367   C.ar      1 RES1   0.0000
    15 C7       4.9324  -1.1086   0.6407   C.ar      1 RES1   0.0000
    16 C8       4.4384  -0.4924  -0.5146   C.ar      1 RES1   0.0000
    17 H4       4.8754  -0.5997  -1.3285   H         1 RES1   0.0000
    18 C9       3.3092   0.2657  -0.4324   C.ar      1 RES1   0.0000
    19 H5       2.9621   0.6718  -1.1935   H         1 RES1   0.0000
    20 C10      2.6797   0.4275   0.7944   C.ar      1 RES1   0.0000
    21 H6       1.9154   0.9555   0.8384   H         1 RES1   0.0000
    22 C11      6.5965  -2.5486   1.8239   C.ar      1 RES1   0.0000
    23 C12      6.1311  -1.9323   0.6207   C.ar      1 RES1   0.0000
    24 C13      7.8835  -2.8366  -0.5214   C.ar      1 RES1   0.0000
    25 C14      8.6139  -3.0029  -1.7281   C.ar      1 RES1   0.0000
    26 H7       8.3061  -2.6173  -2.5165   H         1 RES1   0.0000
    27 C15      9.7614  -3.7255  -1.7271   C.ar      1 RES1   0.0000
    28 H8      10.2507  -3.8125  -2.5131   H         1 RES1   0.0000
    29 C16     10.2197  -4.3452  -0.5487   C.ar      1 RES1   0.0000
    30 H9      11.0201  -4.8635  -0.5913   H         1 RES1   0.0000
    31 C17      9.5377  -4.2188   0.6210   C.ar      1 RES1   0.0000
    32 H10      9.8504  -4.6408   1.3883   H         1 RES1   0.0000
    33 C18      8.3570  -3.4485   0.6730   C.ar      1 RES1   0.0000
    34 S1      -0.6400   2.5601   1.2198   S.2       1 RES1   0.0000
    35 N5       0.9471   1.5761   3.2645   N.2       1 RES1   0.0000
    36 C19      0.2821   2.0008   2.4322   C.1       1 RES1   0.0000
    37 N1A      0.7559  -1.3423   3.7292   N.ar      1 RES1   0.0000
    38 N2A      1.5793  -0.1477   5.9857   N.ar      1 RES1   0.0000
    39 N3A     -2.9831  -3.2951   6.0580   N.ar      1 RES1   0.0000
    40 N4A     -2.0577  -2.0763   8.4304   N.ar      1 RES1   0.0000
    41 C1A      0.3397  -1.8944   2.5854   C.ar      1 RES1   0.0000
    42 H1A      0.8309  -1.7358   1.8118   H         1 RES1   0.0000
    43 C2A     -0.7809  -2.6862   2.5000   C.ar      1 RES1   0.0000
    44 H2A     -1.0343  -3.0529   1.6838   H         1 RES1   0.0000
    45 C3A     -1.5224  -2.9311   3.6272   C.ar      1 RES1   0.0000
    46 H3A     -2.2771  -3.4724   3.5844   H         1 RES1   0.0000
    47 C4A     -1.1317  -2.3563   4.8445   C.ar      1 RES1   0.0000
    48 C5A      0.0152  -1.5717   4.8413   C.ar      1 RES1   0.0000
    49 C6A      0.4722  -0.9165   6.0678   C.ar      1 RES1   0.0000
    50 C7A     -0.2219  -1.1086   7.2637   C.ar      1 RES1   0.0000
    51 C8A      0.2721  -0.4924   8.4190   C.ar      1 RES1   0.0000
    52 H4A     -0.1649  -0.5997   9.2329   H         1 RES1   0.0000
    53 C9A      1.4014   0.2657   8.3368   C.ar      1 RES1   0.0000
    54 H5A      1.7485   0.6718   9.0979   H         1 RES1   0.0000
    55 C10A     2.0308   0.4275   7.1101   C.ar      1 RES1   0.0000
    56 H6A      2.7951   0.9555   7.0661   H         1 RES1   0.0000
    57 C11A    -1.8860  -2.5486   6.0806   C.ar      1 RES1   0.0000
    58 C12A    -1.4206  -1.9323   7.2838   C.ar      1 RES1   0.0000
    59 C13A    -3.1729  -2.8366   8.4258   C.ar      1 RES1   0.0000
    60 C14A    -3.9034  -3.0029   9.6325   C.ar      1 RES1   0.0000
    61 H7A     -3.5956  -2.6173  10.4209   H         1 RES1   0.0000
    62 C15A    -5.0508  -3.7255   9.6316   C.ar      1 RES1   0.0000
    63 H8A     -5.5402  -3.8125  10.4175   H         1 RES1   0.0000
    64 C16A    -5.5092  -4.3452   8.4532   C.ar      1 RES1   0.0000
    65 H9A     -6.3096  -4.8635   8.4957   H         1 RES1   0.0000
    66 C17A    -4.8271  -4.2188   7.2835   C.ar      1 RES1   0.0000
    67 H10A    -5.1399  -4.6408   6.5161   H         1 RES1   0.0000
    68 C18A    -3.6464  -3.4485   7.2315   C.ar      1 RES1   0.0000
    69 S1A      5.3505   2.5601   6.6846   S.2       1 RES1   0.0000
    70 N5A      3.7635   1.5761   4.6399   N.2       1 RES1   0.0000
    71 C19A     4.4285   2.0008   5.4723   C.1       1 RES1   0.0000
    72 N6       0.3698   6.3529  11.8567   N.ar      2 RES2   0.0000
    73 C20      1.4670   6.9976  11.7647   C.ar      2 RES2   0.0000
    74 H11      2.2610   6.5185  11.6916   H         2 RES2   0.0000
    75 C21      1.5207   8.3113  11.7693   C.ar      2 RES2   0.0000
    76 H12      2.3313   8.7628  11.7135   H         2 RES2   0.0000
    77 C22      0.3698   8.9681  11.8567   C.ar      2 RES2   0.0000
    78 H13      0.3698   9.8979  11.8567   H         2 RES2   0.0000
    79 C20A    -0.7273   6.9976  11.9487   C.ar      2 RES2   0.0000
    80 H11A    -1.5214   6.5185  12.0218   H         2 RES2   0.0000
    81 C21A    -0.7811   8.3113  11.9441   C.ar      2 RES2   0.0000
    82 H12A    -1.5917   8.7628  11.9999   H         2 RES2   0.0000
@<TRIPOS>BOND
     1     1     2    1
     2     2     6   ar
     3     3     1    1
     4     4    22   ar
     5     5    23   ar
     6     6     7    1
     7     8     6   ar
     8     9     8    1
     9    10     8   ar
    10    11    10    1
    11    12    10   ar
    12    13     2   ar
    13    14     3   ar
    14    15    14   ar
    15    16    15   ar
    16    17    16    1
    17    18    16   ar
    18    19    18    1
    19    20     3   ar
    20    21    20    1
    21    22    12   ar
    22    23    15   ar
    23    24     5   ar
    24    25    24   ar
    25    26    25    1
    26    27    25   ar
    27    28    27    1
    28    29    27   ar
    29    30    29    1
    30    31    29   ar
    31    32    31    1
    32    33     4   ar
    33    34    36    2
    34    35     1    1
    35    36    35    2
    36    37     1    1
    37    38     1    1
    38    39    57   ar
    39    40    58   ar
    40    41    37   ar
    41    42    41    1
    42    43    41   ar
    43    44    43    1
    44    45    43   ar
    45    46    45    1
    46    47    45   ar
    47    48    37   ar
    48    49    38   ar
    49    50    49   ar
    50    51    50   ar
    51    52    51    1
    52    53    51   ar
    53    54    53    1
    54    55    38   ar
    55    56    55    1
    56    57    47   ar
    57    58    50   ar
    58    59    40   ar
    59    60    59   ar
    60    61    60    1
    61    62    60   ar
    62    63    62    1
    63    64    62   ar
    64    65    64    1
    65    66    64   ar
    66    67    66    1
    67    68    39   ar
    68    69    71    2
    69    70     1    1
    70    71    70    2
    71    12    13   ar
    72    13    14   ar
    73    18    20   ar
    74    22    23   ar
    75    24    33   ar
    76    31    33   ar
    77    47    48   ar
    78    48    49   ar
    79    53    55   ar
    80    57    58   ar
    81    59    68   ar
    82    66    68   ar
    83    72    73   ar
    84    73    74    1
    85    75    73   ar
    86    76    75    1
    87    77    75   ar
    88    78    77    1
    89    79    72   ar
    90    80    79    1
    91    81    77   ar
    92    82    81    1
    93    79    81   ar
@<TRIPOS>SUBSTRUCTURE
     1 RES1        1 GROUP             0 ****  ****    0  
     2 RES2       72 GROUP             0 ****  ****    0  
