@<TRIPOS>MOLECULE
POWSID13
    82    93     2     0     0
SMALL
NO_CHARGES
****
Generated from the CSD

@<TRIPOS>ATOM
     1 Fe1      2.3799   0.2189   3.9471   Fe        1 RES1   0.0000
     2 N1       3.9832  -1.3036   4.1735   N.ar      1 RES1   0.0000
     3 N2       3.1459  -0.1264   1.9148   N.ar      1 RES1   0.0000
     4 N3       7.7462  -3.2248   1.8537   N.ar      1 RES1   0.0000
     5 N4       6.7945  -2.0369  -0.5297   N.ar      1 RES1   0.0000
     6 C1       4.3984  -1.8501   5.3201   C.ar      1 RES1   0.0000
     7 H1       3.8904  -1.6928   6.1073   H         1 RES1   0.0000
     8 C2       5.5365  -2.6352   5.4129   C.ar      1 RES1   0.0000
     9 H2       5.7992  -3.0023   6.2489   H         1 RES1   0.0000
    10 C3       6.2817  -2.8785   4.2837   C.ar      1 RES1   0.0000
    11 H3       7.0560  -3.4271   4.3275   H         1 RES1   0.0000
    12 C4       5.8834  -2.3047   3.0617   C.ar      1 RES1   0.0000
    13 C5       4.7213  -1.5295   3.0633   C.ar      1 RES1   0.0000
    14 C6       4.2589  -0.8880   1.8321   C.ar      1 RES1   0.0000
    15 C7       4.9537  -1.0818   0.6382   C.ar      1 RES1   0.0000
    16 C8       4.4496  -0.4832  -0.5270   C.ar      1 RES1   0.0000
    17 H4       4.8926  -0.5987  -1.3594   H         1 RES1   0.0000
    18 C9       3.3082   0.2705  -0.4446   C.ar      1 RES1   0.0000
    19 H5       2.9453   0.6764  -1.2232   H         1 RES1   0.0000
    20 C10      2.6841   0.4372   0.7893   C.ar      1 RES1   0.0000
    21 H6       1.8999   0.9712   0.8352   H         1 RES1   0.0000
    22 C11      6.6366  -2.4946   1.8269   C.ar      1 RES1   0.0000
    23 C12      6.1598  -1.8920   0.6192   C.ar      1 RES1   0.0000
    24 C13      7.9252  -2.7840  -0.5205   C.ar      1 RES1   0.0000
    25 C14      8.6467  -2.9482  -1.7350   C.ar      1 RES1   0.0000
    26 H7       8.3200  -2.5665  -2.5412   H         1 RES1   0.0000
    27 C15      9.8098  -3.6576  -1.7336   C.ar      1 RES1   0.0000
    28 H8      10.3055  -3.7496  -2.5388   H         1 RES1   0.0000
    29 C16     10.2867  -4.2582  -0.5452   C.ar      1 RES1   0.0000
    30 H9      11.1091  -4.7294  -0.5700   H         1 RES1   0.0000
    31 C17      9.6079  -4.1314   0.6296   C.ar      1 RES1   0.0000
    32 H10      9.9394  -4.5469   1.4169   H         1 RES1   0.0000
    33 C18      8.4068  -3.3795   0.6769   C.ar      1 RES1   0.0000
    34 S1      -0.6866   2.4747   1.2072   S.2       1 RES1   0.0000
    35 N5       0.9724   1.6086   3.2602   N.2       1 RES1   0.0000
    36 C19      0.2736   1.9844   2.4215   C.1       1 RES1   0.0000
    37 N1A      0.7765  -1.3036   3.7207   N.ar      1 RES1   0.0000
    38 N2A      1.6138  -0.1264   5.9794   N.ar      1 RES1   0.0000
    39 N3A     -2.9865  -3.2248   6.0405   N.ar      1 RES1   0.0000
    40 N4A     -2.0347  -2.0369   8.4239   N.ar      1 RES1   0.0000
    41 C1A      0.3614  -1.8501   2.5741   C.ar      1 RES1   0.0000
    42 H1A      0.8693  -1.6928   1.7869   H         1 RES1   0.0000
    43 C2A     -0.7768  -2.6352   2.4813   C.ar      1 RES1   0.0000
    44 H2A     -1.0395  -3.0023   1.6453   H         1 RES1   0.0000
    45 C3A     -1.5220  -2.8785   3.6105   C.ar      1 RES1   0.0000
    46 H3A     -2.2963  -3.4271   3.5667   H         1 RES1   0.0000
    47 C4A     -1.1237  -2.3047   4.8325   C.ar      1 RES1   0.0000
    48 C5A      0.0384  -1.5295   4.8309   C.ar      1 RES1   0.0000
    49 C6A      0.5008  -0.8880   6.0621   C.ar      1 RES1   0.0000
    50 C7A     -0.1940  -1.0818   7.2561   C.ar      1 RES1   0.0000
    51 C8A      0.3101  -0.4832   8.4212   C.ar      1 RES1   0.0000
    52 H4A     -0.1329  -0.5987   9.2537   H         1 RES1   0.0000
    53 C9A      1.4515   0.2705   8.3388   C.ar      1 RES1   0.0000
    54 H5A      1.8144   0.6764   9.1174   H         1 RES1   0.0000
    55 C10A     2.0756   0.4372   7.1050   C.ar      1 RES1   0.0000
    56 H6A      2.8598   0.9712   7.0590   H         1 RES1   0.0000
    57 C11A    -1.8769  -2.4946   6.0673   C.ar      1 RES1   0.0000
    58 C12A    -1.4001  -1.8920   7.2750   C.ar      1 RES1   0.0000
    59 C13A    -3.1655  -2.7840   8.4148   C.ar      1 RES1   0.0000
    60 C14A    -3.8870  -2.9482   9.6292   C.ar      1 RES1   0.0000
    61 H7A     -3.5603  -2.5665  10.4355   H         1 RES1   0.0000
    62 C15A    -5.0501  -3.6576   9.6278   C.ar      1 RES1   0.0000
    63 H8A     -5.5458  -3.7496  10.4330   H         1 RES1   0.0000
    64 C16A    -5.5270  -4.2582   8.4394   C.ar      1 RES1   0.0000
    65 H9A     -6.3494  -4.7294   8.4642   H         1 RES1   0.0000
    66 C17A    -4.8482  -4.1314   7.2646   C.ar      1 RES1   0.0000
    67 H10A    -5.1797  -4.5469   6.4774   H         1 RES1   0.0000
    68 C18A    -3.6471  -3.3795   7.2174   C.ar      1 RES1   0.0000
    69 S1A      5.4463   2.4747   6.6870   S.2       1 RES1   0.0000
    70 N5A      3.7873   1.6086   4.6341   N.2       1 RES1   0.0000
    71 C19A     4.4861   1.9844   5.4727   C.1       1 RES1   0.0000
    72 N6       0.4011   6.2205  11.8413   N.ar      2 RES2   0.0000
    73 C20      1.5072   6.8653  11.7512   C.ar      2 RES2   0.0000
    74 H11      2.3170   6.3733  11.6806   H         2 RES2   0.0000
    75 C21      1.5676   8.1795  11.7523   C.ar      2 RES2   0.0000
    76 H12      2.3976   8.6370  11.6929   H         2 RES2   0.0000
    77 C22      0.4011   8.8514  11.8413   C.ar      2 RES2   0.0000
    78 H13      0.4011   9.8011  11.8413   H         2 RES2   0.0000
    79 C20A    -0.7051   6.8653  11.9315   C.ar      2 RES2   0.0000
    80 H11A    -1.5148   6.3733  12.0021   H         2 RES2   0.0000
    81 C21A    -0.7655   8.1795  11.9304   C.ar      2 RES2   0.0000
    82 H12A    -1.5955   8.6370  11.9897   H         2 RES2   0.0000
@<TRIPOS>BOND
     1     1     2    1
     2     2     6   ar
     3     3     1    1
     4     4    22   ar
     5     5    23   ar
     6     6     7    1
     7     8     6   ar
     8     9     8    1
     9    10     8   ar
    10    11    10    1
    11    12    10   ar
    12    13     2   ar
    13    14     3   ar
    14    15    14   ar
    15    16    15   ar
    16    17    16    1
    17    18    16   ar
    18    19    18    1
    19    20     3   ar
    20    21    20    1
    21    22    12   ar
    22    23    15   ar
    23    24     5   ar
    24    25    24   ar
    25    26    25    1
    26    27    25   ar
    27    28    27    1
    28    29    27   ar
    29    30    29    1
    30    31    29   ar
    31    32    31    1
    32    33     4   ar
    33    34    36    2
    34    35     1    1
    35    36    35    2
    36    37     1    1
    37    38     1    1
    38    39    57   ar
    39    40    58   ar
    40    41    37   ar
    41    42    41    1
    42    43    41   ar
    43    44    43    1
    44    45    43   ar
    45    46    45    1
    46    47    45   ar
    47    48    37   ar
    48    49    38   ar
    49    50    49   ar
    50    51    50   ar
    51    52    51    1
    52    53    51   ar
    53    54    53    1
    54    55    38   ar
    55    56    55    1
    56    57    47   ar
    57    58    50   ar
    58    59    40   ar
    59    60    59   ar
    60    61    60    1
    61    62    60   ar
    62    63    62    1
    63    64    62   ar
    64    65    64    1
    65    66    64   ar
    66    67    66    1
    67    68    39   ar
    68    69    71    2
    69    70     1    1
    70    71    70    2
    71    12    13   ar
    72    13    14   ar
    73    18    20   ar
    74    22    23   ar
    75    24    33   ar
    76    31    33   ar
    77    47    48   ar
    78    48    49   ar
    79    53    55   ar
    80    57    58   ar
    81    59    68   ar
    82    66    68   ar
    83    72    73   ar
    84    73    74    1
    85    75    73   ar
    86    76    75    1
    87    77    75   ar
    88    78    77    1
    89    79    72   ar
    90    80    79    1
    91    81    77   ar
    92    82    81    1
    93    79    81   ar
@<TRIPOS>SUBSTRUCTURE
     1 RES1        1 GROUP             0 ****  ****    0  
     2 RES2       72 GROUP             0 ****  ****    0  
