@<TRIPOS>MOLECULE
POWSID12
    82    93     2     0     0
SMALL
NO_CHARGES
****
Generated from the CSD

@<TRIPOS>ATOM
     1 Fe1      2.3718   0.2091   3.9488   Fe        1 RES1   0.0000
     2 N1       3.9740  -1.3172   4.1735   N.ar      1 RES1   0.0000
     3 N2       3.1414  -0.1332   1.9160   N.ar      1 RES1   0.0000
     4 N3       7.7293  -3.2485   1.8509   N.ar      1 RES1   0.0000
     5 N4       6.7855  -2.0507  -0.5298   N.ar      1 RES1   0.0000
     6 C1       4.3899  -1.8652   5.3192   C.ar      1 RES1   0.0000
     7 H1       3.8903  -1.7069   6.0996   H         1 RES1   0.0000
     8 C2       5.5221  -2.6540   5.4089   C.ar      1 RES1   0.0000
     9 H2       5.7800  -3.0212   6.2350   H         1 RES1   0.0000
    10 C3       6.2658  -2.8970   4.2806   C.ar      1 RES1   0.0000
    11 H3       7.0308  -3.4414   4.3237   H         1 RES1   0.0000
    12 C4       5.8703  -2.3218   3.0605   C.ar      1 RES1   0.0000
    13 C5       4.7133  -1.5426   3.0627   C.ar      1 RES1   0.0000
    14 C6       4.2514  -0.8982   1.8327   C.ar      1 RES1   0.0000
    15 C7       4.9465  -1.0898   0.6386   C.ar      1 RES1   0.0000
    16 C8       4.4450  -0.4862  -0.5233   C.ar      1 RES1   0.0000
    17 H4       4.8838  -0.5995  -1.3469   H         1 RES1   0.0000
    18 C9       3.3089   0.2695  -0.4408   C.ar      1 RES1   0.0000
    19 H5       2.9527   0.6739  -1.2109   H         1 RES1   0.0000
    20 C10      2.6828   0.4355   0.7923   C.ar      1 RES1   0.0000
    21 H6       1.9087   0.9663   0.8380   H         1 RES1   0.0000
    22 C11      6.6242  -2.5124   1.8256   C.ar      1 RES1   0.0000
    23 C12      6.1517  -1.9068   0.6206   C.ar      1 RES1   0.0000
    24 C13      7.9120  -2.8019  -0.5200   C.ar      1 RES1   0.0000
    25 C14      8.6359  -2.9654  -1.7346   C.ar      1 RES1   0.0000
    26 H7       8.3173  -2.5830  -2.5319   H         1 RES1   0.0000
    27 C15      9.7930  -3.6807  -1.7308   C.ar      1 RES1   0.0000
    28 H8      10.2849  -3.7728  -2.5267   H         1 RES1   0.0000
    29 C16     10.2640  -4.2865  -0.5459   C.ar      1 RES1   0.0000
    30 H9      11.0834  -4.7912  -0.5749   H         1 RES1   0.0000
    31 C17      9.5849  -4.1598   0.6264   C.ar      1 RES1   0.0000
    32 H10      9.9099  -4.5753   1.4045   H         1 RES1   0.0000
    33 C18      8.3896  -3.4030   0.6762   C.ar      1 RES1   0.0000
    34 S1      -0.6703   2.5045   1.2105   S.2       1 RES1   0.0000
    35 N5       0.9638   1.5970   3.2611   N.2       1 RES1   0.0000
    36 C19      0.2752   1.9901   2.4249   C.1       1 RES1   0.0000
    37 N1A      0.7697  -1.3172   3.7240   N.ar      1 RES1   0.0000
    38 N2A      1.6023  -0.1332   5.9816   N.ar      1 RES1   0.0000
    39 N3A     -2.9856  -3.2485   6.0467   N.ar      1 RES1   0.0000
    40 N4A     -2.0418  -2.0507   8.4273   N.ar      1 RES1   0.0000
    41 C1A      0.3538  -1.8652   2.5784   C.ar      1 RES1   0.0000
    42 H1A      0.8534  -1.7069   1.7980   H         1 RES1   0.0000
    43 C2A     -0.7784  -2.6540   2.4887   C.ar      1 RES1   0.0000
    44 H2A     -1.0363  -3.0212   1.6626   H         1 RES1   0.0000
    45 C3A     -1.5221  -2.8970   3.6169   C.ar      1 RES1   0.0000
    46 H3A     -2.2871  -3.4414   3.5739   H         1 RES1   0.0000
    47 C4A     -1.1266  -2.3218   4.8371   C.ar      1 RES1   0.0000
    48 C5A      0.0304  -1.5426   4.8349   C.ar      1 RES1   0.0000
    49 C6A      0.4922  -0.8982   6.0649   C.ar      1 RES1   0.0000
    50 C7A     -0.2028  -1.0898   7.2590   C.ar      1 RES1   0.0000
    51 C8A      0.2987  -0.4862   8.4209   C.ar      1 RES1   0.0000
    52 H4A     -0.1401  -0.5995   9.2445   H         1 RES1   0.0000
    53 C9A      1.4348   0.2695   8.3384   C.ar      1 RES1   0.0000
    54 H5A      1.7910   0.6739   9.1085   H         1 RES1   0.0000
    55 C10A     2.0609   0.4355   7.1053   C.ar      1 RES1   0.0000
    56 H6A      2.8350   0.9663   7.0596   H         1 RES1   0.0000
    57 C11A    -1.8805  -2.5124   6.0720   C.ar      1 RES1   0.0000
    58 C12A    -1.4080  -1.9068   7.2770   C.ar      1 RES1   0.0000
    59 C13A    -3.1683  -2.8019   8.4175   C.ar      1 RES1   0.0000
    60 C14A    -3.8922  -2.9654   9.6322   C.ar      1 RES1   0.0000
    61 H7A     -3.5736  -2.5830  10.4295   H         1 RES1   0.0000
    62 C15A    -5.0493  -3.6807   9.6284   C.ar      1 RES1   0.0000
    63 H8A     -5.5412  -3.7728  10.4243   H         1 RES1   0.0000
    64 C16A    -5.5203  -4.2865   8.4434   C.ar      1 RES1   0.0000
    65 H9A     -6.3397  -4.7912   8.4725   H         1 RES1   0.0000
    66 C17A    -4.8412  -4.1598   7.2711   C.ar      1 RES1   0.0000
    67 H10A    -5.1662  -4.5753   6.4931   H         1 RES1   0.0000
    68 C18A    -3.6459  -3.4030   7.2214   C.ar      1 RES1   0.0000
    69 S1A      5.4140   2.5045   6.6870   S.2       1 RES1   0.0000
    70 N5A      3.7799   1.5970   4.6365   N.2       1 RES1   0.0000
    71 C19A     4.4685   1.9901   5.4727   C.1       1 RES1   0.0000
    72 N6       0.3912   6.2671  11.8464   N.ar      2 RES2   0.0000
    73 C20      1.4928   6.9088  11.7547   C.ar      2 RES2   0.0000
    74 H11      2.2928   6.4205  11.6829   H         2 RES2   0.0000
    75 C21      1.5554   8.2238  11.7568   C.ar      2 RES2   0.0000
    76 H12      2.3770   8.6767  11.6981   H         2 RES2   0.0000
    77 C22      0.3912   8.8895  11.8464   C.ar      2 RES2   0.0000
    78 H13      0.3912   9.8299  11.8464   H         2 RES2   0.0000
    79 C20A    -0.7104   6.9088  11.9380   C.ar      2 RES2   0.0000
    80 H11A    -1.5104   6.4205  12.0098   H         2 RES2   0.0000
    81 C21A    -0.7731   8.2238  11.9359   C.ar      2 RES2   0.0000
    82 H12A    -1.5946   8.6767  11.9946   H         2 RES2   0.0000
@<TRIPOS>BOND
     1     1     2    1
     2     2     6   ar
     3     3     1    1
     4     4    22   ar
     5     5    23   ar
     6     6     7    1
     7     8     6   ar
     8     9     8    1
     9    10     8   ar
    10    11    10    1
    11    12    10   ar
    12    13     2   ar
    13    14     3   ar
    14    15    14   ar
    15    16    15   ar
    16    17    16    1
    17    18    16   ar
    18    19    18    1
    19    20     3   ar
    20    21    20    1
    21    22    12   ar
    22    23    15   ar
    23    24     5   ar
    24    25    24   ar
    25    26    25    1
    26    27    25   ar
    27    28    27    1
    28    29    27   ar
    29    30    29    1
    30    31    29   ar
    31    32    31    1
    32    33     4   ar
    33    34    36    2
    34    35     1    1
    35    36    35    2
    36    37     1    1
    37    38     1    1
    38    39    57   ar
    39    40    58   ar
    40    41    37   ar
    41    42    41    1
    42    43    41   ar
    43    44    43    1
    44    45    43   ar
    45    46    45    1
    46    47    45   ar
    47    48    37   ar
    48    49    38   ar
    49    50    49   ar
    50    51    50   ar
    51    52    51    1
    52    53    51   ar
    53    54    53    1
    54    55    38   ar
    55    56    55    1
    56    57    47   ar
    57    58    50   ar
    58    59    40   ar
    59    60    59   ar
    60    61    60    1
    61    62    60   ar
    62    63    62    1
    63    64    62   ar
    64    65    64    1
    65    66    64   ar
    66    67    66    1
    67    68    39   ar
    68    69    71    2
    69    70     1    1
    70    71    70    2
    71    12    13   ar
    72    13    14   ar
    73    18    20   ar
    74    22    23   ar
    75    24    33   ar
    76    31    33   ar
    77    47    48   ar
    78    48    49   ar
    79    53    55   ar
    80    57    58   ar
    81    59    68   ar
    82    66    68   ar
    83    72    73   ar
    84    73    74    1
    85    75    73   ar
    86    76    75    1
    87    77    75   ar
    88    78    77    1
    89    79    72   ar
    90    80    79    1
    91    81    77   ar
    92    82    81    1
    93    79    81   ar
@<TRIPOS>SUBSTRUCTURE
     1 RES1        1 GROUP             0 ****  ****    0  
     2 RES2       72 GROUP             0 ****  ****    0  
