@<TRIPOS>MOLECULE
POWSID15
    82    93     2     0     0
SMALL
NO_CHARGES
****
Generated from the CSD

@<TRIPOS>ATOM
     1 Fe1      2.3954   0.2376   3.9434   Fe        1 RES1   0.0000
     2 N1       4.0004  -1.2787   4.1722   N.ar      1 RES1   0.0000
     3 N2       3.1543  -0.1166   1.9129   N.ar      1 RES1   0.0000
     4 N3       7.7799  -3.1799   1.8573   N.ar      1 RES1   0.0000
     5 N4       6.8136  -2.0135  -0.5316   N.ar      1 RES1   0.0000
     6 C1       4.4156  -1.8212   5.3210   C.ar      1 RES1   0.0000
     7 H1       3.9031  -1.6682   6.1062   H         1 RES1   0.0000
     8 C2       5.5644  -2.6010   5.4191   C.ar      1 RES1   0.0000
     9 H2       5.8303  -2.9623   6.2565   H         1 RES1   0.0000
    10 C3       6.3117  -2.8416   4.2863   C.ar      1 RES1   0.0000
    11 H3       7.0894  -3.3852   4.3297   H         1 RES1   0.0000
    12 C4       5.9084  -2.2721   3.0651   C.ar      1 RES1   0.0000
    13 C5       4.7408  -1.5029   3.0634   C.ar      1 RES1   0.0000
    14 C6       4.2725  -0.8697   1.8283   C.ar      1 RES1   0.0000
    15 C7       4.9677  -1.0673   0.6355   C.ar      1 RES1   0.0000
    16 C8       4.4584  -0.4779  -0.5322   C.ar      1 RES1   0.0000
    17 H4       4.9007  -0.5954  -1.3648   H         1 RES1   0.0000
    18 C9       3.3094   0.2723  -0.4513   C.ar      1 RES1   0.0000
    19 H5       2.9418   0.6721  -1.2307   H         1 RES1   0.0000
    20 C10      2.6884   0.4408   0.7852   C.ar      1 RES1   0.0000
    21 H6       1.9025   0.9725   0.8312   H         1 RES1   0.0000
    22 C11      6.6628  -2.4627   1.8297   C.ar      1 RES1   0.0000
    23 C12      6.1787  -1.8668   0.6174   C.ar      1 RES1   0.0000
    24 C13      7.9506  -2.7506  -0.5215   C.ar      1 RES1   0.0000
    25 C14      8.6702  -2.9191  -1.7330   C.ar      1 RES1   0.0000
    26 H7       8.3364  -2.5470  -2.5409   H         1 RES1   0.0000
    27 C15      9.8419  -3.6163  -1.7343   C.ar      1 RES1   0.0000
    28 H8      10.3344  -3.7096  -2.5413   H         1 RES1   0.0000
    29 C16     10.3301  -4.2037  -0.5410   C.ar      1 RES1   0.0000
    30 C17      9.6525  -4.0735   0.6355   C.ar      1 RES1   0.0000
    31 H9       9.9922  -4.4773   1.4255   H         1 RES1   0.0000
    32 C18      8.4403  -3.3355   0.6820   C.ar      1 RES1   0.0000
    33 H10     11.1578  -4.6855  -0.5615   H         1 RES1   0.0000
    34 S1      -0.7159   2.4169   1.2010   S.2       1 RES1   0.0000
    35 N5       0.9901   1.6303   3.2588   N.2       1 RES1   0.0000
    36 C19      0.2706   1.9760   2.4146   C.1       1 RES1   0.0000
    37 N1A      0.7904  -1.2787   3.7145   N.ar      1 RES1   0.0000
    38 N2A      1.6365  -0.1166   5.9739   N.ar      1 RES1   0.0000
    39 N3A     -2.9892  -3.1799   6.0294   N.ar      1 RES1   0.0000
    40 N4A     -2.0229  -2.0135   8.4183   N.ar      1 RES1   0.0000
    41 C1A      0.3752  -1.8212   2.5657   C.ar      1 RES1   0.0000
    42 H1A      0.8877  -1.6682   1.7805   H         1 RES1   0.0000
    43 C2A     -0.7736  -2.6010   2.4676   C.ar      1 RES1   0.0000
    44 H2A     -1.0395  -2.9623   1.6303   H         1 RES1   0.0000
    45 C3A     -1.5209  -2.8416   3.6005   C.ar      1 RES1   0.0000
    46 H3A     -2.2987  -3.3852   3.5570   H         1 RES1   0.0000
    47 C4A     -1.1176  -2.2721   4.8216   C.ar      1 RES1   0.0000
    48 C5A      0.0499  -1.5029   4.8234   C.ar      1 RES1   0.0000
    49 C6A      0.5183  -0.8697   6.0584   C.ar      1 RES1   0.0000
    50 C7A     -0.1770  -1.0673   7.2512   C.ar      1 RES1   0.0000
    51 C8A      0.3324  -0.4779   8.4189   C.ar      1 RES1   0.0000
    52 H4A     -0.1099  -0.5954   9.2515   H         1 RES1   0.0000
    53 C9A      1.4814   0.2723   8.3380   C.ar      1 RES1   0.0000
    54 H5A      1.8489   0.6721   9.1175   H         1 RES1   0.0000
    55 C10A     2.1024   0.4408   7.1015   C.ar      1 RES1   0.0000
    56 H6A      2.8883   0.9725   7.0555   H         1 RES1   0.0000
    57 C11A    -1.8720  -2.4627   6.0570   C.ar      1 RES1   0.0000
    58 C12A    -1.3880  -1.8668   7.2694   C.ar      1 RES1   0.0000
    59 C13A    -3.1598  -2.7506   8.4082   C.ar      1 RES1   0.0000
    60 C14A    -3.8794  -2.9191   9.6198   C.ar      1 RES1   0.0000
    61 H7A     -3.5457  -2.5470  10.4276   H         1 RES1   0.0000
    62 C15A    -5.0511  -3.6163   9.6210   C.ar      1 RES1   0.0000
    63 H8A     -5.5437  -3.7096  10.4280   H         1 RES1   0.0000
    64 C16A    -5.5393  -4.2037   8.4278   C.ar      1 RES1   0.0000
    65 C17A    -4.8618  -4.0735   7.2512   C.ar      1 RES1   0.0000
    66 H9A     -5.2015  -4.4773   6.4612   H         1 RES1   0.0000
    67 C18A    -3.6495  -3.3355   7.2047   C.ar      1 RES1   0.0000
    68 H10A    -6.3670  -4.6855   8.4483   H         1 RES1   0.0000
    69 S1A      5.5067   2.4169   6.6858   S.2       1 RES1   0.0000
    70 N5A      3.8006   1.6303   4.6279   N.2       1 RES1   0.0000
    71 C19A     4.5202   1.9760   5.4721   C.1       1 RES1   0.0000
    72 N6       0.4205  -2.2797  11.8301   N.ar      2 RES2   0.0000
    73 C20      1.5387  -1.6252  11.7416   C.ar      2 RES2   0.0000
    74 H11      2.3512  -2.1144  11.6778   H         2 RES2   0.0000
    75 C21      1.5886  -0.3121  11.7369   C.ar      2 RES2   0.0000
    76 H12      2.4156   0.1510  11.6704   H         2 RES2   0.0000
    77 C22      0.4205   0.3499  11.8301   C.ar      2 RES2   0.0000
    78 H13      0.4205   1.3000  11.8301   H         2 RES2   0.0000
    79 C20A    -0.6977  -1.6252  11.9186   C.ar      2 RES2   0.0000
    80 H11A    -1.5102  -2.1144  11.9824   H         2 RES2   0.0000
    81 C21A    -0.7476  -0.3121  11.9233   C.ar      2 RES2   0.0000
    82 H12A    -1.5746   0.1510  11.9899   H         2 RES2   0.0000
@<TRIPOS>BOND
     1     1     2    1
     2     2     6   ar
     3     3     1    1
     4     4    22   ar
     5     5    23   ar
     6     6     7    1
     7     8     6   ar
     8     9     8    1
     9    10     8   ar
    10    11    10    1
    11    12    10   ar
    12    13     2   ar
    13    14     3   ar
    14    15    14   ar
    15    16    15   ar
    16    17    16    1
    17    18    16   ar
    18    19    18    1
    19    20     3   ar
    20    21    20    1
    21    22    12   ar
    22    23    15   ar
    23    24     5   ar
    24    25    24   ar
    25    26    25    1
    26    27    25   ar
    27    28    27    1
    28    29    27   ar
    29    30    29   ar
    30    31    30    1
    31    32     4   ar
    32    33    29    1
    33    34    36    2
    34    35     1    1
    35    36    35    2
    36    37     1    1
    37    38     1    1
    38    39    57   ar
    39    40    58   ar
    40    41    37   ar
    41    42    41    1
    42    43    41   ar
    43    44    43    1
    44    45    43   ar
    45    46    45    1
    46    47    45   ar
    47    48    37   ar
    48    49    38   ar
    49    50    49   ar
    50    51    50   ar
    51    52    51    1
    52    53    51   ar
    53    54    53    1
    54    55    38   ar
    55    56    55    1
    56    57    47   ar
    57    58    50   ar
    58    59    40   ar
    59    60    59   ar
    60    61    60    1
    61    62    60   ar
    62    63    62    1
    63    64    62   ar
    64    65    64   ar
    65    66    65    1
    66    67    39   ar
    67    68    64    1
    68    69    71    2
    69    70     1    1
    70    71    70    2
    71    12    13   ar
    72    13    14   ar
    73    18    20   ar
    74    22    23   ar
    75    24    32   ar
    76    30    32   ar
    77    47    48   ar
    78    48    49   ar
    79    53    55   ar
    80    57    58   ar
    81    59    67   ar
    82    65    67   ar
    83    72    73   ar
    84    73    74    1
    85    75    73   ar
    86    76    75    1
    87    77    75   ar
    88    78    77    1
    89    79    72   ar
    90    80    79    1
    91    81    77   ar
    92    82    81    1
    93    79    81   ar
@<TRIPOS>SUBSTRUCTURE
     1 RES1        1 GROUP             0 ****  ****    0  
     2 RES2       72 GROUP             0 ****  ****    0  
