@<TRIPOS>MOLECULE
POWSID11
    82    93     2     0     0
SMALL
NO_CHARGES
****
Generated from the CSD

@<TRIPOS>ATOM
     1 Fe1      2.3630   0.1991   3.9505   Fe        1 RES1   0.0000
     2 N1       3.9652  -1.3294   4.1743   N.ar      1 RES1   0.0000
     3 N2       3.1366  -0.1405   1.9171   N.ar      1 RES1   0.0000
     4 N3       7.7108  -3.2728   1.8482   N.ar      1 RES1   0.0000
     5 N4       6.7766  -2.0640  -0.5268   N.ar      1 RES1   0.0000
     6 C1       4.3808  -1.8805   5.3194   C.ar      1 RES1   0.0000
     7 H1       3.8831  -1.7209   6.1007   H         1 RES1   0.0000
     8 C2       5.5074  -2.6715   5.4059   C.ar      1 RES1   0.0000
     9 H2       5.7640  -3.0417   6.2311   H         1 RES1   0.0000
    10 C3       6.2505  -2.9150   4.2787   C.ar      1 RES1   0.0000
    11 H3       7.0144  -3.4612   4.3217   H         1 RES1   0.0000
    12 C4       5.8565  -2.3390   3.0599   C.ar      1 RES1   0.0000
    13 C5       4.7033  -1.5574   3.0624   C.ar      1 RES1   0.0000
    14 C6       4.2435  -0.9082   1.8348   C.ar      1 RES1   0.0000
    15 C7       4.9384  -1.0986   0.6401   C.ar      1 RES1   0.0000
    16 C8       4.4406  -0.4897  -0.5199   C.ar      1 RES1   0.0000
    17 H4       4.8801  -0.6011  -1.3434   H         1 RES1   0.0000
    18 C9       3.3079   0.2677  -0.4360   C.ar      1 RES1   0.0000
    19 H5       2.9539   0.6757  -1.2053   H         1 RES1   0.0000
    20 C10      2.6815   0.4312   0.7931   C.ar      1 RES1   0.0000
    21 H6       1.9083   0.9642   0.8385   H         1 RES1   0.0000
    22 C11      6.6100  -2.5295   1.8232   C.ar      1 RES1   0.0000
    23 C12      6.1419  -1.9198   0.6199   C.ar      1 RES1   0.0000
    24 C13      7.8985  -2.8199  -0.5210   C.ar      1 RES1   0.0000
    25 C14      8.6252  -2.9830  -1.7328   C.ar      1 RES1   0.0000
    26 H7       8.3110  -2.5961  -2.5296   H         1 RES1   0.0000
    27 C15      9.7783  -3.7042  -1.7292   C.ar      1 RES1   0.0000
    28 H8      10.2720  -3.7954  -2.5239   H         1 RES1   0.0000
    29 C16     10.2409  -4.3170  -0.5485   C.ar      1 RES1   0.0000
    30 H9      11.0525  -4.8282  -0.5831   H         1 RES1   0.0000
    31 C17      9.5614  -4.1896   0.6229   C.ar      1 RES1   0.0000
    32 H10      9.8829  -4.6096   1.3999   H         1 RES1   0.0000
    33 C18      8.3725  -3.4261   0.6740   C.ar      1 RES1   0.0000
    34 S1      -0.6557   2.5329   1.2147   S.2       1 RES1   0.0000
    35 N5       0.9544   1.5865   3.2634   N.2       1 RES1   0.0000
    36 C19      0.2780   1.9967   2.4286   C.1       1 RES1   0.0000
    37 N1A      0.7608  -1.3294   3.7267   N.ar      1 RES1   0.0000
    38 N2A      1.5894  -0.1405   5.9839   N.ar      1 RES1   0.0000
    39 N3A     -2.9848  -3.2728   6.0528   N.ar      1 RES1   0.0000
    40 N4A     -2.0507  -2.0640   8.4278   N.ar      1 RES1   0.0000
    41 C1A      0.3451  -1.8805   2.5816   C.ar      1 RES1   0.0000
    42 H1A      0.8428  -1.7209   1.8003   H         1 RES1   0.0000
    43 C2A     -0.7815  -2.6715   2.4951   C.ar      1 RES1   0.0000
    44 H2A     -1.0381  -3.0417   1.6699   H         1 RES1   0.0000
    45 C3A     -1.5245  -2.9150   3.6223   C.ar      1 RES1   0.0000
    46 H3A     -2.2885  -3.4612   3.5793   H         1 RES1   0.0000
    47 C4A     -1.1306  -2.3390   4.8411   C.ar      1 RES1   0.0000
    48 C5A      0.0226  -1.5574   4.8386   C.ar      1 RES1   0.0000
    49 C6A      0.4824  -0.9082   6.0662   C.ar      1 RES1   0.0000
    50 C7A     -0.2125  -1.0986   7.2609   C.ar      1 RES1   0.0000
    51 C8A      0.2853  -0.4897   8.4209   C.ar      1 RES1   0.0000
    52 H4A     -0.1541  -0.6011   9.2444   H         1 RES1   0.0000
    53 C9A      1.4180   0.2677   8.3370   C.ar      1 RES1   0.0000
    54 H5A      1.7720   0.6757   9.1063   H         1 RES1   0.0000
    55 C10A     2.0444   0.4312   7.1079   C.ar      1 RES1   0.0000
    56 H6A      2.8176   0.9642   7.0625   H         1 RES1   0.0000
    57 C11A    -1.8841  -2.5295   6.0778   C.ar      1 RES1   0.0000
    58 C12A    -1.4160  -1.9198   7.2811   C.ar      1 RES1   0.0000
    59 C13A    -3.1725  -2.8199   8.4220   C.ar      1 RES1   0.0000
    60 C14A    -3.8993  -2.9830   9.6338   C.ar      1 RES1   0.0000
    61 H7A     -3.5850  -2.5961  10.4306   H         1 RES1   0.0000
    62 C15A    -5.0523  -3.7042   9.6302   C.ar      1 RES1   0.0000
    63 H8A     -5.5460  -3.7954  10.4249   H         1 RES1   0.0000
    64 C16A    -5.5150  -4.3170   8.4495   C.ar      1 RES1   0.0000
    65 H9A     -6.3266  -4.8282   8.4841   H         1 RES1   0.0000
    66 C17A    -4.8355  -4.1896   7.2781   C.ar      1 RES1   0.0000
    67 H10A    -5.1570  -4.6096   6.5011   H         1 RES1   0.0000
    68 C18A    -3.6465  -3.4261   7.2270   C.ar      1 RES1   0.0000
    69 S1A      5.3816   2.5329   6.6863   S.2       1 RES1   0.0000
    70 N5A      3.7716   1.5865   4.6376   N.2       1 RES1   0.0000
    71 C19A     4.4479   1.9967   5.4724   C.1       1 RES1   0.0000
    72 N6       0.3791   6.3111  11.8515   N.ar      2 RES2   0.0000
    73 C20      1.4762   6.9480  11.7578   C.ar      2 RES2   0.0000
    74 H11      2.2755   6.4594  11.6819   H         2 RES2   0.0000
    75 C21      1.5381   8.2648  11.7624   C.ar      2 RES2   0.0000
    76 H12      2.3606   8.7167  11.7057   H         2 RES2   0.0000
    77 C22      0.3791   8.9327  11.8515   C.ar      2 RES2   0.0000
    78 H13      0.3791   9.8725  11.8515   H         2 RES2   0.0000
    79 C20A    -0.7180   6.9480  11.9452   C.ar      2 RES2   0.0000
    80 H11A    -1.5172   6.4594  12.0210   H         2 RES2   0.0000
    81 C21A    -0.7799   8.2648  11.9406   C.ar      2 RES2   0.0000
    82 H12A    -1.6023   8.7167  11.9973   H         2 RES2   0.0000
@<TRIPOS>BOND
     1     1     2    1
     2     2     6   ar
     3     3     1    1
     4     4    22   ar
     5     5    23   ar
     6     6     7    1
     7     8     6   ar
     8     9     8    1
     9    10     8   ar
    10    11    10    1
    11    12    10   ar
    12    13     2   ar
    13    14     3   ar
    14    15    14   ar
    15    16    15   ar
    16    17    16    1
    17    18    16   ar
    18    19    18    1
    19    20     3   ar
    20    21    20    1
    21    22    12   ar
    22    23    15   ar
    23    24     5   ar
    24    25    24   ar
    25    26    25    1
    26    27    25   ar
    27    28    27    1
    28    29    27   ar
    29    30    29    1
    30    31    29   ar
    31    32    31    1
    32    33     4   ar
    33    34    36    2
    34    35     1    1
    35    36    35    2
    36    37     1    1
    37    38     1    1
    38    39    57   ar
    39    40    58   ar
    40    41    37   ar
    41    42    41    1
    42    43    41   ar
    43    44    43    1
    44    45    43   ar
    45    46    45    1
    46    47    45   ar
    47    48    37   ar
    48    49    38   ar
    49    50    49   ar
    50    51    50   ar
    51    52    51    1
    52    53    51   ar
    53    54    53    1
    54    55    38   ar
    55    56    55    1
    56    57    47   ar
    57    58    50   ar
    58    59    40   ar
    59    60    59   ar
    60    61    60    1
    61    62    60   ar
    62    63    62    1
    63    64    62   ar
    64    65    64    1
    65    66    64   ar
    66    67    66    1
    67    68    39   ar
    68    69    71    2
    69    70     1    1
    70    71    70    2
    71    12    13   ar
    72    13    14   ar
    73    18    20   ar
    74    22    23   ar
    75    24    33   ar
    76    31    33   ar
    77    47    48   ar
    78    48    49   ar
    79    53    55   ar
    80    57    58   ar
    81    59    68   ar
    82    66    68   ar
    83    72    73   ar
    84    73    74    1
    85    75    73   ar
    86    76    75    1
    87    77    75   ar
    88    78    77    1
    89    79    72   ar
    90    80    79    1
    91    81    77   ar
    92    82    81    1
    93    79    81   ar
@<TRIPOS>SUBSTRUCTURE
     1 RES1        1 GROUP             0 ****  ****    0  
     2 RES2       72 GROUP             0 ****  ****    0  
