@<TRIPOS>MOLECULE
POWSID14
    82    93     2     0     0
SMALL
NO_CHARGES
****
Generated from the CSD

@<TRIPOS>ATOM
     1 Fe1      2.3876   0.2286   3.9452   Fe        1 RES1   0.0000
     2 N1       3.9908  -1.2904   4.1723   N.ar      1 RES1   0.0000
     3 N2       3.1500  -0.1216   1.9145   N.ar      1 RES1   0.0000
     4 N3       7.7635  -3.2017   1.8552   N.ar      1 RES1   0.0000
     5 N4       6.8040  -2.0257  -0.5312   N.ar      1 RES1   0.0000
     6 C1       4.4053  -1.8364   5.3212   C.ar      1 RES1   0.0000
     7 H1       3.8940  -1.6826   6.1070   H         1 RES1   0.0000
     8 C2       5.5507  -2.6171   5.4163   C.ar      1 RES1   0.0000
     9 H2       5.8160  -2.9797   6.2534   H         1 RES1   0.0000
    10 C3       6.2974  -2.8607   4.2848   C.ar      1 RES1   0.0000
    11 H3       7.0728  -3.4083   4.3284   H         1 RES1   0.0000
    12 C4       5.8960  -2.2884   3.0629   C.ar      1 RES1   0.0000
    13 C5       4.7307  -1.5160   3.0632   C.ar      1 RES1   0.0000
    14 C6       4.2646  -0.8780   1.8300   C.ar      1 RES1   0.0000
    15 C7       4.9616  -1.0746   0.6371   C.ar      1 RES1   0.0000
    16 C8       4.4544  -0.4800  -0.5304   C.ar      1 RES1   0.0000
    17 H4       4.8967  -0.5966  -1.3630   H         1 RES1   0.0000
    18 C9       3.3100   0.2714  -0.4483   C.ar      1 RES1   0.0000
    19 H5       2.9451   0.6745  -1.2273   H         1 RES1   0.0000
    20 C10      2.6860   0.4390   0.7878   C.ar      1 RES1   0.0000
    21 H6       1.9007   0.9717   0.8336   H         1 RES1   0.0000
    22 C11      6.6496  -2.4780   1.8282   C.ar      1 RES1   0.0000
    23 C12      6.1694  -1.8781   0.6183   C.ar      1 RES1   0.0000
    24 C13      7.9379  -2.7664  -0.5212   C.ar      1 RES1   0.0000
    25 C14      8.6600  -2.9343  -1.7350   C.ar      1 RES1   0.0000
    26 H7       8.3296  -2.5582  -2.5424   H         1 RES1   0.0000
    27 C15      9.8257  -3.6355  -1.7351   C.ar      1 RES1   0.0000
    28 H8      10.3202  -3.7277  -2.5411   H         1 RES1   0.0000
    29 C16     10.3083  -4.2301  -0.5433   C.ar      1 RES1   0.0000
    30 H9      11.1214  -4.7114  -0.5728   H         1 RES1   0.0000
    31 C17      9.6303  -4.1007   0.6319   C.ar      1 RES1   0.0000
    32 H10      9.9668  -4.5098   1.4206   H         1 RES1   0.0000
    33 C18      8.4235  -3.3575   0.6802   C.ar      1 RES1   0.0000
    34 S1      -0.7020   2.4457   1.2038   S.2       1 RES1   0.0000
    35 N5       0.9812   1.6195   3.2597   N.2       1 RES1   0.0000
    36 C19      0.2701   1.9802   2.4181   C.1       1 RES1   0.0000
    37 N1A      0.7844  -1.2904   3.7181   N.ar      1 RES1   0.0000
    38 N2A      1.6251  -0.1216   5.9759   N.ar      1 RES1   0.0000
    39 N3A     -2.9883  -3.2017   6.0353   N.ar      1 RES1   0.0000
    40 N4A     -2.0288  -2.0257   8.4217   N.ar      1 RES1   0.0000
    41 C1A      0.3699  -1.8364   2.5693   C.ar      1 RES1   0.0000
    42 H1A      0.8812  -1.6826   1.7834   H         1 RES1   0.0000
    43 C2A     -0.7755  -2.6171   2.4741   C.ar      1 RES1   0.0000
    44 H2A     -1.0409  -2.9797   1.6371   H         1 RES1   0.0000
    45 C3A     -1.5222  -2.8607   3.6056   C.ar      1 RES1   0.0000
    46 H3A     -2.2976  -3.4083   3.5621   H         1 RES1   0.0000
    47 C4A     -1.1208  -2.2884   4.8275   C.ar      1 RES1   0.0000
    48 C5A      0.0445  -1.5160   4.8272   C.ar      1 RES1   0.0000
    49 C6A      0.5106  -0.8780   6.0605   C.ar      1 RES1   0.0000
    50 C7A     -0.1864  -1.0746   7.2534   C.ar      1 RES1   0.0000
    51 C8A      0.3208  -0.4800   8.4209   C.ar      1 RES1   0.0000
    52 H4A     -0.1215  -0.5966   9.2535   H         1 RES1   0.0000
    53 C9A      1.4652   0.2714   8.3388   C.ar      1 RES1   0.0000
    54 H5A      1.8301   0.6745   9.1178   H         1 RES1   0.0000
    55 C10A     2.0892   0.4390   7.1027   C.ar      1 RES1   0.0000
    56 H6A      2.8745   0.9717   7.0569   H         1 RES1   0.0000
    57 C11A    -1.8745  -2.4780   6.0622   C.ar      1 RES1   0.0000
    58 C12A    -1.3942  -1.8781   7.2722   C.ar      1 RES1   0.0000
    59 C13A    -3.1627  -2.7664   8.4117   C.ar      1 RES1   0.0000
    60 C14A    -3.8848  -2.9343   9.6254   C.ar      1 RES1   0.0000
    61 H7A     -3.5544  -2.5582  10.4329   H         1 RES1   0.0000
    62 C15A    -5.0505  -3.6355   9.6256   C.ar      1 RES1   0.0000
    63 H8A     -5.5450  -3.7277  10.4315   H         1 RES1   0.0000
    64 C16A    -5.5332  -4.2301   8.4338   C.ar      1 RES1   0.0000
    65 H9A     -6.3462  -4.7114   8.4633   H         1 RES1   0.0000
    66 C17A    -4.8552  -4.1007   7.2586   C.ar      1 RES1   0.0000
    67 H10A    -5.1916  -4.5098   6.4699   H         1 RES1   0.0000
    68 C18A    -3.6483  -3.3575   7.2103   C.ar      1 RES1   0.0000
    69 S1A      5.4772   2.4457   6.6867   S.2       1 RES1   0.0000
    70 N5A      3.7940   1.6195   4.6308   N.2       1 RES1   0.0000
    71 C19A     4.5050   1.9802   5.4724   C.1       1 RES1   0.0000
    72 N6       0.4105   6.1782  11.8357   N.ar      2 RES2   0.0000
    73 C20      1.5228   6.8236  11.7461   C.ar      2 RES2   0.0000
    74 H11      2.3332   6.3323  11.6791   H         2 RES2   0.0000
    75 C21      1.5773   8.1380  11.7439   C.ar      2 RES2   0.0000
    76 H12      2.4066   8.5972  11.6801   H         2 RES2   0.0000
    77 C22      0.4105   8.8071  11.8357   C.ar      2 RES2   0.0000
    78 H13      0.4105   9.7571  11.8357   H         2 RES2   0.0000
    79 C20A    -0.7018   6.8236  11.9253   C.ar      2 RES2   0.0000
    80 H11A    -1.5123   6.3323  11.9923   H         2 RES2   0.0000
    81 C21A    -0.7564   8.1380  11.9275   C.ar      2 RES2   0.0000
    82 H12A    -1.5856   8.5972  11.9913   H         2 RES2   0.0000
@<TRIPOS>BOND
     1     1     2    1
     2     2     6   ar
     3     3     1    1
     4     4    22   ar
     5     5    23   ar
     6     6     7    1
     7     8     6   ar
     8     9     8    1
     9    10     8   ar
    10    11    10    1
    11    12    10   ar
    12    13     2   ar
    13    14     3   ar
    14    15    14   ar
    15    16    15   ar
    16    17    16    1
    17    18    16   ar
    18    19    18    1
    19    20     3   ar
    20    21    20    1
    21    22    12   ar
    22    23    15   ar
    23    24     5   ar
    24    25    24   ar
    25    26    25    1
    26    27    25   ar
    27    28    27    1
    28    29    27   ar
    29    30    29    1
    30    31    29   ar
    31    32    31    1
    32    33     4   ar
    33    34    36    2
    34    35     1    1
    35    36    35    2
    36    37     1    1
    37    38     1    1
    38    39    57   ar
    39    40    58   ar
    40    41    37   ar
    41    42    41    1
    42    43    41   ar
    43    44    43    1
    44    45    43   ar
    45    46    45    1
    46    47    45   ar
    47    48    37   ar
    48    49    38   ar
    49    50    49   ar
    50    51    50   ar
    51    52    51    1
    52    53    51   ar
    53    54    53    1
    54    55    38   ar
    55    56    55    1
    56    57    47   ar
    57    58    50   ar
    58    59    40   ar
    59    60    59   ar
    60    61    60    1
    61    62    60   ar
    62    63    62    1
    63    64    62   ar
    64    65    64    1
    65    66    64   ar
    66    67    66    1
    67    68    39   ar
    68    69    71    2
    69    70     1    1
    70    71    70    2
    71    12    13   ar
    72    13    14   ar
    73    18    20   ar
    74    22    23   ar
    75    24    33   ar
    76    31    33   ar
    77    47    48   ar
    78    48    49   ar
    79    53    55   ar
    80    57    58   ar
    81    59    68   ar
    82    66    68   ar
    83    72    73   ar
    84    73    74    1
    85    75    73   ar
    86    76    75    1
    87    77    75   ar
    88    78    77    1
    89    79    72   ar
    90    80    79    1
    91    81    77   ar
    92    82    81    1
    93    79    81   ar
@<TRIPOS>SUBSTRUCTURE
     1 RES1        1 GROUP             0 ****  ****    0  
     2 RES2       72 GROUP             0 ****  ****    0  
