@<TRIPOS>MOLECULE
POXGIV
   128   141     2     0     0
SMALL
NO_CHARGES
****
Generated from the CSD

@<TRIPOS>ATOM
     1 Fe1      0.0000   4.6872   0.0000   Fe        1 RES1   0.0000
     2 N1      -1.3009   4.7275   1.5072   N.2       1 RES1   0.0000
     3 N2       1.3887   3.9260   1.2294   N.2       1 RES1   0.0000
     4 C1      -2.6253   5.1231   1.4579   C.2       1 RES1   0.0000
     5 C2      -1.1079   4.2813   2.7980   C.2       1 RES1   0.0000
     6 C3       1.2660   3.6626   2.5757   C.2       1 RES1   0.0000
     7 C4       2.6849   3.5829   0.9075   C.2       1 RES1   0.0000
     8 C5      -3.2751   4.8550   2.7093   C.2       1 RES1   0.0000
     9 H1      -4.1884   5.0125   2.9141   H         1 RES1   0.0000
    10 C6      -2.3479   4.3394   3.5376   C.2       1 RES1   0.0000
    11 H2      -2.4822   4.0657   4.4366   H         1 RES1   0.0000
    12 C7       2.5116   3.1657   3.0993   C.2       1 RES1   0.0000
    13 H3       2.6901   2.9342   4.0026   H         1 RES1   0.0000
    14 C8       3.3715   3.0898   2.0754   C.2       1 RES1   0.0000
    15 H4       4.2658   2.7720   2.1115   H         1 RES1   0.0000
    16 C9       0.0974   3.8238   3.3314   C.2       1 RES1   0.0000
    17 C10      3.2744   3.7066  -0.3505   C.2       1 RES1   0.0000
    18 C11      0.1337   3.5351   4.8011   C.ar      1 RES1   0.0000
    19 C12     -0.2137   4.5269   5.7130   C.ar      1 RES1   0.0000
    20 H5      -0.4229   5.3978   5.3977   H         1 RES1   0.0000
    21 C13     -0.2602   4.2672   7.0781   C.ar      1 RES1   0.0000
    22 H6      -0.5304   4.9544   7.6763   H         1 RES1   0.0000
    23 C14      0.0823   3.0176   7.5822   C.ar      1 RES1   0.0000
    24 C15      0.4791   2.0399   6.6758   C.ar      1 RES1   0.0000
    25 H7       0.7569   1.1896   6.9994   H         1 RES1   0.0000
    26 C16      0.4800   2.2808   5.3053   C.ar      1 RES1   0.0000
    27 H8       0.7191   1.5843   4.7053   H         1 RES1   0.0000
    28 C17      0.0157   2.7148   9.0575   C.3       1 RES1   0.0000
    29 H9      -0.0119   3.5538   9.5622   H         1 RES1   0.0000
    30 H10      0.8081   2.2011   9.3210   H         1 RES1   0.0000
    31 H11     -0.7902   2.1917   9.2470   H         1 RES1   0.0000
    32 C18      4.6769   3.2051  -0.5523   C.ar      1 RES1   0.0000
    33 C19      5.7615   3.7394   0.1526   C.ar      1 RES1   0.0000
    34 H12      5.6183   4.4360   0.7819   H         1 RES1   0.0000
    35 C20      7.0502   3.2557  -0.0637   C.ar      1 RES1   0.0000
    36 H13      7.7752   3.6288   0.4237   H         1 RES1   0.0000
    37 C21      7.3005   2.2405  -0.9779   C.ar      1 RES1   0.0000
    38 C22      6.2254   1.7155  -1.6658   C.ar      1 RES1   0.0000
    39 H14      6.3704   1.0171  -2.2924   H         1 RES1   0.0000
    40 C23      4.9314   2.1861  -1.4607   C.ar      1 RES1   0.0000
    41 H15      4.2118   1.8055  -1.9496   H         1 RES1   0.0000
    42 C24      8.7102   1.7315  -1.2073   C.3       1 RES1   0.0000
    43 H16      8.6996   1.0424  -1.9031   H         1 RES1   0.0000
    44 H17      9.0601   1.3499  -0.3755   H         1 RES1   0.0000
    45 H18      9.2837   2.4739  -1.4915   H         1 RES1   0.0000
    46 N3       0.6323   6.5433   0.4850   N.2       1 RES1   0.0000
    47 N4       1.4134   8.5860   0.4047   N.pl3     1 RES1   0.0000
    48 C25      1.0971   7.4667  -0.3341   C.2       1 RES1   0.0000
    49 H19      1.1967   7.3748  -1.2745   H         1 RES1   0.0000
    50 C26      1.1708   8.3488   1.6844   C.2       1 RES1   0.0000
    51 H20      1.3173   8.9451   2.4095   H         1 RES1   0.0000
    52 C27      0.6796   7.1002   1.7567   C.2       1 RES1   0.0000
    53 H21      0.4052   6.6652   2.5559   H         1 RES1   0.0000
    54 C28      1.9847   9.7812  -0.1843   C.3       1 RES1   0.0000
    55 H22      1.4238  10.5537   0.0362   H         1 RES1   0.0000
    56 H23      2.0293   9.6772  -1.1574   H         1 RES1   0.0000
    57 H24      2.8869   9.9209   0.1722   H         1 RES1   0.0000
    58 N1B      1.3009   4.6469  -1.5072   N.2       1 RES1   0.0000
    59 N2B     -1.3887   5.4484  -1.2294   N.2       1 RES1   0.0000
    60 C1B      2.6253   4.2513  -1.4579   C.2       1 RES1   0.0000
    61 C2B      1.1079   5.0931  -2.7980   C.2       1 RES1   0.0000
    62 C3B     -1.2660   5.7118  -2.5757   C.2       1 RES1   0.0000
    63 C4B     -2.6849   5.7915  -0.9075   C.2       1 RES1   0.0000
    64 C5B      3.2751   4.5194  -2.7093   C.2       1 RES1   0.0000
    65 H1B      4.1884   4.3619  -2.9141   H         1 RES1   0.0000
    66 C6B      2.3479   5.0350  -3.5376   C.2       1 RES1   0.0000
    67 H2B      2.4822   5.3087  -4.4366   H         1 RES1   0.0000
    68 C7B     -2.5116   6.2087  -3.0993   C.2       1 RES1   0.0000
    69 H3B     -2.6901   6.4402  -4.0026   H         1 RES1   0.0000
    70 C8B     -3.3715   6.2846  -2.0754   C.2       1 RES1   0.0000
    71 H4B     -4.2658   6.6024  -2.1115   H         1 RES1   0.0000
    72 C9B     -0.0974   5.5506  -3.3314   C.2       1 RES1   0.0000
    73 C10B    -3.2744   5.6678   0.3505   C.2       1 RES1   0.0000
    74 C11B    -0.1337   5.8393  -4.8011   C.ar      1 RES1   0.0000
    75 C12B     0.2137   4.8475  -5.7130   C.ar      1 RES1   0.0000
    76 H5B      0.4229   3.9766  -5.3977   H         1 RES1   0.0000
    77 C13B     0.2602   5.1072  -7.0781   C.ar      1 RES1   0.0000
    78 H6B      0.5304   4.4200  -7.6763   H         1 RES1   0.0000
    79 C14B    -0.0823   6.3568  -7.5822   C.ar      1 RES1   0.0000
    80 C15B    -0.4791   7.3345  -6.6758   C.ar      1 RES1   0.0000
    81 H7B     -0.7569   8.1848  -6.9994   H         1 RES1   0.0000
    82 C16B    -0.4800   7.0936  -5.3053   C.ar      1 RES1   0.0000
    83 H8B     -0.7191   7.7901  -4.7053   H         1 RES1   0.0000
    84 C17B    -0.0157   6.6596  -9.0575   C.3       1 RES1   0.0000
    85 H9B      0.0119   5.8206  -9.5622   H         1 RES1   0.0000
    86 H10B    -0.8081   7.1733  -9.3210   H         1 RES1   0.0000
    87 H11B     0.7902   7.1827  -9.2470   H         1 RES1   0.0000
    88 C18B    -4.6769   6.1693   0.5523   C.ar      1 RES1   0.0000
    89 C19B    -5.7615   5.6350  -0.1526   C.ar      1 RES1   0.0000
    90 H12B    -5.6183   4.9384  -0.7819   H         1 RES1   0.0000
    91 C20B    -7.0502   6.1187   0.0637   C.ar      1 RES1   0.0000
    92 H13B    -7.7752   5.7456  -0.4237   H         1 RES1   0.0000
    93 C21B    -7.3005   7.1339   0.9779   C.ar      1 RES1   0.0000
    94 C22B    -6.2254   7.6589   1.6658   C.ar      1 RES1   0.0000
    95 H14B    -6.3704   8.3573   2.2924   H         1 RES1   0.0000
    96 C23B    -4.9314   7.1883   1.4607   C.ar      1 RES1   0.0000
    97 H15B    -4.2118   7.5689   1.9496   H         1 RES1   0.0000
    98 C24B    -8.7102   7.6429   1.2073   C.3       1 RES1   0.0000
    99 H16B    -8.6996   8.3320   1.9031   H         1 RES1   0.0000
   100 H17B    -9.0601   8.0245   0.3755   H         1 RES1   0.0000
   101 H18B    -9.2837   6.9005   1.4915   H         1 RES1   0.0000
   102 N3B     -0.6323   2.8311  -0.4850   N.2       1 RES1   0.0000
   103 N4B     -1.4134   0.7884  -0.4047   N.pl3     1 RES1   0.0000
   104 C25B    -1.0971   1.9077   0.3341   C.2       1 RES1   0.0000
   105 H19B    -1.1967   1.9996   1.2745   H         1 RES1   0.0000
   106 C26B    -1.1708   1.0256  -1.6844   C.2       1 RES1   0.0000
   107 H20B    -1.3173   0.4293  -2.4095   H         1 RES1   0.0000
   108 C27B    -0.6796   2.2742  -1.7567   C.2       1 RES1   0.0000
   109 H21B    -0.4052   2.7092  -2.5559   H         1 RES1   0.0000
   110 C28B    -1.9847  -0.4068   0.1843   C.3       1 RES1   0.0000
   111 H22B    -1.4238  -1.1793  -0.0362   H         1 RES1   0.0000
   112 H23B    -2.0293  -0.3028   1.1574   H         1 RES1   0.0000
   113 H24B    -2.8869  -0.5465  -0.1722   H         1 RES1   0.0000
   114 C29     -3.9455  -1.4521   5.1720   C.ar      2 RES2   0.0000
   115 C30     -2.6103  -1.4521   4.7880   C.ar      2 RES2   0.0000
   116 H25     -2.0737  -2.2236   4.9292   H         2 RES2   0.0000
   117 C31     -2.0576  -0.3225   4.1955   C.ar      2 RES2   0.0000
   118 H26     -1.1434  -0.3215   3.9320   H         2 RES2   0.0000
   119 C32     -2.8403   0.8071   3.9871   C.ar      2 RES2   0.0000
   120 H27     -2.4625   1.5796   3.5824   H         2 RES2   0.0000
   121 C33     -4.1755   0.8062   4.3712   C.ar      2 RES2   0.0000
   122 H28     -4.7120   1.5786   4.2299   H         2 RES2   0.0000
   123 C34     -4.7281  -0.3234   4.9636   C.ar      2 RES2   0.0000
   124 H29     -5.6423  -0.3234   5.2272   H         2 RES2   0.0000
   125 C35     -4.4750  -2.6801   5.7542   C.3       2 RES2   0.0000
   126 H30     -5.0494  -3.1310   5.0997   H         2 RES2   0.0000
   127 H31     -5.0012  -2.4617   6.5533   H         2 RES2   0.0000
   128 H32     -3.7350  -3.2707   6.0022   H         2 RES2   0.0000
@<TRIPOS>BOND
     1     1     2    1
     2     2     4    1
     3     3     1    1
     4     4     8    1
     5     5     2    1
     6     6     3    2
     7     7     3    1
     8     8     9    1
     9    10     5    1
    10    11    10    1
    11    12     6    1
    12    13    12    1
    13    14     7    1
    14    15    14    1
    15    16     5    2
    16    17     7    2
    17    18    16    1
    18    19    18   ar
    19    20    19    1
    20    21    19   ar
    21    22    21    1
    22    23    21   ar
    23    24    23   ar
    24    25    24    1
    25    26    18   ar
    26    27    26    1
    27    28    23    1
    28    29    28    1
    29    30    28    1
    30    31    28    1
    31    32    17    1
    32    33    32   ar
    33    34    33    1
    34    35    33   ar
    35    36    35    1
    36    37    35   ar
    37    38    37   ar
    38    39    38    1
    39    40    32   ar
    40    41    40    1
    41    42    37    1
    42    43    42    1
    43    44    42    1
    44    45    42    1
    45    46     1    1
    46    47    48    1
    47    48    46    2
    48    49    48    1
    49    50    47    1
    50    51    50    1
    51    52    46    1
    52    53    52    1
    53    54    47    1
    54    55    54    1
    55    56    54    1
    56    57    54    1
    57    58     1    1
    58    59     1    1
    59    60    17    1
    60    61    58    1
    61    62    59    1
    62    63    59    2
    63    64    60    2
    64    65    64    1
    65    66    61    2
    66    67    66    1
    67    68    62    1
    68    69    68    1
    69    70    63    1
    70    71    70    1
    71    72    61    1
    72    73     4    2
    73    74    72    1
    74    75    74   ar
    75    76    75    1
    76    77    75   ar
    77    78    77    1
    78    79    77   ar
    79    80    79   ar
    80    81    80    1
    81    82    74   ar
    82    83    82    1
    83    84    79    1
    84    85    84    1
    85    86    84    1
    86    87    84    1
    87    88    73    1
    88    89    88   ar
    89    90    89    1
    90    91    89   ar
    91    92    91    1
    92    93    91   ar
    93    94    93   ar
    94    95    94    1
    95    96    88   ar
    96    97    96    1
    97    98    93    1
    98    99    98    1
    99   100    98    1
   100   101    98    1
   101   102     1    1
   102   103   104    1
   103   104   102    2
   104   105   104    1
   105   106   103    1
   106   107   106    1
   107   108   102    1
   108   109   108    1
   109   110   103    1
   110   111   110    1
   111   112   110    1
   112   113   110    1
   113     6    16    1
   114     8    10    2
   115    12    14    2
   116    24    26   ar
   117    38    40   ar
   118    50    52    2
   119    58    60    1
   120    62    72    2
   121    63    73    1
   122    64    66    1
   123    68    70    2
   124    80    82   ar
   125    94    96   ar
   126   106   108    2
   127   114   115   ar
   128   115   116    1
   129   117   115   ar
   130   118   117    1
   131   119   117   ar
   132   120   119    1
   133   121   119   ar
   134   122   121    1
   135   123   114   ar
   136   124   123    1
   137   125   114    1
   138   126   125    1
   139   127   125    1
   140   128   125    1
   141   121   123   ar
@<TRIPOS>SUBSTRUCTURE
     1 RES1        1 GROUP             0 ****  ****    0  
     2 RES2      114 GROUP             0 ****  ****    0  
@<TRIPOS>CRYSIN
   16.8970    9.3744   18.7920   90.0000  113.5800   90.0000   231     1
