@<TRIPOS>MOLECULE
PTCYFE01
    62    75     2     0     0
SMALL
NO_CHARGES
****
Generated from the CSD

@<TRIPOS>ATOM
     1 Fe1      0.0000   0.0000   0.0000   Fe        1 RES1   0.0000
     2 N1      -1.7134  -0.1273   0.8951   N.2       1 RES1   0.0000
     3 N2      -0.6256   1.5441  -0.9762   N.2       1 RES1   0.0000
     4 N3      -2.8752   1.7554  -0.1108   N.2       1 RES1   0.0000
     5 N4       1.3426   2.0680  -2.3023   N.2       1 RES1   0.0000
     6 N5       0.6768   1.2165   1.4885   N.ar      1 RES1   0.0000
     7 C1      -2.7944   0.6977   0.7023   C.2       1 RES1   0.0000
     8 C2      -1.8590   2.1193  -0.8768   C.2       1 RES1   0.0000
     9 C3      -1.9646   3.2513  -1.7874   C.ar      1 RES1   0.0000
    10 C4      -2.9875   4.1452  -2.0634   C.ar      1 RES1   0.0000
    11 C5      -2.7229   5.1442  -2.9960   C.ar      1 RES1   0.0000
    12 C6      -1.4990   5.2275  -3.6381   C.ar      1 RES1   0.0000
    13 C7      -0.4750   4.3363  -3.3802   C.ar      1 RES1   0.0000
    14 C8      -0.7244   3.3418  -2.4354   C.ar      1 RES1   0.0000
    15 C9       0.0908   2.2660  -1.9067   C.2       1 RES1   0.0000
    16 C10     -2.0763  -1.0745   1.8228   C.2       1 RES1   0.0000
    17 C11     -3.4589  -0.8597   2.2313   C.ar      1 RES1   0.0000
    18 C12     -4.2905  -1.5431   3.1238   C.ar      1 RES1   0.0000
    19 C13     -5.5921  -1.0893   3.2411   C.ar      1 RES1   0.0000
    20 C14     -6.0545   0.0008   2.5164   C.ar      1 RES1   0.0000
    21 C15     -5.2212   0.6942   1.6442   C.ar      1 RES1   0.0000
    22 C16     -3.9097   0.2571   1.5223   C.ar      1 RES1   0.0000
    23 C17      0.5039   0.9212   2.7931   C.ar      1 RES1   0.0000
    24 C18      1.0279   1.6589   3.8178   C.ar      1 RES1   0.0000
    25 C19      1.7672   2.7967   3.5575   C.ar      1 RES1   0.0000
    26 C20      1.9001   3.1578   2.2104   C.ar      1 RES1   0.0000
    27 C21      1.3602   2.3506   1.2333   C.ar      1 RES1   0.0000
    28 C22      2.4120   3.5919   4.6544   C.3       1 RES1   0.0000
    29 N1D      1.7134   0.1273  -0.8951   N.2       1 RES1   0.0000
    30 N2D      0.6256  -1.5441   0.9762   N.2       1 RES1   0.0000
    31 N5D     -0.6768  -1.2165  -1.4885   N.ar      1 RES1   0.0000
    32 C10D     2.0763   1.0745  -1.8228   C.2       1 RES1   0.0000
    33 N4D     -1.3426  -2.0680   2.3023   N.2       1 RES1   0.0000
    34 C1D      2.7944  -0.6977  -0.7023   C.2       1 RES1   0.0000
    35 C2D      1.8590  -2.1193   0.8768   C.2       1 RES1   0.0000
    36 C9D     -0.0908  -2.2660   1.9067   C.2       1 RES1   0.0000
    37 C17D    -0.5039  -0.9212  -2.7931   C.ar      1 RES1   0.0000
    38 C21D    -1.3602  -2.3506  -1.2333   C.ar      1 RES1   0.0000
    39 C11D     3.4589   0.8597  -2.2313   C.2       1 RES1   0.0000
    40 N3D      2.8752  -1.7554   0.1108   N.2       1 RES1   0.0000
    41 C16D     3.9097  -0.2571  -1.5223   C.2       1 RES1   0.0000
    42 C3D      1.9646  -3.2513   1.7874   C.ar      1 RES1   0.0000
    43 C8D      0.7244  -3.3418   2.4354   C.ar      1 RES1   0.0000
    44 C18D    -1.0279  -1.6589  -3.8178   C.ar      1 RES1   0.0000
    45 C20D    -1.9001  -3.1578  -2.2104   C.ar      1 RES1   0.0000
    46 C12D     4.2905   1.5431  -3.1238   C.2       1 RES1   0.0000
    47 C15D     5.2212  -0.6942  -1.6442   C.2       1 RES1   0.0000
    48 C4D      2.9875  -4.1452   2.0634   C.ar      1 RES1   0.0000
    49 C7D      0.4750  -4.3363   3.3802   C.ar      1 RES1   0.0000
    50 C19D    -1.7672  -2.7967  -3.5575   C.ar      1 RES1   0.0000
    51 C13D     5.5921   1.0893  -3.2411   C.2       1 RES1   0.0000
    52 C14D     6.0545  -0.0008  -2.5164   C.2       1 RES1   0.0000
    53 C5D      2.7229  -5.1442   2.9960   C.ar      1 RES1   0.0000
    54 C6D      1.4990  -5.2275   3.6381   C.ar      1 RES1   0.0000
    55 C22D    -2.4120  -3.5919  -4.6544   C.3       1 RES1   0.0000
    56 N6      -1.8095   6.1670   2.0350   N.ar      2 RES2   0.0000
    57 C23     -1.8793   7.4623   1.7275   C.ar      2 RES2   0.0000
    58 C24     -1.2593   8.0309   0.6550   C.ar      2 RES2   0.0000
    59 C25     -0.4919   7.2605  -0.2031   C.ar      2 RES2   0.0000
    60 C26     -0.3978   5.9137   0.1250   C.ar      2 RES2   0.0000
    61 C27     -1.0543   5.4135   1.2134   C.ar      2 RES2   0.0000
    62 C28      0.2493   7.8344  -1.3639   C.3       2 RES2   0.0000
@<TRIPOS>BOND
     1     1     2    1
     2     2     7    1
     3     3     1    1
     4     4     7    2
     5     5    15    2
     6     6     1    1
     7     7    22    1
     8     8     3    2
     9     9     8    1
    10    10     9   ar
    11    11    10   ar
    12    12    11   ar
    13    13    12   ar
    14    14     9   ar
    15    15     3    1
    16    16     2    1
    17    17    16    1
    18    18    17   ar
    19    19    18   ar
    20    20    19   ar
    21    21    20   ar
    22    22    17   ar
    23    23     6   ar
    24    24    23   ar
    25    25    24   ar
    26    26    25   ar
    27    27     6   ar
    28    28    25    1
    29    29     1    1
    30    30     1    1
    31    31     1    1
    32    32     5    1
    33    33    16    2
    34    34    29    1
    35    35    30    1
    36    36    30    2
    37    37    31   ar
    38    38    31   ar
    39    39    32    2
    40    40    34    1
    41    41    34    2
    42    42    35    1
    43    43    36    1
    44    44    37   ar
    45    45    38   ar
    46    46    39    1
    47    47    41    1
    48    48    42   ar
    49    49    43   ar
    50    50    44   ar
    51    51    46    2
    52    52    47    2
    53    53    48   ar
    54    54    49   ar
    55    55    50    1
    56     4     8    1
    57    13    14   ar
    58    14    15    1
    59    21    22   ar
    60    26    27   ar
    61    29    32    1
    62    33    36    1
    63    35    40    2
    64    39    41    1
    65    42    43   ar
    66    45    50   ar
    67    51    52    1
    68    53    54   ar
    69    56    57   ar
    70    57    58   ar
    71    58    59   ar
    72    59    60   ar
    73    60    61   ar
    74    61    56   ar
    75    62    59    1
@<TRIPOS>SUBSTRUCTURE
     1 RES1        1 GROUP             0 ****  ****    0  
     2 RES2       56 GROUP             0 ****  ****    0  
@<TRIPOS>CRYSIN
   10.3150   25.0060   17.8760   90.0000   90.0000   90.0000    61     1
