@<TRIPOS>MOLECULE
PTHFFE
    59    72     1     0     0
SMALL
NO_CHARGES
****
Generated from the CSD

@<TRIPOS>ATOM
     1 Fe1      0.0000   0.0000   0.0000   Fe        1 RES1   0.0000
     2 N1      -1.0728   1.5338   0.8454   N.2       1 RES1   0.0000
     3 N2      -0.2219   0.8487  -1.8640   N.2       1 RES1   0.0000
     4 C1      -1.7614   2.5140   0.1555   C.2       1 RES1   0.0000
     5 C2      -1.4441   1.6513   2.1574   C.2       1 RES1   0.0000
     6 C3       0.2128   0.3310  -3.0551   C.2       1 RES1   0.0000
     7 C4      -1.0142   1.9344  -2.1630   C.2       1 RES1   0.0000
     8 C5      -2.5754   3.2502   1.0678   C.2       1 RES1   0.0000
     9 C6      -2.3922   2.7265   2.2960   C.2       1 RES1   0.0000
    10 C7      -0.3113   1.1348  -4.1374   C.2       1 RES1   0.0000
    11 C8      -1.0432   2.1091  -3.5910   C.2       1 RES1   0.0000
    12 C9      -1.0045   0.8235   3.2139   C.2       1 RES1   0.0000
    13 C10     -1.7003   2.7168  -1.2370   C.2       1 RES1   0.0000
    14 C11     -2.5113   3.8642  -1.7730   C.ar      1 RES1   0.0000
    15 C12     -3.7714   3.6663  -2.2726   C.ar      1 RES1   0.0000
    16 C13     -4.5169   4.7238  -2.7666   C.ar      1 RES1   0.0000
    17 C14     -3.9950   5.9761  -2.7698   C.ar      1 RES1   0.0000
    18 C15     -2.7491   6.1957  -2.2807   C.ar      1 RES1   0.0000
    19 C16     -2.0014   5.1444  -1.7850   C.ar      1 RES1   0.0000
    20 C17     -1.3611   1.2298   4.6000   C.ar      1 RES1   0.0000
    21 C18     -2.1673   0.4332   5.4043   C.ar      1 RES1   0.0000
    22 C19     -2.4476   0.8048   6.7010   C.ar      1 RES1   0.0000
    23 C20     -1.9215   1.9599   7.2200   C.ar      1 RES1   0.0000
    24 C21     -1.1512   2.7655   6.4302   C.ar      1 RES1   0.0000
    25 C22     -0.8697   2.4089   5.1335   C.ar      1 RES1   0.0000
    26 O1       2.0584   1.0739   0.3772   O.3       1 RES1   0.0000
    27 C23      3.2340   0.8212  -0.3820   C.3       1 RES1   0.0000
    28 C24      4.3128   1.6724   0.2087   C.3       1 RES1   0.0000
    29 C25      3.8453   1.8898   1.5860   C.3       1 RES1   0.0000
    30 C26      2.4522   1.5485   1.6505   C.3       1 RES1   0.0000
    31 N1A      1.0728  -1.5338  -0.8454   N.2       1 RES1   0.0000
    32 N2A      0.2219  -0.8487   1.8640   N.2       1 RES1   0.0000
    33 O1A     -2.0584  -1.0739  -0.3772   O.3       1 RES1   0.0000
    34 C9A      1.0045  -0.8235  -3.2139   C.2       1 RES1   0.0000
    35 C3A     -0.2128  -0.3310   3.0551   C.2       1 RES1   0.0000
    36 C1A      1.7614  -2.5140  -0.1555   C.2       1 RES1   0.0000
    37 C2A      1.4441  -1.6513  -2.1574   C.2       1 RES1   0.0000
    38 C4A      1.0142  -1.9344   2.1630   C.2       1 RES1   0.0000
    39 C23A    -3.2340  -0.8212   0.3820   C.3       1 RES1   0.0000
    40 C26A    -2.4522  -1.5485  -1.6505   C.3       1 RES1   0.0000
    41 C17A     1.3611  -1.2298  -4.6000   C.ar      1 RES1   0.0000
    42 C7A      0.3113  -1.1348   4.1374   C.2       1 RES1   0.0000
    43 C5A      2.5754  -3.2502  -1.0678   C.2       1 RES1   0.0000
    44 C10A     1.7003  -2.7168   1.2370   C.2       1 RES1   0.0000
    45 C6A      2.3922  -2.7265  -2.2960   C.2       1 RES1   0.0000
    46 C8A      1.0432  -2.1091   3.5910   C.2       1 RES1   0.0000
    47 C24A    -4.3128  -1.6724  -0.2087   C.3       1 RES1   0.0000
    48 C25A    -3.8453  -1.8898  -1.5860   C.3       1 RES1   0.0000
    49 C18A     2.1673  -0.4332  -5.4043   C.ar      1 RES1   0.0000
    50 C22A     0.8697  -2.4089  -5.1335   C.ar      1 RES1   0.0000
    51 C11A     2.5113  -3.8642   1.7730   C.ar      1 RES1   0.0000
    52 C19A     2.4476  -0.8048  -6.7010   C.ar      1 RES1   0.0000
    53 C21A     1.1512  -2.7655  -6.4302   C.ar      1 RES1   0.0000
    54 C12A     3.7714  -3.6663   2.2726   C.ar      1 RES1   0.0000
    55 C16A     2.0014  -5.1444   1.7850   C.ar      1 RES1   0.0000
    56 C20A     1.9215  -1.9599  -7.2200   C.ar      1 RES1   0.0000
    57 C13A     4.5169  -4.7238   2.7666   C.ar      1 RES1   0.0000
    58 C15A     2.7491  -6.1957   2.2807   C.ar      1 RES1   0.0000
    59 C14A     3.9950  -5.9761   2.7698   C.ar      1 RES1   0.0000
@<TRIPOS>BOND
     1     1     2    1
     2     2     4    1
     3     3     1    1
     4     4     8    1
     5     5     2    2
     6     6     3    1
     7     7     3    1
     8     8     9    2
     9     9     5    1
    10    10     6    2
    11    11     7    2
    12    12     5    1
    13    13     4    2
    14    14    13    1
    15    15    14   ar
    16    16    15   ar
    17    17    16   ar
    18    18    17   ar
    19    19    14   ar
    20    20    12    1
    21    21    20   ar
    22    22    21   ar
    23    23    22   ar
    24    24    23   ar
    25    25    20   ar
    26    26     1    1
    27    27    26    1
    28    28    27    1
    29    29    28    1
    30    30    26    1
    31    31     1    1
    32    32     1    1
    33    33     1    1
    34    34     6    1
    35    35    12    2
    36    36    31    2
    37    37    31    1
    38    38    32    1
    39    39    33    1
    40    40    33    1
    41    41    34    1
    42    42    35    1
    43    43    36    1
    44    44    36    1
    45    45    37    1
    46    46    38    1
    47    47    39    1
    48    48    40    1
    49    49    41   ar
    50    50    41   ar
    51    51    44    1
    52    52    49   ar
    53    53    50   ar
    54    54    51   ar
    55    55    51   ar
    56    56    52   ar
    57    57    54   ar
    58    58    55   ar
    59    59    57   ar
    60     7    13    1
    61    10    11    1
    62    18    19   ar
    63    24    25   ar
    64    29    30    1
    65    32    35    1
    66    34    37    2
    67    38    44    2
    68    42    46    2
    69    43    45    2
    70    47    48    1
    71    53    56   ar
    72    58    59   ar
@<TRIPOS>SUBSTRUCTURE
     1 RES1        1 GROUP             0 ****  ****    0  
@<TRIPOS>CRYSIN
   11.3540   11.8040    9.6880  103.9200  115.9100  102.3800     2     1
