@<TRIPOS>MOLECULE
PUBVOX
    77    75     2     0     0
SMALL
NO_CHARGES
****
Generated from the CSD

@<TRIPOS>ATOM
     1 Sm1      7.8983   0.7335   4.5105   Sm        1 RES1   0.0000
     2 Fe1      4.9714  -2.2040   0.8491   Fe        1 RES1   0.0000
     3 O1       9.3629  -0.3504   2.9882   O.2       1 RES1   0.0000
     4 O2       6.0338  -0.2767   5.6132   O.2       1 RES1   0.0000
     5 O3       8.7551  -1.1327   5.7691   O.2       1 RES1   0.0000
     6 O4      10.0777   1.6241   4.9935   O.2       1 RES1   0.0000
     7 O5       6.1627   2.4242   4.6171   O.3       1 RES1   0.0000
     8 O6       7.9189   1.6614   6.7524   O.3       1 RES1   0.0000
     9 O7       8.2199   2.4570   2.8554   O.3       1 RES1   0.0000
    10 O8       7.8614   3.6181   4.5316   O.3       1 RES1   0.0000
    11 N1       6.4808  -0.2377   2.6882   N.1       1 RES1   0.0000
    12 N2       7.4419  -2.5386  -0.9474   N.1       1 RES1   0.0000
    13 N3       6.0300  -4.4687   2.6448   N.1       1 RES1   0.0000
    14 N4       3.4025  -4.3020  -0.7737   N.1       1 RES1   0.0000
    15 N5       2.4561  -1.7687   2.5540   N.1       1 RES1   0.0000
    16 N6       3.9526   0.0346  -1.0066   N.1       1 RES1   0.0000
    17 N7      10.0346  -2.0232   1.6619   N.am      1 RES1   0.0000
    18 N8       4.9198  -1.9620   6.5961   N.am      1 RES1   0.0000
    19 N9       8.5864  -2.5856   7.4803   N.am      1 RES1   0.0000
    20 N10     12.1389   2.4233   4.6698   N.am      1 RES1   0.0000
    21 C1       5.9133  -0.9447   1.9796   C.1       1 RES1   0.0000
    22 C2       6.5223  -2.4126  -0.2763   C.1       1 RES1   0.0000
    23 C3       5.6296  -3.6438   1.9855   C.1       1 RES1   0.0000
    24 C4       3.9985  -3.5178  -0.1855   C.1       1 RES1   0.0000
    25 C5       3.3947  -1.9372   1.9362   C.1       1 RES1   0.0000
    26 C6       4.3458  -0.7814  -0.3118   C.1       1 RES1   0.0000
    27 C7       9.9201  -0.7637   1.9658   C.2       1 RES1   0.0000
    28 C8       9.4320  -3.0291   2.4632   C.3       1 RES1   0.0000
    29 C9      10.7807  -2.4153   0.4480   C.3       1 RES1   0.0000
    30 C10      5.4325  -0.7406   6.5862   C.2       1 RES1   0.0000
    31 C11      4.2447  -2.4534   7.8040   C.3       1 RES1   0.0000
    32 C12      5.0019  -2.8109   5.4593   C.3       1 RES1   0.0000
    33 C13      8.6765  -1.3997   6.9731   C.2       1 RES1   0.0000
    34 C14      8.4848  -2.7772   8.9034   C.3       1 RES1   0.0000
    35 C15      8.6084  -3.7378   6.6494   C.3       1 RES1   0.0000
    36 C16     11.0409   1.9221   4.2750   C.2       1 RES1   0.0000
    37 C17     13.2343   2.7107   3.7638   C.3       1 RES1   0.0000
    38 C18     12.3557   2.7142   6.0415   C.3       1 RES1   0.0000
    39 H1       6.1219   3.1506   4.0500   H         1 RES1   0.0000
    40 H2       5.7791   2.6938   5.3922   H         1 RES1   0.0000
    41 H3       7.0878   1.9097   7.1665   H         1 RES1   0.0000
    42 H4       8.1973   1.7971   7.1330   H         1 RES1   0.0000
    43 H5       7.9163   2.8677   2.6309   H         1 RES1   0.0000
    44 H6       8.8470   2.2707   2.2402   H         1 RES1   0.0000
    45 H7       8.4385   4.0962   3.9573   H         1 RES1   0.0000
    46 H8       7.2982   4.0749   5.1415   H         1 RES1   0.0000
    47 H9      10.2953  -0.1304   1.3717   H         1 RES1   0.0000
    48 H10      8.5034  -2.9005   2.4987   H         1 RES1   0.0000
    49 H11      9.6308  -3.8859   2.0921   H         1 RES1   0.0000
    50 H12      9.8002  -2.9865   3.3454   H         1 RES1   0.0000
    51 H13     10.7466  -3.3866   0.3868   H         1 RES1   0.0000
    52 H14     10.3621  -2.0516  -0.3059   H         1 RES1   0.0000
    53 H15     11.6693  -2.1483   0.5250   H         1 RES1   0.0000
    54 H16      5.3323  -0.1943   7.3580   H         1 RES1   0.0000
    55 H17      3.5052  -1.8858   8.0152   H         1 RES1   0.0000
    56 H18      3.9245  -3.3360   7.6540   H         1 RES1   0.0000
    57 H19      4.8504  -2.4570   8.5343   H         1 RES1   0.0000
    58 H20      4.5777  -3.6465   5.6487   H         1 RES1   0.0000
    59 H21      4.5485  -2.4055   4.7191   H         1 RES1   0.0000
    60 H22      5.9039  -2.9644   5.2244   H         1 RES1   0.0000
    61 H23      8.6765  -0.6715   7.5770   H         1 RES1   0.0000
    62 H24      7.6986  -2.3452   9.2251   H         1 RES1   0.0000
    63 H25      8.4203  -3.7130   9.0830   H         1 RES1   0.0000
    64 H26      9.2463  -2.4233   9.3218   H         1 RES1   0.0000
    65 H27      7.9039  -3.7059   6.0060   H         1 RES1   0.0000
    66 H28      9.4466  -3.7706   6.1678   H         1 RES1   0.0000
    67 H29      8.5300  -4.5290   7.1626   H         1 RES1   0.0000
    68 H30     10.9473   1.7616   3.3395   H         1 RES1   0.0000
    69 H31     13.5158   1.8849   3.3592   H         1 RES1   0.0000
    70 H32     12.9583   3.3112   3.1086   H         1 RES1   0.0000
    71 H33     13.9662   3.0628   4.2632   H         1 RES1   0.0000
    72 H34     12.2832   1.9124   6.5487   H         1 RES1   0.0000
    73 H35     13.2225   3.0814   6.1599   H         1 RES1   0.0000
    74 H36     11.7034   3.3369   6.3435   H         1 RES1   0.0000
    75 O9       9.7937   2.2601   8.5442   O.3       2 RES2   0.0000
    76 H37     10.1015   2.6734   8.5264   H         2 RES2   0.0000
    77 H38     10.1438   1.8964   8.9113   H         2 RES2   0.0000
@<TRIPOS>BOND
     1     1     3    1
     2     2    21    1
     3     3    27    2
     4     4     1    1
     5     5     1    1
     6     6     1    1
     7     7     1    1
     8     8     1    1
     9     9     1    1
    10    10     1    1
    11    11     1    1
    12    12    22    3
    13    13    23    3
    14    14    24    3
    15    15    25    3
    16    16    26    3
    17    17    27   am
    18    18    30   am
    19    19    33   am
    20    20    36   am
    21    21    11    3
    22    22     2    1
    23    23     2    1
    24    24     2    1
    25    25     2    1
    26    26     2    1
    27    27    47    1
    28    28    17    1
    29    29    17    1
    30    30     4    2
    31    31    18    1
    32    32    18    1
    33    33     5    2
    34    34    19    1
    35    35    19    1
    36    36     6    2
    37    37    20    1
    38    38    20    1
    39    39     7    1
    40    40     7    1
    41    41     8    1
    42    42     8    1
    43    43     9    1
    44    44     9    1
    45    45    10    1
    46    46    10    1
    47    48    28    1
    48    49    28    1
    49    50    28    1
    50    51    29    1
    51    52    29    1
    52    53    29    1
    53    54    30    1
    54    55    31    1
    55    56    31    1
    56    57    31    1
    57    58    32    1
    58    59    32    1
    59    60    32    1
    60    61    33    1
    61    62    34    1
    62    63    34    1
    63    64    34    1
    64    65    35    1
    65    66    35    1
    66    67    35    1
    67    68    36    1
    68    69    37    1
    69    70    37    1
    70    71    37    1
    71    72    38    1
    72    73    38    1
    73    74    38    1
    74    75    76    1
    75    77    75    1
@<TRIPOS>SUBSTRUCTURE
     1 RES1        1 GROUP             0 ****  ****    0  
     2 RES2       75 GROUP             0 ****  ****    0  
@<TRIPOS>CRYSIN
   17.5830    8.8700   19.8450   90.0000   95.9800   90.0000   231     1
