@<TRIPOS>MOLECULE
PUFQOZ01
   111   120     4     0     0
SMALL
NO_CHARGES
****
Generated from the CSD

@<TRIPOS>ATOM
     1 Fe1      5.4040   7.3082   7.9455   Fe        1 RES1   0.0000
     2 N1       5.6313   8.6364   9.6919   N.ar      1 RES1   0.0000
     3 N2       7.5031   6.8185   7.9852   N.3       1 RES1   0.0000
     4 H1       7.9835   7.5671   8.0262   H         1 RES1   0.0000
     5 H2       7.6833   6.3342   8.7097   H         1 RES1   0.0000
     6 N3       3.1965   7.5255   7.7288   N.ar      1 RES1   0.0000
     7 O1       7.2709   4.9563  10.3140   O.2       1 RES1   0.0000
     8 O2       2.7661   2.1169  11.3768   O.2       1 RES1   0.0000
     9 N4       5.6268   9.2850   7.0411   N.2       1 RES1   0.0000
    10 N5       4.6039   5.7216   9.2027   N.2       1 RES1   0.0000
    11 C1       3.2569   5.5792   9.0855   C.2       1 RES1   0.0000
    12 C2       2.4760   6.5463   8.3134   C.ar      1 RES1   0.0000
    13 C3       4.9363   4.6718  10.0107   C.2       1 RES1   0.0000
    14 C4       0.4103   7.4627   7.5678   C.ar      1 RES1   0.0000
    15 H3      -0.5174   7.4469   7.5038   H         1 RES1   0.0000
    16 C5       6.2627   3.1479  11.4393   C.ar      1 RES1   0.0000
    17 C6       3.7740   2.7792  11.1423   C.2       1 RES1   0.0000
    18 C7       3.7818   3.9683  10.3249   C.2       1 RES1   0.0000
    19 C8       1.1453   8.4570   6.9817   C.ar      1 RES1   0.0000
    20 H4       0.7113   9.1354   6.5168   H         1 RES1   0.0000
    21 C9       2.5127   8.4667   7.0708   C.ar      1 RES1   0.0000
    22 H5       2.9831   9.1545   6.6578   H         1 RES1   0.0000
    23 C10      1.0901   6.4949   8.2493   C.ar      1 RES1   0.0000
    24 H6       0.6277   5.8045   8.6679   H         1 RES1   0.0000
    25 C11      6.2460   4.3236  10.5437   C.2       1 RES1   0.0000
    26 C12      5.1022   2.3978  11.7003   C.ar      1 RES1   0.0000
    27 C13      7.4652   2.7727  12.0285   C.ar      1 RES1   0.0000
    28 H7       8.2390   3.2631  11.8654   H         1 RES1   0.0000
    29 C14      7.5054   1.6601  12.8616   C.ar      1 RES1   0.0000
    30 H8       8.3107   1.4124  13.2568   H         1 RES1   0.0000
    31 C15      6.3853   0.9278  13.1101   C.ar      1 RES1   0.0000
    32 H9       6.4298   0.1811  13.6624   H         1 RES1   0.0000
    33 C16      5.1955   1.2901  12.5443   C.ar      1 RES1   0.0000
    34 H10      4.4331   0.7890  12.7263   H         1 RES1   0.0000
    35 C17      5.5070   9.9642   5.8767   C.2       1 RES1   0.0000
    36 C18      5.4037  11.3131   6.1596   C.2       1 RES1   0.0000
    37 C19      5.6239  10.2586   7.9961   C.2       1 RES1   0.0000
    38 C20      5.2162  12.3387   5.1374   C.2       1 RES1   0.0000
    39 C21      5.7004   8.2740  10.9673   C.ar      1 RES1   0.0000
    40 H11      5.6583   7.3695  11.1802   H         1 RES1   0.0000
    41 C22      4.8305  12.6904   2.7321   C.ar      1 RES1   0.0000
    42 H12      4.7646  13.5997   2.9147   H         1 RES1   0.0000
    43 C23      5.5250   9.4437   4.5341   C.2       1 RES1   0.0000
    44 C24      5.8857  10.5256  11.7050   C.ar      1 RES1   0.0000
    45 H13      5.9730  11.1543  12.3841   H         1 RES1   0.0000
    46 C25      5.8082  10.9203  10.3874   C.ar      1 RES1   0.0000
    47 H14      5.8287  11.8230  10.1624   H         1 RES1   0.0000
    48 C26      5.2176  10.4397   3.4651   C.ar      1 RES1   0.0000
    49 C27      5.0989  11.8211   3.7667   C.ar      1 RES1   0.0000
    50 C28      5.6986   9.9530   9.4012   C.ar      1 RES1   0.0000
    51 C29      5.0490  10.0143   2.1741   C.ar      1 RES1   0.0000
    52 H15      5.1219   9.1094   1.9715   H         1 RES1   0.0000
    53 C30      5.8329   9.1929  11.9910   C.ar      1 RES1   0.0000
    54 H16      5.8856   8.9040  12.8729   H         1 RES1   0.0000
    55 C31      4.7722  10.9218   1.1707   C.ar      1 RES1   0.0000
    56 H17      4.6608  10.6212   0.2979   H         1 RES1   0.0000
    57 C32      4.6597  12.2606   1.4442   C.ar      1 RES1   0.0000
    58 H18      4.4699  12.8677   0.7648   H         1 RES1   0.0000
    59 N6       2.7055   4.5457   9.7216   N.2       1 RES1   0.0000
    60 N7       5.5154  11.5222   7.5085   N.2       1 RES1   0.0000
    61 O3       5.7757   8.2826   4.2356   O.2       1 RES1   0.0000
    62 O4       5.1061  13.5359   5.3985   O.2       1 RES1   0.0000
    63 N8       5.5197   6.0306   6.2159   N.3       1 RES1   0.0000
    64 H19      4.8312   5.4670   6.2018   H         1 RES1   0.0000
    65 H20      5.5033   6.5170   5.4711   H         1 RES1   0.0000
    66 C33      7.8684   6.0721   6.7973   C.3       1 RES1   0.0000
    67 H21      8.1466   6.6908   6.1049   H         1 RES1   0.0000
    68 H22      8.6228   5.4966   7.0030   H         1 RES1   0.0000
    69 C34      6.7985   5.2793   6.3112   C.3       1 RES1   0.0000
    70 H23      6.6742   4.5189   6.9018   H         1 RES1   0.0000
    71 H24      7.0305   4.9378   5.4340   H         1 RES1   0.0000
    72 O5       5.5644   3.4672   1.4754   O.3       2 RES2   0.0000
    73 O6       6.3122   6.1029   1.2144   O.3       2 RES2   0.0000
    74 C35      5.4378   5.6454   2.1381   C.3       2 RES2   0.0000
    75 H25      5.7241   6.0235   2.9838   H         2 RES2   0.0000
    76 H26      4.5881   6.0631   1.9278   H         2 RES2   0.0000
    77 C36      6.7641   5.1050   0.3251   C.3       2 RES2   0.0000
    78 H27      6.4323   5.3316  -0.5570   H         2 RES2   0.0000
    79 H28      7.7312   5.1673   0.2884   H         2 RES2   0.0000
    80 C37      5.1825   4.4570   2.3679   C.3       2 RES2   0.0000
    81 H29      4.2219   4.3867   2.4794   H         2 RES2   0.0000
    82 H30      5.5820   4.2388   3.2243   H         2 RES2   0.0000
    83 C38      6.4772   3.9066   0.5345   C.3       2 RES2   0.0000
    84 H31      7.3130   3.4610   0.7415   H         2 RES2   0.0000
    85 H32      6.1802   3.5484  -0.3170   H         2 RES2   0.0000
    86 O7       0.2238   2.8255   2.2913   O.3       3 RES3   0.0000
    87 O8      -0.0824   2.6992  -0.4392   O.3       3 RES3   0.0000
    88 C39     -1.0056   2.6371   1.6786   C.3       3 RES3   0.0000
    89 H33     -1.4082   3.5026   1.5088   H         3 RES3   0.0000
    90 H34     -1.5882   2.1534   2.2851   H         3 RES3   0.0000
    91 C40      0.9863   3.5992   1.4192   C.3       3 RES3   0.0000
    92 H35      1.8476   3.7866   1.8240   H         3 RES3   0.0000
    93 H36      0.5379   4.4445   1.2616   H         3 RES3   0.0000
    94 C41     -0.9174   1.9151   0.4454   C.3       3 RES3   0.0000
    95 H37     -1.7991   1.7961   0.0596   H         3 RES3   0.0000
    96 H38     -0.5237   1.0406   0.5927   H         3 RES3   0.0000
    97 C42      1.1816   2.9213   0.1719   C.3       3 RES3   0.0000
    98 H39      1.7402   3.4591  -0.4118   H         3 RES3   0.0000
    99 H40      1.6279   2.0733   0.3227   H         3 RES3   0.0000
   100 N9       3.7183  -0.2133   3.4448   N.am      4 RES4   0.0000
   101 C43      3.6122  -0.8090   2.4070   C.2       4 RES4   0.0000
   102 H41      3.5668  -0.1230   1.7796   H         4 RES4   0.0000
   103 O9       3.5420  -1.6838   1.8037   O.2       4 RES4   0.0000
   104 C44      3.8760  -0.8335   4.6983   C.3       4 RES4   0.0000
   105 H42      3.0442  -0.8026   5.1778   H         4 RES4   0.0000
   106 H43      4.5516  -0.3728   5.2013   H         4 RES4   0.0000
   107 H44      4.1384  -1.7482   4.5728   H         4 RES4   0.0000
   108 C45      3.7054   1.1701   3.5776   C.3       4 RES4   0.0000
   109 H45      3.5703   1.5720   2.7161   H         4 RES4   0.0000
   110 H46      4.5441   1.4643   3.9398   H         4 RES4   0.0000
   111 H47      2.9933   1.4284   4.1666   H         4 RES4   0.0000
@<TRIPOS>BOND
     1     1     2    1
     2     2    39   ar
     3     3     1    1
     4     4     3    1
     5     5     3    1
     6     6     1    1
     7     7    25    2
     8     8    17    2
     9     9     1    1
    10    10     1    1
    11    11    10    1
    12    12     6   ar
    13    13    10    1
    14    14    15    1
    15    16    25    1
    16    17    18    1
    17    18    13    2
    18    19    14   ar
    19    20    19    1
    20    21     6   ar
    21    22    21    1
    22    23    12   ar
    23    24    23    1
    24    25    13    1
    25    26    16   ar
    26    27    16   ar
    27    28    27    1
    28    29    27   ar
    29    30    29    1
    30    31    29   ar
    31    32    31    1
    32    33    26   ar
    33    34    33    1
    34    35     9    1
    35    36    35    2
    36    37     9    1
    37    38    36    1
    38    39    40    1
    39    41    42    1
    40    43    35    1
    41    44    45    1
    42    46    44   ar
    43    47    46    1
    44    48    43    1
    45    49    38    1
    46    50     2   ar
    47    51    48   ar
    48    52    51    1
    49    53    39   ar
    50    54    53    1
    51    55    51   ar
    52    56    55    1
    53    57    41   ar
    54    58    57    1
    55    59    11    2
    56    60    36    1
    57    61    43    2
    58    62    38    2
    59    63     1    1
    60    64    63    1
    61    65    63    1
    62    66     3    1
    63    67    66    1
    64    68    66    1
    65    69    63    1
    66    70    69    1
    67    71    69    1
    68    11    12    1
    69    14    23   ar
    70    17    26    1
    71    18    59    1
    72    19    21   ar
    73    31    33   ar
    74    37    50    1
    75    37    60    2
    76    41    49   ar
    77    44    53   ar
    78    46    50   ar
    79    48    49   ar
    80    55    57   ar
    81    66    69    1
    82    72    80    1
    83    73    74    1
    84    74    75    1
    85    76    74    1
    86    77    73    1
    87    78    77    1
    88    79    77    1
    89    80    74    1
    90    81    80    1
    91    82    80    1
    92    83    72    1
    93    84    83    1
    94    85    83    1
    95    77    83    1
    96    86    88    1
    97    87    94    1
    98    88    89    1
    99    90    88    1
   100    91    86    1
   101    92    91    1
   102    93    91    1
   103    94    88    1
   104    95    94    1
   105    96    94    1
   106    97    87    1
   107    98    97    1
   108    99    97    1
   109    91    97    1
   110   100   101   am
   111   101   102    1
   112   103   101    2
   113   104   100    1
   114   105   104    1
   115   106   104    1
   116   107   104    1
   117   108   100    1
   118   109   108    1
   119   110   108    1
   120   111   108    1
@<TRIPOS>SUBSTRUCTURE
     1 RES1        1 GROUP             0 ****  ****    0  
     2 RES2       72 GROUP             0 ****  ****    0  
     3 RES3       86 GROUP             0 ****  ****    0  
     4 RES4      100 GROUP             0 ****  ****    0  
@<TRIPOS>CRYSIN
   11.3390   12.5820   16.3700  100.7760  101.0140  101.0590     2     1
