@<TRIPOS>MOLECULE
PUFRAM01
    93   103     2     0     0
SMALL
NO_CHARGES
****
Generated from the CSD

@<TRIPOS>ATOM
     1 Fe1      2.9198   8.7858  11.2148   Fe        1 RES1   0.0000
     2 N1       4.8852   9.7336  10.8228   N.ar      1 RES1   0.0000
     3 N2       2.7108   9.6133   9.2368   N.2       1 RES1   0.0000
     4 N3       3.7439  10.7736   7.5368   N.2       1 RES1   0.0000
     5 N4       2.1023  10.5850  12.1312   N.ar      1 RES1   0.0000
     6 N5       3.4781   8.5643  13.3240   N.2       1 RES1   0.0000
     7 N6       3.4480   9.6007  15.3677   N.2       1 RES1   0.0000
     8 N7       1.0702   7.7344  11.5790   N.3       1 RES1   0.0000
     9 H1       0.6715   8.0544  12.3073   H         1 RES1   0.0000
    10 H2       0.5182   7.8326  10.8876   H         1 RES1   0.0000
    11 N8       3.4435   6.7968  10.5197   N.3       1 RES1   0.0000
    12 H3       3.6959   6.8429   9.6673   H         1 RES1   0.0000
    13 H4       4.1330   6.4943  10.9933   H         1 RES1   0.0000
    14 O1      -0.1109   8.6721   8.9877   O.2       1 RES1   0.0000
    15 O2       2.3646  11.3987   4.9860   O.2       1 RES1   0.0000
    16 O3       4.7698   5.8897  12.9504   O.2       1 RES1   0.0000
    17 O4       4.7674   8.4529  17.7354   O.2       1 RES1   0.0000
    18 C1       5.9279   9.7606  11.6375   C.ar      1 RES1   0.0000
    19 H5       5.8498   9.3335  12.4608   H         1 RES1   0.0000
    20 C2       7.1255  10.3838  11.3404   C.ar      1 RES1   0.0000
    21 H6       7.8231  10.3958  11.9550   H         1 RES1   0.0000
    22 C3       7.2575  10.9963  10.0966   C.ar      1 RES1   0.0000
    23 H7       8.0487  11.4207   9.8558   H         1 RES1   0.0000
    24 C4       6.1797  10.9568   9.2293   C.ar      1 RES1   0.0000
    25 H8       6.2474  11.3572   8.3921   H         1 RES1   0.0000
    26 C5       5.0180  10.3353   9.5924   C.ar      1 RES1   0.0000
    27 C6       0.3456   4.7994   9.4934   C.3       1 RES1   0.0000
    28 H9      -0.1390   4.7957   8.6532   H         1 RES1   0.0000
    29 H10      0.6186   3.8879   9.6855   H         1 RES1   0.0000
    30 C7      -0.5690   5.2970  10.6037   C.3       1 RES1   0.0000
    31 H11     -0.9289   6.1659  10.3630   H         1 RES1   0.0000
    32 H12     -1.3121   4.6837  10.7135   H         1 RES1   0.0000
    33 C8       3.8270  10.2527   8.7837   C.2       1 RES1   0.0000
    34 C9       1.8592   9.7354   8.1910   C.2       1 RES1   0.0000
    35 C10      2.4778  10.4449   7.1497   C.2       1 RES1   0.0000
    36 C11      1.8434  10.7395   5.8953   C.2       1 RES1   0.0000
    37 C12      0.4648  10.1773   5.7122   C.ar      1 RES1   0.0000
    38 C13     -0.2031  10.3587   4.5254   C.ar      1 RES1   0.0000
    39 H13      0.1972  10.8574   3.8516   H         1 RES1   0.0000
    40 C14     -1.4549   9.8198   4.3093   C.ar      1 RES1   0.0000
    41 H14     -1.8999   9.9723   3.5067   H         1 RES1   0.0000
    42 C15     -2.0408   9.0439   5.3086   C.ar      1 RES1   0.0000
    43 H15     -2.8705   8.6466   5.1708   H         1 RES1   0.0000
    44 C16     -1.3818   8.8768   6.4925   C.ar      1 RES1   0.0000
    45 H16     -1.7874   8.3687   7.1578   H         1 RES1   0.0000
    46 C17     -0.1378   9.4283   6.7490   C.ar      1 RES1   0.0000
    47 C18      0.5014   9.2397   8.0799   C.2       1 RES1   0.0000
    48 C19      1.3858  11.5316  11.5385   C.ar      1 RES1   0.0000
    49 H17      1.2270  11.4548  10.6254   H         1 RES1   0.0000
    50 C20      0.8611  12.6237  12.2047   C.ar      1 RES1   0.0000
    51 H18      0.3369  13.2518  11.7622   H         1 RES1   0.0000
    52 C21      1.1411  12.7494  13.5506   C.ar      1 RES1   0.0000
    53 H19      0.8431  13.4939  14.0206   H         1 RES1   0.0000
    54 C22      1.8557  11.7813  14.1913   C.ar      1 RES1   0.0000
    55 H20      2.0189  11.8384  15.1050   H         1 RES1   0.0000
    56 C23      2.3373  10.7089  13.4516   C.ar      1 RES1   0.0000
    57 C24      3.0744   9.6330  14.0698   C.2       1 RES1   0.0000
    58 C25      4.1605   7.8009  14.2228   C.2       1 RES1   0.0000
    59 C26      4.1365   8.4403  15.4652   C.2       1 RES1   0.0000
    60 C27      4.7901   7.9069  16.6325   C.2       1 RES1   0.0000
    61 C28      5.5502   6.6118  16.4270   C.ar      1 RES1   0.0000
    62 C29      6.2878   6.0837  17.4713   C.ar      1 RES1   0.0000
    63 H21      6.3066   6.5215  18.2919   H         1 RES1   0.0000
    64 C30      7.0028   4.9000  17.2987   C.ar      1 RES1   0.0000
    65 H22      7.5082   4.5535  17.9986   H         1 RES1   0.0000
    66 C31      6.9603   4.2462  16.0894   C.ar      1 RES1   0.0000
    67 H23      7.4508   3.4654  15.9652   H         1 RES1   0.0000
    68 C32      6.1975   4.7438  15.0706   C.ar      1 RES1   0.0000
    69 H24      6.1452   4.2688  14.2724   H         1 RES1   0.0000
    70 C33      5.4974   5.9400  15.1951   C.ar      1 RES1   0.0000
    71 C34      4.7850   6.4915  14.0203   C.2       1 RES1   0.0000
    72 C35      1.4097   6.3118  11.7651   C.3       1 RES1   0.0000
    73 H25      1.9136   6.2353  12.6015   H         1 RES1   0.0000
    74 C36      2.3173   5.8520  10.6427   C.3       1 RES1   0.0000
    75 H26      2.6858   4.9799  10.8930   H         1 RES1   0.0000
    76 C37      1.5897   5.6868   9.3613   C.3       1 RES1   0.0000
    77 H27      2.1893   5.2950   8.7057   H         1 RES1   0.0000
    78 H28      1.3225   6.5592   9.0333   H         1 RES1   0.0000
    79 C38      0.1777   5.4066  11.8836   C.3       1 RES1   0.0000
    80 H29      0.4598   4.5221  12.1629   H         1 RES1   0.0000
    81 H30     -0.4118   5.7615  12.5665   H         1 RES1   0.0000
    82 N9      -4.4346   6.3088  14.0458   N.am      2 RES2   0.0000
    83 O5      -3.8381   4.2534  13.1770   O.2       2 RES2   0.0000
    84 C39     -4.6044   5.1407  13.4771   C.2       2 RES2   0.0000
    85 H31     -5.4898   4.9556  13.2633   H         2 RES2   0.0000
    86 C40     -3.0948   6.7878  14.3263   C.3       2 RES2   0.0000
    87 H32     -2.4535   6.1574  13.9907   H         2 RES2   0.0000
    88 H33     -2.9826   6.8854  15.2744   H         2 RES2   0.0000
    89 H34     -2.9631   7.6371  13.8988   H         2 RES2   0.0000
    90 C41     -5.5275   7.2531  14.1793   C.3       2 RES2   0.0000
    91 H35     -6.0310   7.2773  13.3623   H         2 RES2   0.0000
    92 H36     -5.1737   8.1269  14.3628   H         2 RES2   0.0000
    93 H37     -6.0990   6.9813  14.9003   H         2 RES2   0.0000
@<TRIPOS>BOND
     1     1     2    1
     2     2    18   ar
     3     3     1    1
     4     4    33    2
     5     5     1    1
     6     6     1    1
     7     7    57    2
     8     8     1    1
     9     9     8    1
    10    10     8    1
    11    11     1    1
    12    12    11    1
    13    13    11    1
    14    14    47    2
    15    15    36    2
    16    16    71    2
    17    17    60    2
    18    18    19    1
    19    20    18   ar
    20    21    20    1
    21    22    20   ar
    22    23    22    1
    23    24    22   ar
    24    25    24    1
    25    26     2   ar
    26    27    28    1
    27    29    27    1
    28    30    27    1
    29    31    30    1
    30    32    30    1
    31    33     3    1
    32    34     3    1
    33    35     4    1
    34    36    35    1
    35    37    36    1
    36    38    37   ar
    37    39    38    1
    38    40    38   ar
    39    41    40    1
    40    42    40   ar
    41    43    42    1
    42    44    42   ar
    43    45    44    1
    44    46    37   ar
    45    47    34    1
    46    48     5   ar
    47    49    48    1
    48    50    48   ar
    49    51    50    1
    50    52    50   ar
    51    53    52    1
    52    54    52   ar
    53    55    54    1
    54    56     5   ar
    55    57     6    1
    56    58     6    1
    57    59     7    1
    58    60    59    1
    59    61    60    1
    60    62    61   ar
    61    63    62    1
    62    64    62   ar
    63    65    64    1
    64    66    64   ar
    65    67    66    1
    66    68    66   ar
    67    69    68    1
    68    70    61   ar
    69    71    58    1
    70    72     8    1
    71    73    72    1
    72    74    11    1
    73    75    74    1
    74    76    27    1
    75    77    76    1
    76    78    76    1
    77    79    30    1
    78    80    79    1
    79    81    79    1
    80    24    26   ar
    81    26    33    1
    82    34    35    2
    83    44    46   ar
    84    46    47    1
    85    54    56   ar
    86    56    57    1
    87    58    59    2
    88    68    70   ar
    89    70    71    1
    90    72    74    1
    91    72    79    1
    92    74    76    1
    93    82    84   am
    94    83    84    2
    95    84    85    1
    96    86    82    1
    97    87    86    1
    98    88    86    1
    99    89    86    1
   100    90    82    1
   101    91    90    1
   102    92    90    1
   103    93    90    1
@<TRIPOS>SUBSTRUCTURE
     1 RES1        1 GROUP             0 ****  ****    0  
     2 RES2       82 GROUP             0 ****  ****    0  
@<TRIPOS>CRYSIN
   14.3170   17.9620   15.9910   90.0000  110.2300   90.0000    14     1
