@<TRIPOS>MOLECULE
PUFRAM
    93   103     2     0     0
SMALL
NO_CHARGES
****
Generated from the CSD

@<TRIPOS>ATOM
     1 Fe1      3.0745   8.6274  11.0787   Fe        1 RES1   0.0000
     2 N1       4.8648   9.4501  10.7646   N.ar      1 RES1   0.0000
     3 N2       2.7773   9.2873   9.1920   N.2       1 RES1   0.0000
     4 N3       3.7653  10.4278   7.4517   N.2       1 RES1   0.0000
     5 N4       2.3063  10.2658  11.8712   N.ar      1 RES1   0.0000
     6 N5       3.5658   8.2626  13.0079   N.2       1 RES1   0.0000
     7 N6       3.6410   9.2479  15.0875   N.2       1 RES1   0.0000
     8 N7       1.3289   7.6821  11.3679   N.3       1 RES1   0.0000
     9 H1       0.9112   8.0146  12.1045   H         1 RES1   0.0000
    10 H2       0.7851   7.8020  10.6487   H         1 RES1   0.0000
    11 N8       3.6542   6.8301  10.3640   N.3       1 RES1   0.0000
    12 H3       3.9106   6.9241   9.4959   H         1 RES1   0.0000
    13 H4       4.3747   6.5401  10.8377   H         1 RES1   0.0000
    14 O1      -0.1087   8.3725   8.9670   O.2       1 RES1   0.0000
    15 O2       2.3659  11.0352   4.9390   O.2       1 RES1   0.0000
    16 O3       4.8206   5.5298  12.5876   O.2       1 RES1   0.0000
    17 O4       4.9809   8.0643  17.3829   O.2       1 RES1   0.0000
    18 C1       5.9111   9.5059  11.6171   C.ar      1 RES1   0.0000
    19 H5       5.8157   9.1084  12.4740   H         1 RES1   0.0000
    20 C2       7.1114  10.1087  11.3084   C.ar      1 RES1   0.0000
    21 H6       7.8174  10.1241  11.9430   H         1 RES1   0.0000
    22 C3       7.2771  10.6976  10.0558   C.ar      1 RES1   0.0000
    23 H7       8.0929  11.1255   9.8198   H         1 RES1   0.0000
    24 C4       6.2190  10.6399   9.1649   C.ar      1 RES1   0.0000
    25 H8       6.3017  11.0202   8.2983   H         1 RES1   0.0000
    26 C5       5.0396  10.0248   9.5457   C.ar      1 RES1   0.0000
    27 C6       0.6636   4.7057   9.2134   C.3       1 RES1   0.0000
    28 H9       0.9668   3.7913   9.4427   H         1 RES1   0.0000
    29 H10      0.2022   4.6655   8.3387   H         1 RES1   0.0000
    30 C7      -0.3127   5.2055  10.2852   C.3       1 RES1   0.0000
    31 H11     -0.6929   6.0747  10.0048   H         1 RES1   0.0000
    32 H12     -1.0585   4.5599  10.3767   H         1 RES1   0.0000
    33 C8       3.8700   9.9263   8.6959   C.2       1 RES1   0.0000
    34 C9       1.8899   9.3731   8.1461   C.2       1 RES1   0.0000
    35 C10      2.5030  10.0685   7.1038   C.2       1 RES1   0.0000
    36 C11      1.8510  10.3708   5.8277   C.2       1 RES1   0.0000
    37 C12      0.4983   9.7715   5.6674   C.ar      1 RES1   0.0000
    38 C13     -0.1721   9.9392   4.4545   C.ar      1 RES1   0.0000
    39 H13      0.2173  10.4690   3.7696   H         1 RES1   0.0000
    40 C14     -1.4007   9.3399   4.2458   C.ar      1 RES1   0.0000
    41 H14     -1.8584   9.4715   3.4237   H         1 RES1   0.0000
    42 C15     -1.9666   8.5448   5.2323   C.ar      1 RES1   0.0000
    43 H15     -2.7942   8.1064   5.0759   H         1 RES1   0.0000
    44 C16     -1.3141   8.3945   6.4554   C.ar      1 RES1   0.0000
    45 H16     -1.7049   7.8566   7.1341   H         1 RES1   0.0000
    46 C17     -0.0974   9.0253   6.6892   C.ar      1 RES1   0.0000
    47 C18      0.5308   8.8768   8.0432   C.2       1 RES1   0.0000
    48 C19      1.5542  11.2026  11.2555   C.ar      1 RES1   0.0000
    49 H17      1.3935  11.1124  10.3234   H         1 RES1   0.0000
    50 C20      1.0085  12.2825  11.9097   C.ar      1 RES1   0.0000
    51 H18      0.4605  12.9001  11.4414   H         1 RES1   0.0000
    52 C21      1.2659  12.4590  13.2666   C.ar      1 RES1   0.0000
    53 H19      0.9288  13.2160  13.7306   H         1 RES1   0.0000
    54 C22      2.0245  11.5101  13.9194   C.ar      1 RES1   0.0000
    55 H20      2.2168  11.6031  14.8453   H         1 RES1   0.0000
    56 C23      2.5045  10.4180  13.2107   C.ar      1 RES1   0.0000
    57 C24      3.2300   9.3189  13.8017   C.2       1 RES1   0.0000
    58 C25      4.2755   7.4509  13.8635   C.2       1 RES1   0.0000
    59 C26      4.3073   8.0765  15.1205   C.2       1 RES1   0.0000
    60 C27      4.9949   7.5243  16.2819   C.2       1 RES1   0.0000
    61 C28      5.7634   6.2662  16.0276   C.ar      1 RES1   0.0000
    62 C29      6.5820   5.7402  17.0346   C.ar      1 RES1   0.0000
    63 H21      6.6358   6.1745  17.8780   H         1 RES1   0.0000
    64 C30      7.3067   4.5974  16.8067   C.ar      1 RES1   0.0000
    65 H22      7.8713   4.2538  17.4901   H         1 RES1   0.0000
    66 C31      7.2247   3.9439  15.5983   C.ar      1 RES1   0.0000
    67 H23      7.7316   3.1543  15.4518   H         1 RES1   0.0000
    68 C32      6.4027   4.4384  14.5927   C.ar      1 RES1   0.0000
    69 H24      6.3330   3.9730  13.7676   H         1 RES1   0.0000
    70 C33      5.6843   5.6074  14.7912   C.ar      1 RES1   0.0000
    71 C34      4.8842   6.1666  13.6342   C.2       1 RES1   0.0000
    72 C35      1.6201   6.2400  11.5539   C.3       1 RES1   0.0000
    73 H25      2.1085   6.1427  12.4210   H         1 RES1   0.0000
    74 C36      2.5746   5.8066  10.4439   C.3       1 RES1   0.0000
    75 H26      2.9858   4.9321  10.7034   H         1 RES1   0.0000
    76 C37      1.8747   5.6301   9.1076   C.3       1 RES1   0.0000
    77 H27      2.5152   5.2565   8.4510   H         1 RES1   0.0000
    78 H28      1.5813   6.5159   8.7747   H         1 RES1   0.0000
    79 C38      0.3840   5.3663  11.6303   C.3       1 RES1   0.0000
    80 H29     -0.2511   5.7638  12.2765   H         1 RES1   0.0000
    81 H30      0.6416   4.4726  11.9688   H         1 RES1   0.0000
    82 N9      -4.2747   6.1526  13.5621   N.am      2 RES2   0.0000
    83 O5      -3.4977   4.1186  12.7829   O.2       2 RES2   0.0000
    84 C39     -4.3366   4.9399  13.0593   C.2       2 RES2   0.0000
    85 H31     -5.2239   4.6520  12.8778   H         2 RES2   0.0000
    86 C40     -2.9666   6.6558  14.0355   C.3       2 RES2   0.0000
    87 H32     -2.8908   6.5082  15.0009   H         2 RES2   0.0000
    88 H33     -2.8969   7.6140  13.8441   H         2 RES2   0.0000
    89 H34     -2.2469   6.1768  13.5738   H         2 RES2   0.0000
    90 C41     -5.4162   6.9791  13.7944   C.3       2 RES2   0.0000
    91 H35     -6.1828   6.6226  13.2984   H         2 RES2   0.0000
    92 H36     -5.2269   7.8912  13.4927   H         2 RES2   0.0000
    93 H37     -5.6231   6.9875  14.7526   H         2 RES2   0.0000
@<TRIPOS>BOND
     1     1     2    1
     2     2    18   ar
     3     3     1    1
     4     4    33    2
     5     5     1    1
     6     6     1    1
     7     7    57    2
     8     8     1    1
     9     9     8    1
    10    10     8    1
    11    11     1    1
    12    12    11    1
    13    13    11    1
    14    14    47    2
    15    15    36    2
    16    16    71    2
    17    17    60    2
    18    18    19    1
    19    20    18   ar
    20    21    20    1
    21    22    20   ar
    22    23    22    1
    23    24    22   ar
    24    25    24    1
    25    26     2   ar
    26    27    28    1
    27    29    27    1
    28    30    27    1
    29    31    30    1
    30    32    30    1
    31    33     3    1
    32    34     3    1
    33    35     4    1
    34    36    35    1
    35    37    36    1
    36    38    37   ar
    37    39    38    1
    38    40    38   ar
    39    41    40    1
    40    42    40   ar
    41    43    42    1
    42    44    42   ar
    43    45    44    1
    44    46    37   ar
    45    47    34    1
    46    48     5   ar
    47    49    48    1
    48    50    48   ar
    49    51    50    1
    50    52    50   ar
    51    53    52    1
    52    54    52   ar
    53    55    54    1
    54    56     5   ar
    55    57     6    1
    56    58     6    1
    57    59     7    1
    58    60    59    1
    59    61    60    1
    60    62    61   ar
    61    63    62    1
    62    64    62   ar
    63    65    64    1
    64    66    64   ar
    65    67    66    1
    66    68    66   ar
    67    69    68    1
    68    70    61   ar
    69    71    58    1
    70    72     8    1
    71    73    72    1
    72    74    11    1
    73    75    74    1
    74    76    27    1
    75    77    76    1
    76    78    76    1
    77    79    30    1
    78    80    79    1
    79    81    79    1
    80    24    26   ar
    81    26    33    1
    82    34    35    2
    83    44    46   ar
    84    46    47    1
    85    54    56   ar
    86    56    57    1
    87    58    59    2
    88    68    70   ar
    89    70    71    1
    90    72    74    1
    91    72    79    1
    92    74    76    1
    93    82    84   am
    94    83    84    2
    95    84    85    1
    96    86    82    1
    97    87    86    1
    98    88    86    1
    99    89    86    1
   100    90    82    1
   101    91    90    1
   102    92    90    1
   103    93    90    1
@<TRIPOS>SUBSTRUCTURE
     1 RES1        1 GROUP             0 ****  ****    0  
     2 RES2       82 GROUP             0 ****  ****    0  
@<TRIPOS>CRYSIN
   14.2180   17.4740   15.6270   90.0000  109.8180   90.0000    14     1
