@<TRIPOS>MOLECULE
PUFRIU
    85    95     2     0     0
SMALL
NO_CHARGES
****
Generated from the CSD

@<TRIPOS>ATOM
     1 N1       0.1393   1.5535  -3.3493   N.ar      1 RES1   0.0000
     2 C1       1.4064   1.9574  -3.6209   C.ar      1 RES1   0.0000
     3 Fe1     -0.0000  -0.0000  -2.0579   Fe        1 RES1   0.0000
     4 N2       1.9711   0.0381  -2.2801   N.2       1 RES1   0.0000
     5 N3      -0.0363  -1.2293  -0.6291   N.2       1 RES1   0.0000
     6 H1      -0.0627  -2.0975  -0.7705   H         1 RES1   0.0000
     7 C2       3.1240  -0.5700  -1.8740   C.2       1 RES1   0.0000
     8 N4       3.7413   1.2273  -3.1148   N.2       1 RES1   0.0000
     9 C3       4.1989   0.1641  -2.3829   C.2       1 RES1   0.0000
    10 C4       5.6073  -0.1655  -2.1488   C.2       1 RES1   0.0000
    11 O1       2.4082  -2.5904  -0.8340   O.2       1 RES1   0.0000
    12 O2       6.5420   0.5157  -2.5396   O.2       1 RES1   0.0000
    13 C5       5.8298  -1.4102  -1.3407   C.ar      1 RES1   0.0000
    14 C6       2.4186   1.0935  -3.0203   C.2       1 RES1   0.0000
    15 C7       4.7501  -2.1576  -0.8251   C.ar      1 RES1   0.0000
    16 C8       3.3094  -1.8250  -1.1436   C.2       1 RES1   0.0000
    17 C9       4.9983  -3.2713  -0.0308   C.ar      1 RES1   0.0000
    18 H2       4.2721  -3.7566   0.3428   H         1 RES1   0.0000
    19 C10      7.1322  -1.8178  -1.0687   C.ar      1 RES1   0.0000
    20 H3       7.8659  -1.3233  -1.4146   H         1 RES1   0.0000
    21 C11      6.3033  -3.6784   0.2189   C.ar      1 RES1   0.0000
    22 H4       6.4696  -4.4566   0.7372   H         1 RES1   0.0000
    23 C12      7.3596  -2.9428  -0.2951   C.ar      1 RES1   0.0000
    24 H5       8.2525  -3.2140  -0.1126   H         1 RES1   0.0000
    25 C13     -0.6468   3.4519  -4.5813   C.ar      1 RES1   0.0000
    26 H6      -1.3819   3.9668  -4.8916   H         1 RES1   0.0000
    27 C14     -0.8635   2.3185  -3.8248   C.ar      1 RES1   0.0000
    28 H7      -1.7586   2.0664  -3.6308   H         1 RES1   0.0000
    29 C15      1.6912   3.0665  -4.3883   C.ar      1 RES1   0.0000
    30 H8       2.5926   3.3012  -4.5748   H         1 RES1   0.0000
    31 C16      0.6536   3.8350  -4.8846   C.ar      1 RES1   0.0000
    32 H9       0.8252   4.6027  -5.4168   H         1 RES1   0.0000
    33 C17     -0.0208  -0.7324   0.5872   C.2       1 RES1   0.0000
    34 C18     -0.0196  -1.4289   1.8293   C.2       1 RES1   0.0000
    35 H10     -0.0309  -2.3787   1.8501   H         1 RES1   0.0000
    36 C19     -0.0024  -0.7127   2.9888   C.2       1 RES1   0.0000
    37 H11      0.0068  -1.1755   3.8184   H         1 RES1   0.0000
    38 N3A      0.0363   1.2293  -0.6291   N.2       1 RES1   0.0000
    39 H1A      0.0627   2.0975  -0.7705   H         1 RES1   0.0000
    40 C17A     0.0208   0.7324   0.5872   C.2       1 RES1   0.0000
    41 C18A     0.0196   1.4289   1.8293   C.2       1 RES1   0.0000
    42 H10A     0.0309   2.3787   1.8501   H         1 RES1   0.0000
    43 C19A     0.0024   0.7127   2.9888   C.2       1 RES1   0.0000
    44 H11A    -0.0068   1.1755   3.8184   H         1 RES1   0.0000
    45 N1A     -0.1393  -1.5535  -3.3493   N.ar      1 RES1   0.0000
    46 C1A     -1.4064  -1.9574  -3.6209   C.ar      1 RES1   0.0000
    47 N2A     -1.9711  -0.0381  -2.2801   N.2       1 RES1   0.0000
    48 C2A     -3.1240   0.5700  -1.8740   C.2       1 RES1   0.0000
    49 N4A     -3.7413  -1.2273  -3.1148   N.2       1 RES1   0.0000
    50 C3A     -4.1989  -0.1641  -2.3829   C.2       1 RES1   0.0000
    51 C4A     -5.6073   0.1655  -2.1488   C.2       1 RES1   0.0000
    52 O1A     -2.4082   2.5904  -0.8340   O.2       1 RES1   0.0000
    53 O2A     -6.5420  -0.5157  -2.5396   O.2       1 RES1   0.0000
    54 C5A     -5.8298   1.4102  -1.3407   C.ar      1 RES1   0.0000
    55 C6A     -2.4186  -1.0935  -3.0203   C.2       1 RES1   0.0000
    56 C7A     -4.7501   2.1576  -0.8251   C.ar      1 RES1   0.0000
    57 C8A     -3.3094   1.8250  -1.1436   C.2       1 RES1   0.0000
    58 C9A     -4.9983   3.2713  -0.0308   C.ar      1 RES1   0.0000
    59 H2A     -4.2721   3.7566   0.3428   H         1 RES1   0.0000
    60 C10A    -7.1322   1.8178  -1.0687   C.ar      1 RES1   0.0000
    61 H3A     -7.8659   1.3233  -1.4146   H         1 RES1   0.0000
    62 C11A    -6.3033   3.6784   0.2189   C.ar      1 RES1   0.0000
    63 H4A     -6.4696   4.4566   0.7372   H         1 RES1   0.0000
    64 C12A    -7.3596   2.9428  -0.2951   C.ar      1 RES1   0.0000
    65 H5A     -8.2525   3.2140  -0.1126   H         1 RES1   0.0000
    66 C13A     0.6468  -3.4519  -4.5813   C.ar      1 RES1   0.0000
    67 H6A      1.3819  -3.9668  -4.8916   H         1 RES1   0.0000
    68 C14A     0.8635  -2.3185  -3.8248   C.ar      1 RES1   0.0000
    69 H7A      1.7586  -2.0664  -3.6308   H         1 RES1   0.0000
    70 C15A    -1.6912  -3.0665  -4.3883   C.ar      1 RES1   0.0000
    71 H8A     -2.5926  -3.3012  -4.5748   H         1 RES1   0.0000
    72 C16A    -0.6536  -3.8350  -4.8846   C.ar      1 RES1   0.0000
    73 H9A     -0.8252  -4.6027  -5.4168   H         1 RES1   0.0000
    74 N5       4.2622  -1.0355  -5.8195   N.am      2 RES2   0.0000
    75 C20      2.9327  -0.8084  -6.3619   C.3       2 RES2   0.0000
    76 H12      2.4906  -0.0947  -5.8563   H         2 RES2   0.0000
    77 H13      2.4061  -1.6323  -6.2921   H         2 RES2   0.0000
    78 H14      3.0041  -0.5456  -7.3034   H         2 RES2   0.0000
    79 C21      5.2330   0.0341  -6.0019   C.3       2 RES2   0.0000
    80 H15      5.4394   0.1288  -6.9543   H         2 RES2   0.0000
    81 H16      6.0518  -0.1811  -5.5087   H         2 RES2   0.0000
    82 H17      4.8591   0.8746  -5.6628   H         2 RES2   0.0000
    83 O3       3.7981  -3.0957  -4.9642   O.2       2 RES2   0.0000
    84 C22      4.5695  -2.1688  -5.1813   C.2       2 RES2   0.0000
    85 H18      5.4618  -2.2637  -4.8691   H         2 RES2   0.0000
@<TRIPOS>BOND
     1     1     2   ar
     2     2    14    1
     3     3     1    1
     4     4     3    1
     5     5     3    1
     6     6     5    1
     7     7     4    1
     8     8     9    1
     9     9     7    2
    10    10     9    1
    11    11    16    2
    12    12    10    2
    13    13    10    1
    14    14     4    1
    15    15    13   ar
    16    16     7    1
    17    17    15   ar
    18    18    17    1
    19    19    13   ar
    20    20    19    1
    21    21    17   ar
    22    22    21    1
    23    23    19   ar
    24    24    23    1
    25    25    26    1
    26    27     1   ar
    27    28    27    1
    28    29     2   ar
    29    30    29    1
    30    31    25   ar
    31    32    31    1
    32    33     5    2
    33    34    33    1
    34    35    34    1
    35    36    34    2
    36    37    36    1
    37    38     3    1
    38    39    38    1
    39    40    33    1
    40    41    40    1
    41    42    41    1
    42    43    36    1
    43    44    43    1
    44    45     3    1
    45    46    45   ar
    46    47     3    1
    47    48    47    1
    48    49    50    1
    49    50    48    2
    50    51    50    1
    51    52    57    2
    52    53    51    2
    53    54    51    1
    54    55    46    1
    55    56    54   ar
    56    57    48    1
    57    58    56   ar
    58    59    58    1
    59    60    54   ar
    60    61    60    1
    61    62    58   ar
    62    63    62    1
    63    64    60   ar
    64    65    64    1
    65    66    67    1
    66    68    45   ar
    67    69    68    1
    68    70    46   ar
    69    71    70    1
    70    72    66   ar
    71    73    72    1
    72     8    14    2
    73    15    16    1
    74    21    23   ar
    75    25    27   ar
    76    29    31   ar
    77    38    40    2
    78    41    43    2
    79    47    55    1
    80    49    55    2
    81    56    57    1
    82    62    64   ar
    83    66    68   ar
    84    70    72   ar
    85    74    75    1
    86    75    76    1
    87    77    75    1
    88    78    75    1
    89    79    74    1
    90    80    79    1
    91    81    79    1
    92    82    79    1
    93    83    84    2
    94    84    74   am
    95    85    84    1
@<TRIPOS>SUBSTRUCTURE
     1 RES1        1 GROUP             0 ****  ****    0  
     2 RES2       74 GROUP             0 ****  ****    0  
@<TRIPOS>CRYSIN
   17.3740   28.8910   16.2170   90.0000   90.0000   90.0000    43     1
