@<TRIPOS>MOLECULE
PUJMAL
    90    99     2     0     0
SMALL
NO_CHARGES
****
Generated from the CSD

@<TRIPOS>ATOM
     1 I1       2.3298   1.4810  18.6839   I         1 RES1   0.0000
     2 Fe1      2.1139   2.7297  16.2428   Fe        1 RES1   0.0000
     3 P1       0.0535   3.5219  16.5395   P.3       1 RES1   0.0000
     4 P2       3.6270   4.2159  16.8716   P.3       1 RES1   0.0000
     5 N1       1.1904   1.1951  15.4933   N.ar      1 RES1   0.0000
     6 N2       3.6818   1.6873  15.7581   N.ar      1 RES1   0.0000
     7 C1       2.1485   3.4653  14.2738   C.3       1 RES1   0.0000
     8 H1       1.2298   3.5622  13.9448   H         1 RES1   0.0000
     9 H2       2.6373   2.8393  13.7002   H         1 RES1   0.0000
    10 H3       2.5937   4.3390  14.2586   H         1 RES1   0.0000
    11 C2      -0.9782   2.0303  16.0769   C.3       1 RES1   0.0000
    12 H4      -1.3922   1.6473  16.8917   H         1 RES1   0.0000
    13 H5      -1.7043   2.3041  15.4629   H         1 RES1   0.0000
    14 C3       5.1544   3.1593  16.9170   C.3       1 RES1   0.0000
    15 H6       5.9372   3.6868  16.6184   H         1 RES1   0.0000
    16 H7       5.3226   2.8501  17.8413   H         1 RES1   0.0000
    17 C4      -0.1243   0.9998  15.4174   C.ar      1 RES1   0.0000
    18 C5      -0.6243  -0.1246  14.7528   C.ar      1 RES1   0.0000
    19 H8      -1.5644  -0.2492  14.7073   H         1 RES1   0.0000
    20 C6       0.1946  -1.0551  14.1658   C.ar      1 RES1   0.0000
    21 H9      -0.1714  -1.8073  13.7171   H         1 RES1   0.0000
    22 C7       1.5901  -0.8721  14.2383   C.ar      1 RES1   0.0000
    23 C8       2.0342   0.2630  14.9232   C.ar      1 RES1   0.0000
    24 C9       3.4122   0.5368  15.0649   C.ar      1 RES1   0.0000
    25 C10      2.5841  -1.7304  13.6783   C.ar      1 RES1   0.0000
    26 H10      2.3156  -2.4994  13.1891   H         1 RES1   0.0000
    27 C11      3.9123  -1.4643  13.8352   C.ar      1 RES1   0.0000
    28 H11      4.5485  -2.0549  13.4489   H         1 RES1   0.0000
    29 C12      4.3780  -0.3245  14.5622   C.ar      1 RES1   0.0000
    30 C13      5.7291   0.0354  14.8085   C.ar      1 RES1   0.0000
    31 H12      6.4398  -0.4983  14.4711   H         1 RES1   0.0000
    32 C14      5.9894   1.1567  15.5338   C.ar      1 RES1   0.0000
    33 H13      6.8931   1.3858  15.7177   H         1 RES1   0.0000
    34 C15      4.9629   1.9872  16.0179   C.ar      1 RES1   0.0000
    35 C16     -0.5754   4.8635  15.4562   C.ar      1 RES1   0.0000
    36 C17     -1.1707   4.6266  14.2265   C.ar      1 RES1   0.0000
    37 H14     -1.3077   3.7299  13.9465   H         1 RES1   0.0000
    38 C18     -1.5721   5.6571  13.3949   C.ar      1 RES1   0.0000
    39 H15     -1.9922   5.4710  12.5633   H         1 RES1   0.0000
    40 C19     -1.3510   6.9707  13.7947   C.ar      1 RES1   0.0000
    41 H16     -1.6086   7.6874  13.2262   H         1 RES1   0.0000
    42 C20     -0.7643   7.2368  15.0025   C.ar      1 RES1   0.0000
    43 H17     -0.6150   8.1350  15.2707   H         1 RES1   0.0000
    44 C21     -0.3896   6.2016  15.8256   C.ar      1 RES1   0.0000
    45 H18      0.0039   6.4000  16.6673   H         1 RES1   0.0000
    46 C22     -0.8091   4.0375  18.1095   C.ar      1 RES1   0.0000
    47 C23     -2.1760   4.3282  18.0623   C.ar      1 RES1   0.0000
    48 H19     -2.6380   4.2652  17.2341   H         1 RES1   0.0000
    49 C24     -2.8555   4.6974  19.1773   C.ar      1 RES1   0.0000
    50 H20     -3.7864   4.8804  19.1233   H         1 RES1   0.0000
    51 C25     -2.1994   4.8143  20.4019   C.ar      1 RES1   0.0000
    52 H21     -2.6688   5.0865  21.1829   H         1 RES1   0.0000
    53 C26     -0.8344   4.5205  20.4559   C.ar      1 RES1   0.0000
    54 H22     -0.3738   4.5820  21.2841   H         1 RES1   0.0000
    55 C27     -0.1508   4.1406  19.3224   C.ar      1 RES1   0.0000
    56 H23      0.7775   3.9498  19.3730   H         1 RES1   0.0000
    57 C28      4.0633   5.6648  15.8374   C.ar      1 RES1   0.0000
    58 C29      3.0723   6.4646  15.3381   C.ar      1 RES1   0.0000
    59 H24      2.1683   6.2001  15.4663   H         1 RES1   0.0000
    60 C30      3.3233   7.6274  14.6651   C.ar      1 RES1   0.0000
    61 H25      2.6001   8.1627  14.3581   H         1 RES1   0.0000
    62 C31      4.6033   8.0181  14.4374   C.ar      1 RES1   0.0000
    63 H26      4.7887   8.8287  13.9752   H         1 RES1   0.0000
    64 C32      5.6178   7.2229  14.8844   C.ar      1 RES1   0.0000
    65 H27      6.5200   7.4690  14.7174   H         1 RES1   0.0000
    66 C33      5.3406   6.0524  15.5844   C.ar      1 RES1   0.0000
    67 H28      6.0595   5.5126  15.8914   H         1 RES1   0.0000
    68 C34      3.6472   5.0911  18.4891   C.ar      1 RES1   0.0000
    69 C35      2.5668   5.9263  18.7640   C.ar      1 RES1   0.0000
    70 H29      1.8421   5.9694  18.1500   H         1 RES1   0.0000
    71 C36      2.5298   6.6892  19.9026   C.ar      1 RES1   0.0000
    72 H30      1.7716   7.2306  20.0882   H         1 RES1   0.0000
    73 C37      3.5887   6.6723  20.7713   C.ar      1 RES1   0.0000
    74 H31      3.5801   7.2291  21.5405   H         1 RES1   0.0000
    75 C38      4.6579   5.8509  20.5335   C.ar      1 RES1   0.0000
    76 H32      5.3749   5.8217  21.1559   H         1 RES1   0.0000
    77 C39      4.7019   5.0634  19.3983   C.ar      1 RES1   0.0000
    78 H33      5.4527   4.5036  19.2380   H         1 RES1   0.0000
    79 C40     -4.9857   5.0450  14.6162   C.ar      2 RES2   0.0000
    80 H34     -4.9072   5.7340  13.9651   H         2 RES2   0.0000
    81 C41     -4.6480   3.7530  14.2889   C.ar      2 RES2   0.0000
    82 H35     -4.3209   3.5545  13.4185   H         2 RES2   0.0000
    83 C42     -4.7789   2.7440  15.2133   C.ar      2 RES2   0.0000
    84 H36     -4.5524   1.8519  14.9822   H         2 RES2   0.0000
    85 C43     -5.2410   3.0331  16.4784   C.ar      2 RES2   0.0000
    86 H37     -5.3320   2.3410  17.1228   H         2 RES2   0.0000
    87 C44     -5.5748   4.3405  16.8124   C.ar      2 RES2   0.0000
    88 H38     -5.8989   4.5482  17.6811   H         2 RES2   0.0000
    89 C45     -5.4276   5.3418  15.8577   C.ar      2 RES2   0.0000
    90 H39     -5.6391   6.2401  16.0803   H         2 RES2   0.0000
@<TRIPOS>BOND
     1     1     2    1
     2     2     3    1
     3     3    11    1
     4     4     2    1
     5     5     2    1
     6     6     2    1
     7     7     2    1
     8     8     7    1
     9     9     7    1
    10    10     7    1
    11    11    12    1
    12    13    11    1
    13    14     4    1
    14    15    14    1
    15    16    14    1
    16    17     5   ar
    17    18    17   ar
    18    19    18    1
    19    20    18   ar
    20    21    20    1
    21    22    20   ar
    22    23     5   ar
    23    24     6   ar
    24    25    22   ar
    25    26    25    1
    26    27    25   ar
    27    28    27    1
    28    29    24   ar
    29    30    29   ar
    30    31    30    1
    31    32    30   ar
    32    33    32    1
    33    34     6   ar
    34    35     3    1
    35    36    35   ar
    36    37    36    1
    37    38    36   ar
    38    39    38    1
    39    40    38   ar
    40    41    40    1
    41    42    40   ar
    42    43    42    1
    43    44    35   ar
    44    45    44    1
    45    46     3    1
    46    47    46   ar
    47    48    47    1
    48    49    47   ar
    49    50    49    1
    50    51    49   ar
    51    52    51    1
    52    53    51   ar
    53    54    53    1
    54    55    46   ar
    55    56    55    1
    56    57     4    1
    57    58    57   ar
    58    59    58    1
    59    60    58   ar
    60    61    60    1
    61    62    60   ar
    62    63    62    1
    63    64    62   ar
    64    65    64    1
    65    66    57   ar
    66    67    66    1
    67    68     4    1
    68    69    68   ar
    69    70    69    1
    70    71    69   ar
    71    72    71    1
    72    73    71   ar
    73    74    73    1
    74    75    73   ar
    75    76    75    1
    76    77    68   ar
    77    78    77    1
    78    11    17    1
    79    14    34    1
    80    22    23   ar
    81    23    24   ar
    82    27    29   ar
    83    32    34   ar
    84    42    44   ar
    85    53    55   ar
    86    64    66   ar
    87    75    77   ar
    88    79    80    1
    89    81    79   ar
    90    82    81    1
    91    83    81   ar
    92    84    83    1
    93    85    83   ar
    94    86    85    1
    95    87    85   ar
    96    88    87    1
    97    89    79   ar
    98    90    89    1
    99    87    89   ar
@<TRIPOS>SUBSTRUCTURE
     1 RES1        1 GROUP             0 ****  ****    0  
     2 RES2       79 GROUP             0 ****  ****    0  
@<TRIPOS>CRYSIN
   14.3760   15.3810   16.9040   90.0000   93.7370   90.0000   231     1
