@<TRIPOS>MOLECULE
PUKZIH
    75    80     2     0     0
SMALL
USER_CHARGES
****
Generated from the CSD

@<TRIPOS>ATOM
     1 C1       2.7527   4.5627   1.7052   C.3       1 RES1   0.0000
     2 H1       2.3136   4.5751   0.8193   H         1 RES1   0.0000
     3 H2       2.7936   5.4937   2.0397   H         1 RES1   0.0000
     4 C2       1.9262   3.7163   2.6669   C.3       1 RES1   0.0000
     5 H3       1.1139   4.2151   2.9348   H         1 RES1   0.0000
     6 H4       1.6410   2.8828   2.2148   H         1 RES1   0.0000
     7 C3       4.2847   5.2782  -0.5292   C.3       1 RES1   0.0000
     8 H5       3.8080   4.7439  -1.1982   H         1 RES1   0.0000
     9 H6       5.0217   5.7581  -0.9604   H         1 RES1   0.0000
    10 H7       3.6669   5.9220  -0.1254   H         1 RES1   0.0000
    11 C4       4.8335   4.3715   0.5383   C.2       1 RES1   0.0000
    12 C5       6.1991   3.8592   0.3802   C.ar      1 RES1   0.0000
    13 C6       6.9670   3.2774   1.4308   C.ar      1 RES1   0.0000
    14 C7       8.2814   2.8505   1.1838   C.ar      1 RES1   0.0000
    15 H8       8.7871   2.4605   1.8868   H         1 RES1   0.0000
    16 C8       8.8503   2.9900  -0.0693   C.ar      1 RES1   0.0000
    17 C9       8.1114   3.5242  -1.1185   C.ar      1 RES1   0.0000
    18 H9       8.4910   3.5941  -1.9874   H         1 RES1   0.0000
    19 C10      6.8378   3.9425  -0.8885   C.ar      1 RES1   0.0000
    20 H10      6.3478   4.3103  -1.6150   H         1 RES1   0.0000
    21 C11     10.8140   2.7269  -1.4190   C.3       1 RES1   0.0000
    22 H11     10.4301   2.0856  -2.0528   H         1 RES1   0.0000
    23 H12     11.7694   2.5439  -1.3080   H         1 RES1   0.0000
    24 H13     10.6932   3.6364  -1.7627   H         1 RES1   0.0000
    25 C12      0.6228   2.9741   5.0176   C.3       1 RES1   0.0000
    26 H14      0.2811   3.8783   5.1770   H         1 RES1   0.0000
    27 H15      0.3369   2.3833   5.7454   H         1 RES1   0.0000
    28 H16      0.2703   2.6378   4.1669   H         1 RES1   0.0000
    29 C13      2.1333   3.0078   4.9588   C.2       1 RES1   0.0000
    30 C14      2.8820   2.6012   6.1452   C.ar      1 RES1   0.0000
    31 C15      4.2942   2.3367   6.1505   C.ar      1 RES1   0.0000
    32 C16      4.9205   1.9179   7.3317   C.ar      1 RES1   0.0000
    33 H17      5.8571   1.7561   7.3291   H         1 RES1   0.0000
    34 C17      4.2122   1.7336   8.4972   C.ar      1 RES1   0.0000
    35 C18      2.8354   1.9943   8.5234   C.ar      1 RES1   0.0000
    36 H18      2.3417   1.8913   9.3283   H         1 RES1   0.0000
    37 C19      2.2123   2.3993   7.3787   C.ar      1 RES1   0.0000
    38 H19      1.2760   2.5558   7.4101   H         1 RES1   0.0000
    39 C20      6.1808   1.2071   9.7163   C.3       1 RES1   0.0000
    40 H20      6.4766   0.4862   9.1231   H         1 RES1   0.0000
    41 H21      6.4627   1.0118  10.6336   H         1 RES1   0.0000
    42 H22      6.5791   2.0544   9.4250   H         1 RES1   0.0000
    43 C21      6.2424   5.8131   4.0441   C.2       1 RES1   0.0000
    44 H23      7.0467   5.4084   3.7410   H         1 RES1   0.0000
    45 C22      4.8450   7.2996   4.8412   C.2       1 RES1   0.0000
    46 H24      4.4793   8.1022   5.1940   H         1 RES1   0.0000
    47 C23      4.1876   6.1444   4.5550   C.2       1 RES1   0.0000
    48 H25      3.2564   6.0024   4.6805   H         1 RES1   0.0000
    49 C24      4.4368   0.1360   3.3307   C.2       1 RES1   0.0000
    50 H26      4.7340   0.1171   4.2323   H         1 RES1   0.0000
    51 C25      3.7155  -0.5393   1.4047   C.2       1 RES1   0.0000
    52 H27      3.4143  -1.0918   0.6938   H         1 RES1   0.0000
    53 C26      3.8140   0.8159   1.4020   C.2       1 RES1   0.0000
    54 H28      3.5994   1.3831   0.6703   H         1 RES1   0.0000
    55 Fe1      4.7636   3.2000   3.3813   Fe        1 RES1   1.0000
    56 N1       4.1072   4.0387   1.5680   N.2       1 RES1   0.0000
    57 N2       2.7220   3.3840   3.8638   N.2       1 RES1   0.0000
    58 N3       5.0652   5.2171   4.0598   N.2       1 RES1   0.0000
    59 N4       6.1560   7.0534   4.5080   N.pl3     1 RES1   0.0000
    60 H29      6.8226   7.6218   4.5877   H         1 RES1   0.0000
    61 N5       4.2758   1.2363   2.6277   N.2       1 RES1   0.0000
    62 N6       4.1358  -0.9411   2.6277   N.pl3     1 RES1   0.0000
    63 H30      4.1964  -1.7748   2.9047   H         1 RES1   0.0000
    64 O1       6.5147   3.1506   2.6708   O.3       1 RES1   0.0000
    65 O2       5.0647   2.4550   5.0921   O.3       1 RES1   0.0000
    66 O3      10.1553   2.6031  -0.1594   O.3       1 RES1   0.0000
    67 O4       4.7577   1.3102   9.6667   O.3       1 RES1   0.0000
    68 C27     10.4878   7.9566   5.9571   C.3       2 RES2   0.0000
    69 H31     10.5999   8.9173   6.1126   H         2 RES2   0.0000
    70 H32     11.3617   7.5153   5.9963   H         2 RES2   0.0000
    71 H33      9.9012   7.5804   6.6470   H         2 RES2   0.0000
    72 O5       8.5432   8.5060   4.3865   O.3       2 RES2  -1.0000
    73 O6       9.4759   6.2972   4.2702   O.2       2 RES2   0.0000
    74 O7      10.7055   8.1989   3.4091   O.2       2 RES2   0.0000
    75 S1       9.7712   7.6982   4.3769   S.o2      2 RES2   0.0000
@<TRIPOS>BOND
     1     1     2    1
     2     3     1    1
     3     4     1    1
     4     5     4    1
     5     6     4    1
     6     7     8    1
     7     9     7    1
     8    10     7    1
     9    11     7    1
    10    12    11    1
    11    13    12   ar
    12    14    13   ar
    13    15    14    1
    14    16    14   ar
    15    17    16   ar
    16    18    17    1
    17    19    12   ar
    18    20    19    1
    19    21    22    1
    20    23    21    1
    21    24    21    1
    22    25    26    1
    23    27    25    1
    24    28    25    1
    25    29    25    1
    26    30    29    1
    27    31    30   ar
    28    32    31   ar
    29    33    32    1
    30    34    32   ar
    31    35    34   ar
    32    36    35    1
    33    37    30   ar
    34    38    37    1
    35    39    40    1
    36    41    39    1
    37    42    39    1
    38    43    44    1
    39    45    46    1
    40    47    45    2
    41    48    47    1
    42    49    50    1
    43    51    52    1
    44    53    51    2
    45    54    53    1
    46    55    56    1
    47    56     1    1
    48    57     4    1
    49    58    43    2
    50    59    43    1
    51    60    59    1
    52    61    49    2
    53    62    49    1
    54    63    62    1
    55    64    13    1
    56    65    31    1
    57    66    16    1
    58    67    34    1
    59    11    56    2
    60    17    19   ar
    61    21    66    1
    62    29    57    2
    63    35    37   ar
    64    39    67    1
    65    45    59    1
    66    47    58    1
    67    51    62    1
    68    53    61    1
    69    55    57    1
    70    55    58    1
    71    55    61    1
    72    55    64    1
    73    55    65    1
    74    68    69    1
    75    70    68    1
    76    71    68    1
    77    72    75    1
    78    73    75    2
    79    74    75    2
    80    75    68    1
@<TRIPOS>SUBSTRUCTURE
     1 RES1        1 GROUP             0 ****  ****    0  
     2 RES2       68 GROUP             0 ****  ****    0  
@<TRIPOS>CRYSIN
    9.7215   12.3531   13.7492   79.0590   72.7680   70.2300     2     1
