@<TRIPOS>MOLECULE
PUPKIW
    75    81     1     0     0
SMALL
NO_CHARGES
****
Generated from the CSD

@<TRIPOS>ATOM
     1 C1       7.5775  15.8135  14.6420   C.ar      1 RES1   0.0000
     2 C2       6.8010  16.0725  15.7722   C.ar      1 RES1   0.0000
     3 C3       7.2958  16.7119  16.8821   C.ar      1 RES1   0.0000
     4 C4       8.5869  17.1738  16.8679   C.ar      1 RES1   0.0000
     5 C5       9.3809  16.9575  15.7377   C.ar      1 RES1   0.0000
     6 C6       8.9292  16.2664  14.6172   C.ar      1 RES1   0.0000
     7 C7       9.3602  16.1424  12.1075   C.ar      1 RES1   0.0000
     8 C8       9.8388  16.1398  13.4461   C.ar      1 RES1   0.0000
     9 C9      11.2078  16.1193  13.6892   C.ar      1 RES1   0.0000
    10 C10     12.1378  16.2675  12.6616   C.ar      1 RES1   0.0000
    11 C11     11.6977  16.4829  11.3769   C.ar      1 RES1   0.0000
    12 C12     10.3282  16.4045  11.1033   C.ar      1 RES1   0.0000
    13 C13      9.7806  16.5661   9.7494   C.ar      1 RES1   0.0000
    14 C14     10.5033  16.9743   8.6334   C.ar      1 RES1   0.0000
    15 C15      9.8870  17.0731   7.3839   C.ar      1 RES1   0.0000
    16 C16      8.5283  16.7601   7.3208   C.ar      1 RES1   0.0000
    17 C17      7.8684  16.3764   8.4612   C.ar      1 RES1   0.0000
    18 C18      6.0171  15.2005  10.6788   C.1       1 RES1   0.0000
    19 C19      9.6384  13.0106  12.3194   C.3       1 RES1   0.0000
    20 C20      9.3207  13.2591   9.5347   C.3       1 RES1   0.0000
    21 C21      7.1745  12.2576  11.1029   C.ar      1 RES1   0.0000
    22 C22      6.4572  11.9762   9.9396   C.ar      1 RES1   0.0000
    23 C23      5.4736  11.0034   9.9382   C.ar      1 RES1   0.0000
    24 C24      5.1893  10.3045  11.1003   C.ar      1 RES1   0.0000
    25 C25      5.8745  10.5859  12.2552   C.ar      1 RES1   0.0000
    26 C26      6.8578  11.5579  12.2595   C.ar      1 RES1   0.0000
    27 C27      5.2152  17.7984  12.6716   C.3       1 RES1   0.0000
    28 C28      7.8105  18.8906  12.6716   C.3       1 RES1   0.0000
    29 C29      6.4081  18.5861  10.2084   C.ar      1 RES1   0.0000
    30 C30      7.3350  19.4276   9.6120   C.ar      1 RES1   0.0000
    31 C31      7.0866  20.0066   8.3798   C.ar      1 RES1   0.0000
    32 C32      5.9067  19.7371   7.7196   C.ar      1 RES1   0.0000
    33 C33      4.9744  18.9061   8.2933   C.ar      1 RES1   0.0000
    34 C34      5.2155  18.3321   9.5320   C.ar      1 RES1   0.0000
    35 N1       8.4550  16.2647   9.6626   N.ar      1 RES1   0.0000
    36 N2      10.5786  17.4933   6.2842   N.pl3     1 RES1   0.0000
    37 O1       4.9432  14.9079  10.3211   O.2       1 RES1   0.0000
    38 P1       8.4247  13.5841  11.0984   P.3       1 RES1   0.0000
    39 P2       6.7871  17.7007  11.7568   P.3       1 RES1   0.0000
    40 S1       6.8432  14.8786  13.3564   S.3       1 RES1   0.0000
    41 Fe1      7.5796  15.6573  11.3557   Fe        1 RES1   0.0000
    42 H1      11.4205  17.4147   6.2310   H         1 RES1   0.0000
    43 H2       5.9360  15.8302  15.7557   H         1 RES1   0.0000
    44 H3      10.2726  17.3107   5.4895   H         1 RES1   0.0000
    45 H4       6.7049  16.8555  17.6378   H         1 RES1   0.0000
    46 H5       8.9290  17.6944  17.6378   H         1 RES1   0.0000
    47 H6      10.2221  17.2796  15.7357   H         1 RES1   0.0000
    48 H7      11.5367  16.0104  14.5010   H         1 RES1   0.0000
    49 H8      13.1188  16.2341  12.8612   H         1 RES1   0.0000
    50 H9      12.3444  16.6659  10.6797   H         1 RES1   0.0000
    51 H10     11.4632  17.2237   8.7548   H         1 RES1   0.0000
    52 H11      8.0777  16.7902   6.5019   H         1 RES1   0.0000
    53 H12      6.8614  16.1253   8.4125   H         1 RES1   0.0000
    54 H13      9.8290  12.0552  12.1626   H         1 RES1   0.0000
    55 H14      9.3329  13.1115  13.1892   H         1 RES1   0.0000
    56 H15     10.3918  13.5310  12.2481   H         1 RES1   0.0000
    57 H16      9.5125  12.3348   9.5105   H         1 RES1   0.0000
    58 H17     10.0925  13.7951   9.5247   H         1 RES1   0.0000
    59 H18      8.7883  13.4844   8.7405   H         1 RES1   0.0000
    60 H19      6.6591  12.3814   9.1825   H         1 RES1   0.0000
    61 H20      5.0100  10.8124   9.1397   H         1 RES1   0.0000
    62 H21      4.5634   9.5696  11.0646   H         1 RES1   0.0000
    63 H22      5.6672  10.0978  13.0038   H         1 RES1   0.0000
    64 H23      7.3494  11.7289  13.0323   H         1 RES1   0.0000
    65 H24      5.3735  17.5312  13.5456   H         1 RES1   0.0000
    66 H25      4.5991  17.2128  12.2624   H         1 RES1   0.0000
    67 H26      4.8761  18.6731  12.6331   H         1 RES1   0.0000
    68 H27      7.9066  18.5954  13.4316   H         1 RES1   0.0000
    69 H28      7.4051  19.7916  12.6616   H         1 RES1   0.0000
    70 H29      8.6816  18.9496  12.2624   H         1 RES1   0.0000
    71 H30      8.1574  19.6052  10.0808   H         1 RES1   0.0000
    72 H31      7.7175  20.5528   7.9991   H         1 RES1   0.0000
    73 H32      5.7585  20.1178   6.9724   H         1 RES1   0.0000
    74 H33      4.1806  18.7539   7.8565   H         1 RES1   0.0000
    75 H34      4.5825  17.7720   9.8812   H         1 RES1   0.0000
@<TRIPOS>BOND
     1     1     2   ar
     2     2     3   ar
     3     3     4   ar
     4     4     5   ar
     5     5     6   ar
     6     6     1   ar
     7     7     8   ar
     8     8     6    1
     9     9     8   ar
    10    10     9   ar
    11    11    10   ar
    12    12     7   ar
    13    13    12    1
    14    14    13   ar
    15    15    14   ar
    16    16    15   ar
    17    17    16   ar
    18    18    37    3
    19    19    38    1
    20    20    38    1
    21    21    22   ar
    22    22    23   ar
    23    23    24   ar
    24    24    25   ar
    25    25    26   ar
    26    26    21   ar
    27    27    39    1
    28    28    39    1
    29    29    30   ar
    30    30    31   ar
    31    31    32   ar
    32    32    33   ar
    33    33    34   ar
    34    34    29   ar
    35    35    13   ar
    36    36    15    1
    37    38    21    1
    38    39    29    1
    39    40     1    1
    40    41     7    1
    41    42    36    1
    42    43     2    1
    43    44    36    1
    44    45     3    1
    45    46     4    1
    46    47     5    1
    47    48     9    1
    48    49    10    1
    49    50    11    1
    50    51    14    1
    51    52    16    1
    52    53    17    1
    53    54    19    1
    54    55    19    1
    55    56    19    1
    56    57    20    1
    57    58    20    1
    58    59    20    1
    59    60    22    1
    60    61    23    1
    61    62    24    1
    62    63    25    1
    63    64    26    1
    64    65    27    1
    65    66    27    1
    66    67    27    1
    67    68    28    1
    68    69    28    1
    69    70    28    1
    70    71    30    1
    71    72    31    1
    72    73    32    1
    73    74    33    1
    74    75    34    1
    75    11    12   ar
    76    17    35   ar
    77    18    41    1
    78    35    41    1
    79    38    41    1
    80    39    41    1
    81    40    41    1
@<TRIPOS>SUBSTRUCTURE
     1 RES1        1 GROUP             0 ****  ****    0  
@<TRIPOS>CRYSIN
   27.4920   15.5350   19.8970   90.0000  134.2240   90.0000    15     1
