@<TRIPOS>MOLECULE
PUPKES
    75    81     1     0     0
SMALL
NO_CHARGES
****
Generated from the CSD

@<TRIPOS>ATOM
     1 C1       8.7679   8.4948   6.2833   C.ar      1 RES1   0.0000
     2 C2       9.1155   9.8017   5.8997   C.ar      1 RES1   0.0000
     3 C3       9.4708  10.7646   6.8185   C.ar      1 RES1   0.0000
     4 C4       9.5399  10.4294   8.1621   C.ar      1 RES1   0.0000
     5 C5       9.1871   9.1497   8.5615   C.ar      1 RES1   0.0000
     6 C6       8.7531   8.1583   7.6576   C.ar      1 RES1   0.0000
     7 C7       8.4856   5.6069   7.4784   C.ar      1 RES1   0.0000
     8 C8       8.3680   6.8193   8.1963   C.ar      1 RES1   0.0000
     9 C9       7.9075   6.7771   9.5293   C.ar      1 RES1   0.0000
    10 C10      7.7189   5.5849  10.2096   C.ar      1 RES1   0.0000
    11 C11      8.0005   4.3978   9.5699   C.ar      1 RES1   0.0000
    12 C12      8.3541   4.4086   8.2224   C.ar      1 RES1   0.0000
    13 C13      8.6256   3.1731   7.4881   C.ar      1 RES1   0.0000
    14 C14      8.7284   1.9016   8.0396   C.ar      1 RES1   0.0000
    15 C15      9.0085   0.8084   7.2488   C.ar      1 RES1   0.0000
    16 C16      9.1849   0.9751   5.8789   C.ar      1 RES1   0.0000
    17 C17      9.0738   2.2758   5.3773   C.ar      1 RES1   0.0000
    18 C18      8.8024   4.9193   3.7958   C.1       1 RES1   0.0000
    19 C19      5.6025   5.7758   3.9646   C.3       1 RES1   0.0000
    20 C20      5.4757   5.9086   6.7689   C.3       1 RES1   0.0000
    21 C21      5.7568   3.3915   5.4298   C.ar      1 RES1   0.0000
    22 C22      5.0298   2.8423   6.4809   C.ar      1 RES1   0.0000
    23 C23      4.5798   1.5258   6.4203   C.ar      1 RES1   0.0000
    24 C24      4.8611   0.7558   5.3137   C.ar      1 RES1   0.0000
    25 C25      5.5820   1.2775   4.2650   C.ar      1 RES1   0.0000
    26 C26      6.0295   2.5829   4.3243   C.ar      1 RES1   0.0000
    27 C27     11.6916   6.6106   4.5338   C.3       1 RES1   0.0000
    28 C28     11.5675   6.1220   7.2981   C.3       1 RES1   0.0000
    29 C29     11.7827   3.9197   5.4980   C.ar      1 RES1   0.0000
    30 C30     12.1237   3.1220   6.5815   C.ar      1 RES1   0.0000
    31 C31     12.6584   1.8519   6.3845   C.ar      1 RES1   0.0000
    32 C32     12.8540   1.3692   5.1125   C.ar      1 RES1   0.0000
    33 C33     12.5365   2.1566   4.0197   C.ar      1 RES1   0.0000
    34 C34     12.0030   3.4177   4.2113   C.ar      1 RES1   0.0000
    35 N1       8.8134   3.3475   6.1499   N.ar      1 RES1   0.0000
    36 N2       9.3973  -0.0857   5.0311   N.pl3     1 RES1   0.0000
    37 O1       8.8891   4.7929   2.6372   O.2       1 RES1   0.0000
    38 P1       6.4155   5.0894   5.4478   P.3       1 RES1   0.0000
    39 P2      10.8898   5.4945   5.7256   P.3       1 RES1   0.0000
    40 S1       8.3315   7.4195   4.9750   S.3       1 RES1   0.0000
    41 Fe1      8.6723   5.2311   5.5228   Fe        1 RES1   0.0000
    42 H1       9.6578  -0.7905   5.3744   H         1 RES1   0.0000
    43 H2       9.1482  10.0305   4.9747   H         1 RES1   0.0000
    44 H3       9.7445   0.0791   4.2168   H         1 RES1   0.0000
    45 H4       9.7438  11.6859   6.5622   H         1 RES1   0.0000
    46 H5       9.8383  11.0392   8.8057   H         1 RES1   0.0000
    47 H6       9.2781   8.9048   9.4947   H         1 RES1   0.0000
    48 H7       7.7036   7.5735   9.9825   H         1 RES1   0.0000
    49 H8       7.4328   5.5655  11.0381   H         1 RES1   0.0000
    50 H9       7.8670   3.5670  10.0115   H         1 RES1   0.0000
    51 H10      8.5600   1.7772   8.9710   H         1 RES1   0.0000
    52 H11      9.0770  -0.0490   7.6357   H         1 RES1   0.0000
    53 H12      9.1954   2.4207   4.4373   H         1 RES1   0.0000
    54 H13      5.9794   5.3599   3.1833   H         1 RES1   0.0000
    55 H14      5.8178   6.7039   3.9688   H         1 RES1   0.0000
    56 H15      4.5814   5.5813   4.0239   H         1 RES1   0.0000
    57 H16      5.7240   6.8620   6.7662   H         1 RES1   0.0000
    58 H17      5.6911   5.5433   7.6619   H         1 RES1   0.0000
    59 H18      4.5662   5.8184   6.5733   H         1 RES1   0.0000
    60 H19      4.8925   3.3361   7.2623   H         1 RES1   0.0000
    61 H20      4.0755   1.2016   7.1520   H         1 RES1   0.0000
    62 H21      4.5465  -0.1107   5.2641   H         1 RES1   0.0000
    63 H22      5.7931   0.7431   3.4864   H         1 RES1   0.0000
    64 H23      6.5194   2.9725   3.5691   H         1 RES1   0.0000
    65 H24     11.4906   6.3181   3.6242   H         1 RES1   0.0000
    66 H25     12.6487   6.5268   4.6853   H         1 RES1   0.0000
    67 H26     11.2889   7.5260   4.6716   H         1 RES1   0.0000
    68 H27     12.5068   6.1347   7.2485   H         1 RES1   0.0000
    69 H28     11.1587   5.5813   8.0478   H         1 RES1   0.0000
    70 H29     11.2753   7.0517   7.4139   H         1 RES1   0.0000
    71 H30     11.9535   3.4326   7.4690   H         1 RES1   0.0000
    72 H31     12.8869   1.3914   7.2072   H         1 RES1   0.0000
    73 H32     13.2446   0.4901   4.9334   H         1 RES1   0.0000
    74 H33     12.7213   1.8499   3.1282   H         1 RES1   0.0000
    75 H34     11.7752   3.9717   3.4451   H         1 RES1   0.0000
@<TRIPOS>BOND
     1     1     2   ar
     2     2     3   ar
     3     3     4   ar
     4     4     5   ar
     5     5     6   ar
     6     6     1   ar
     7     7     8   ar
     8     8     6    1
     9     9     8   ar
    10    10     9   ar
    11    11    10   ar
    12    12     7   ar
    13    13    12    1
    14    14    13   ar
    15    15    14   ar
    16    16    15   ar
    17    17    16   ar
    18    18    37    3
    19    19    38    1
    20    20    38    1
    21    21    22   ar
    22    22    23   ar
    23    23    24   ar
    24    24    25   ar
    25    25    26   ar
    26    26    21   ar
    27    27    39    1
    28    28    39    1
    29    29    30   ar
    30    30    31   ar
    31    31    32   ar
    32    32    33   ar
    33    33    34   ar
    34    34    29   ar
    35    35    13   ar
    36    36    16    1
    37    38    21    1
    38    39    29    1
    39    40     1    1
    40    41     7    1
    41    42    36    1
    42    43     2    1
    43    44    36    1
    44    45     3    1
    45    46     4    1
    46    47     5    1
    47    48     9    1
    48    49    10    1
    49    50    11    1
    50    51    14    1
    51    52    15    1
    52    53    17    1
    53    54    19    1
    54    55    19    1
    55    56    19    1
    56    57    20    1
    57    58    20    1
    58    59    20    1
    59    60    22    1
    60    61    23    1
    61    62    24    1
    62    63    25    1
    63    64    26    1
    64    65    27    1
    65    66    27    1
    66    67    27    1
    67    68    28    1
    68    69    28    1
    69    70    28    1
    70    71    30    1
    71    72    31    1
    72    73    32    1
    73    74    33    1
    74    75    34    1
    75    11    12   ar
    76    17    35   ar
    77    18    41    1
    78    35    41    1
    79    38    41    1
    80    39    41    1
    81    40    41    1
@<TRIPOS>SUBSTRUCTURE
     1 RES1        1 GROUP             0 ****  ****    0  
@<TRIPOS>CRYSIN
   13.7640   15.8110   14.0690   90.0000  101.6250   90.0000   231     1
