@<TRIPOS>MOLECULE
PUPKAO
    75    81     1     0     0
SMALL
NO_CHARGES
****
Generated from the CSD

@<TRIPOS>ATOM
     1 C1       0.0682  -0.3022  10.4114   C.ar      1 RES1   0.0000
     2 C2       0.6300  -1.5870  10.5362   C.ar      1 RES1   0.0000
     3 C3       0.7702  -2.4234   9.4519   C.ar      1 RES1   0.0000
     4 C4       0.3601  -2.0050   8.1995   C.ar      1 RES1   0.0000
     5 C5      -0.2100  -0.7483   8.0628   C.ar      1 RES1   0.0000
     6 C6      -0.3951   0.1229   9.1502   C.ar      1 RES1   0.0000
     7 C7      -0.6415   2.6266   9.5695   C.ar      1 RES1   0.0000
     8 C8      -1.0341   1.4421   8.9039   C.ar      1 RES1   0.0000
     9 C9      -2.0370   1.5020   7.9183   C.ar      1 RES1   0.0000
    10 C10     -2.6007   2.7031   7.5252   C.ar      1 RES1   0.0000
    11 C11     -2.1291   3.8820   8.0619   C.ar      1 RES1   0.0000
    12 C12     -1.1435   3.8409   9.0577   C.ar      1 RES1   0.0000
    13 C13     -0.5793   5.0631   9.6432   C.ar      1 RES1   0.0000
    14 C14     -0.8994   6.3436   9.2163   C.ar      1 RES1   0.0000
    15 C15     -0.2786   7.4312   9.8027   C.ar      1 RES1   0.0000
    16 C16      0.6483   7.2219  10.7870   C.ar      1 RES1   0.0000
    17 C17      0.9207   5.9190  11.2172   C.ar      1 RES1   0.0000
    18 C18      1.0645   2.9945  12.8838   C.1       1 RES1   0.0000
    19 C19     -1.8912   2.5647  13.9316   C.3       1 RES1   0.0000
    20 C20     -3.1142   2.2760  11.4037   C.3       1 RES1   0.0000
    21 C21     -2.3121   4.8524  12.3480   C.ar      1 RES1   0.0000
    22 C22     -3.3927   5.3637  11.6268   C.ar      1 RES1   0.0000
    23 C23     -3.7365   6.7029  11.7315   C.ar      1 RES1   0.0000
    24 C24     -3.0197   7.5516  12.5450   C.ar      1 RES1   0.0000
    25 C25     -1.9679   7.0583  13.2876   C.ar      1 RES1   0.0000
    26 C26     -1.6128   5.7248  13.1869   C.ar      1 RES1   0.0000
    27 C27      3.0929   0.8833  10.4013   C.3       1 RES1   0.0000
    28 C28      2.2449   2.6723   8.3953   C.3       1 RES1   0.0000
    29 C29      3.6373   3.6124  10.6929   C.ar      1 RES1   0.0000
    30 C30      4.0586   4.6829   9.9387   C.ar      1 RES1   0.0000
    31 H1       3.6670   4.8604   9.0918   H         1 RES1   0.0000
    32 C31      5.1076   5.5342  10.4534   C.ar      1 RES1   0.0000
    33 H2       5.4099   6.2847   9.9578   H         1 RES1   0.0000
    34 C32      5.6481   5.2370  11.6603   C.ar      1 RES1   0.0000
    35 H3       6.3389   5.7965  11.9942   H         1 RES1   0.0000
    36 C33      5.2549   4.1853  12.4151   C.ar      1 RES1   0.0000
    37 H4       5.6629   4.0091  13.2551   H         1 RES1   0.0000
    38 C34      4.2485   3.3797  11.9341   C.ar      1 RES1   0.0000
    39 H5       3.9585   2.6427  12.4586   H         1 RES1   0.0000
    40 N1       0.3157   4.8386  10.6621   N.ar      1 RES1   0.0000
    41 N2       1.7634   5.7264  12.2734   N.pl3     1 RES1   0.0000
    42 O1       1.4860   2.9312  13.9695   O.2       1 RES1   0.0000
    43 P1      -1.7240   3.1344  12.2021   P.3       1 RES1   0.0000
    44 P2       2.2691   2.4971  10.2004   P.3       1 RES1   0.0000
    45 S1       0.0196   0.6870  11.8563   S.3       1 RES1   0.0000
    46 Fe1      0.3355   2.8880  11.2821   Fe        1 RES1   0.0000
    47 H6       2.1969   6.4044  12.5055   H         1 RES1   0.0000
    48 H7       0.9070  -1.8681  11.3630   H         1 RES1   0.0000
    49 H8       2.1346   4.9626  12.3838   H         1 RES1   0.0000
    50 H9       1.1499  -3.2546   9.5857   H         1 RES1   0.0000
    51 H10      0.4534  -2.5284   7.3892   H         1 RES1   0.0000
    52 H11     -0.4238  -0.4344   7.2119   H         1 RES1   0.0000
    53 H12     -2.3492   0.7101   7.5214   H         1 RES1   0.0000
    54 H13     -3.3420   2.6978   6.9649   H         1 RES1   0.0000
    55 H14     -2.5085   4.7206   7.7666   H         1 RES1   0.0000
    56 H15     -1.5626   6.4366   8.5231   H         1 RES1   0.0000
    57 H16     -0.4812   8.2980   9.5561   H         1 RES1   0.0000
    58 H17      1.0697   7.9577  11.2430   H         1 RES1   0.0000
    59 H18     -2.7500   2.7032  14.2063   H         1 RES1   0.0000
    60 H19     -1.3057   3.0126  14.5298   H         1 RES1   0.0000
    61 H20     -1.6964   1.6139  13.9281   H         1 RES1   0.0000
    62 H21     -3.9575   2.5109  11.8882   H         1 RES1   0.0000
    63 H22     -2.9221   1.3180  11.4708   H         1 RES1   0.0000
    64 H23     -3.1704   2.5418  10.5161   H         1 RES1   0.0000
    65 H24     -3.8600   4.8228  11.1282   H         1 RES1   0.0000
    66 H25     -4.4453   7.0338  11.3473   H         1 RES1   0.0000
    67 H26     -3.2290   8.4997  12.5925   H         1 RES1   0.0000
    68 H27     -1.4490   7.6390  13.8776   H         1 RES1   0.0000
    69 H28     -0.9179   5.4038  13.6672   H         1 RES1   0.0000
    70 H29      2.5904   0.1614   9.8430   H         1 RES1   0.0000
    71 H30      3.1796   0.7128  11.3560   H         1 RES1   0.0000
    72 H31      4.0038   0.9683  10.0656   H         1 RES1   0.0000
    73 H32      1.7699   1.9635   8.0988   H         1 RES1   0.0000
    74 H33      3.1744   2.5553   7.9996   H         1 RES1   0.0000
    75 H34      1.8093   3.5236   8.1735   H         1 RES1   0.0000
@<TRIPOS>BOND
     1     1     2   ar
     2     2     3   ar
     3     3     4   ar
     4     4     5   ar
     5     5     6   ar
     6     6     1   ar
     7     7     8   ar
     8     8     6    1
     9     9     8   ar
    10    10     9   ar
    11    11    10   ar
    12    12     7   ar
    13    13    12    1
    14    14    13   ar
    15    15    14   ar
    16    16    15   ar
    17    17    16   ar
    18    18    42    3
    19    19    43    1
    20    20    43    1
    21    21    22   ar
    22    22    23   ar
    23    23    24   ar
    24    24    25   ar
    25    25    26   ar
    26    26    21   ar
    27    27    44    1
    28    28    44    1
    29    29    30   ar
    30    30    31    1
    31    32    30   ar
    32    33    32    1
    33    34    32   ar
    34    35    34    1
    35    36    34   ar
    36    37    36    1
    37    38    29   ar
    38    39    38    1
    39    40    13   ar
    40    41    17    1
    41    43    21    1
    42    44    29    1
    43    45     1    1
    44    46     7    1
    45    47    41    1
    46    48     2    1
    47    49    41    1
    48    50     3    1
    49    51     4    1
    50    52     5    1
    51    53     9    1
    52    54    10    1
    53    55    11    1
    54    56    14    1
    55    57    15    1
    56    58    16    1
    57    59    19    1
    58    60    19    1
    59    61    19    1
    60    62    20    1
    61    63    20    1
    62    64    20    1
    63    65    22    1
    64    66    23    1
    65    67    24    1
    66    68    25    1
    67    69    26    1
    68    70    27    1
    69    71    27    1
    70    72    27    1
    71    73    28    1
    72    74    28    1
    73    75    28    1
    74    11    12   ar
    75    17    40   ar
    76    18    46    1
    77    36    38   ar
    78    40    46    1
    79    43    46    1
    80    44    46    1
    81    45    46    1
@<TRIPOS>SUBSTRUCTURE
     1 RES1        1 GROUP             0 ****  ****    0  
@<TRIPOS>CRYSIN
   12.8198   13.4489   18.3170   90.0000  108.3010   90.0000    14     1
