@<TRIPOS>MOLECULE
PUQJAM
    78    82     2     0     0
SMALL
USER_CHARGES
****
Generated from the CSD

@<TRIPOS>ATOM
     1 Fe1      1.6939  14.3546   2.8013   Fe        1 RES1   0.0000
     2 Cl1      0.4881  15.7585   4.3737   Cl        1 RES1  -1.0000
     3 N1       2.4680  13.0567   4.2723   N.ar      1 RES1   0.0000
     4 N2       2.2877  11.7050   4.0830   N.ar      1 RES1   0.0000
     5 N3       2.7776  12.9359   1.3578   N.ar      1 RES1   0.0000
     6 N4       2.5919  11.5973   1.6016   N.ar      1 RES1   0.0000
     7 N5       0.0674  13.0796   2.4365   N.ar      1 RES1   0.0000
     8 N6       0.2605  11.7230   2.5302   N.ar      1 RES1   0.0000
     9 N7       2.6902  16.4474   1.5880   N.2       1 RES1   0.0000
    10 O1       1.6083  15.8826   1.2349   O.2       1 RES1   0.0000
    11 O2       3.2749  15.8499   2.5263   O.2       1 RES1   0.0000
    12 C1       3.1419  13.1939   5.4018   C.ar      1 RES1   0.0000
    13 C2       3.4024  11.9744   5.9558   C.ar      1 RES1   0.0000
    14 C3       2.8851  11.0275   5.1052   C.ar      1 RES1   0.0000
    15 C4       3.5353  14.5668   5.8992   C.3       1 RES1   0.0000
    16 C5       2.8778   9.5305   5.2047   C.3       1 RES1   0.0000
    17 C6       3.6173  12.9751   0.3024   C.ar      1 RES1   0.0000
    18 C7       3.9178  11.6985  -0.1229   C.ar      1 RES1   0.0000
    19 C8       3.2658  10.8382   0.7198   C.ar      1 RES1   0.0000
    20 C9       4.0672  14.2795  -0.2965   C.3       1 RES1   0.0000
    21 C10      3.2330   9.3510   0.7218   C.3       1 RES1   0.0000
    22 C11     -1.2167  13.2657   2.1127   C.ar      1 RES1   0.0000
    23 C12     -1.8451  12.0185   2.0093   C.ar      1 RES1   0.0000
    24 C13     -0.8943  11.0830   2.2590   C.ar      1 RES1   0.0000
    25 C14     -0.9981   9.5681   2.2454   C.3       1 RES1   0.0000
    26 C15     -1.7904  14.6272   1.8981   C.3       1 RES1   0.0000
    27 B1       1.6611  11.1647   2.7701   B         1 RES1   0.0000
    28 H1       3.8468  11.8144   6.7556   H         1 RES1   0.0000
    29 H2       3.2075  15.2329   5.2906   H         1 RES1   0.0000
    30 H3       4.4916  14.6256   5.9519   H         1 RES1   0.0000
    31 H4       3.1565  14.7121   6.7673   H         1 RES1   0.0000
    32 H5       2.4316   9.1616   4.4400   H         1 RES1   0.0000
    33 H6       2.4152   9.2644   6.0026   H         1 RES1   0.0000
    34 H7       3.7812   9.2073   5.2359   H         1 RES1   0.0000
    35 H8       4.4570  11.4667  -0.8447   H         1 RES1   0.0000
    36 H9       3.7029  15.0092   0.2107   H         1 RES1   0.0000
    37 H10      3.7630  14.3382  -1.2036   H         1 RES1   0.0000
    38 H11      5.0271  14.3252  -0.2770   H         1 RES1   0.0000
    39 H12      2.6829   9.0441   1.4455   H         1 RES1   0.0000
    40 H13      4.1255   9.0114   0.8291   H         1 RES1   0.0000
    41 H14      2.8705   9.0392  -0.1112   H         1 RES1   0.0000
    42 H15     -2.7394  11.8617   1.8084   H         1 RES1   0.0000
    43 H16     -0.1439   9.1877   2.4639   H         1 RES1   0.0000
    44 H17     -1.2641   9.2742   1.3714   H         1 RES1   0.0000
    45 H18     -1.6502   9.2857   2.8891   H         1 RES1   0.0000
    46 H19     -1.1111  15.2884   2.0444   H         1 RES1   0.0000
    47 H20     -2.5135  14.7725   2.5126   H         1 RES1   0.0000
    48 H21     -2.1183  14.6990   0.9988   H         1 RES1   0.0000
    49 H22      1.6192  10.1868   2.8072   H         1 RES1   0.0000
    50 N8       1.1967  20.4585   2.6687   N.4       2 RES2   1.0000
    51 C16      1.3533  19.7794   4.0030   C.3       2 RES2   0.0000
    52 C17      2.6756  18.9207   4.0947   C.3       2 RES2   0.0000
    53 C18     -0.0073  21.3547   2.7838   C.3       2 RES2   0.0000
    54 C19     -0.3588  22.1432   1.5099   C.3       2 RES2   0.0000
    55 C20      2.4134  21.2437   2.3273   C.3       2 RES2   0.0000
    56 C21      2.7521  22.3440   3.3846   C.3       2 RES2   0.0000
    57 C22      1.0091  19.4431   1.5665   C.3       2 RES2   0.0000
    58 C23     -0.2677  18.6170   1.6543   C.3       2 RES2   0.0000
    59 H23      0.5883  19.2015   4.1552   H         2 RES2   0.0000
    60 H24      1.3624  20.4520   4.7014   H         2 RES2   0.0000
    61 H25      2.7285  18.5093   4.9609   H         2 RES2   0.0000
    62 H26      3.4370  19.4904   3.9640   H         2 RES2   0.0000
    63 H27      2.6629  18.2416   3.4178   H         2 RES2   0.0000
    64 H28      0.1457  21.9849   3.5036   H         2 RES2   0.0000
    65 H29     -0.7723  20.8111   3.0296   H         2 RES2   0.0000
    66 H30     -1.1347  22.6836   1.6738   H         2 RES2   0.0000
    67 H31     -0.5410  21.5294   0.7940   H         2 RES2   0.0000
    68 H32      0.3807  22.7064   1.2700   H         2 RES2   0.0000
    69 H33      2.2822  21.6665   1.4631   H         2 RES2   0.0000
    70 H34      3.1674  20.6397   2.2493   H         2 RES2   0.0000
    71 H35      3.5408  22.8158   3.1115   H         2 RES2   0.0000
    72 H36      2.9033  21.9310   4.2371   H         2 RES2   0.0000
    73 H37      2.0181  22.9595   3.4529   H         2 RES2   0.0000
    74 H38      1.7668  18.8374   1.5743   H         2 RES2   0.0000
    75 H39      1.0163  19.9083   0.7159   H         2 RES2   0.0000
    76 H40     -0.3042  18.0032   0.9188   H         2 RES2   0.0000
    77 H41     -1.0291  19.2015   1.6211   H         2 RES2   0.0000
    78 H42     -0.2769  18.1289   2.4814   H         2 RES2   0.0000
@<TRIPOS>BOND
     1     1     2    1
     2     3     1    1
     3     4     3   ar
     4     5     1    1
     5     6     5   ar
     6     7     1    1
     7     8     7   ar
     8     9    10   un
     9    10     1    1
    10    11     1    1
    11    12     3   ar
    12    13    12   ar
    13    14     4   ar
    14    15    12    1
    15    16    14    1
    16    17     5   ar
    17    18    17   ar
    18    19     6   ar
    19    20    17    1
    20    21    19    1
    21    22     7   ar
    22    23    22   ar
    23    24     8   ar
    24    25    24    1
    25    26    22    1
    26    27     4    1
    27    28    13    1
    28    29    15    1
    29    30    15    1
    30    31    15    1
    31    32    16    1
    32    33    16    1
    33    34    16    1
    34    35    18    1
    35    36    20    1
    36    37    20    1
    37    38    20    1
    38    39    21    1
    39    40    21    1
    40    41    21    1
    41    42    23    1
    42    43    25    1
    43    44    25    1
    44    45    25    1
    45    46    26    1
    46    47    26    1
    47    48    26    1
    48    49    27    1
    49     6    27    1
    50     8    27    1
    51     9    11   un
    52    13    14   ar
    53    18    19   ar
    54    23    24   ar
    55    50    51    1
    56    51    52    1
    57    52    61    1
    58    53    50    1
    59    54    53    1
    60    55    50    1
    61    56    55    1
    62    57    50    1
    63    58    57    1
    64    59    51    1
    65    60    51    1
    66    62    52    1
    67    63    52    1
    68    64    53    1
    69    65    53    1
    70    66    54    1
    71    67    54    1
    72    68    54    1
    73    69    55    1
    74    70    55    1
    75    71    56    1
    76    72    56    1
    77    73    56    1
    78    74    57    1
    79    75    57    1
    80    76    58    1
    81    77    58    1
    82    78    58    1
@<TRIPOS>SUBSTRUCTURE
     1 RES1        1 GROUP             0 ****  ****    0  
     2 RES2       50 GROUP             0 ****  ****    0  
@<TRIPOS>CRYSIN
   18.2140   16.3250   19.5080   90.0000   90.0000   90.0000    61     1
