@<TRIPOS>MOLECULE
PUQJEQ
    83    86     2     0     0
SMALL
USER_CHARGES
****
Generated from the CSD

@<TRIPOS>ATOM
     1 Fe1     -1.5585   6.0945   3.5538   Fe        1 RES1   0.0000
     2 N1      -0.8940   7.5072   2.0991   N.ar      1 RES1   0.0000
     3 N2      -1.2702   7.3475   0.7792   N.ar      1 RES1   0.0000
     4 N3      -3.3945   6.0945   2.4822   N.ar      1 RES1   0.0000
     5 N4      -3.3979   6.0945   1.1002   N.ar      1 RES1   0.0000
     6 N5      -2.7675   3.6238   4.4694   N.2       1 RES1   0.0000
     7 N6       0.4388   6.0945   5.6275   N.2       1 RES1   0.0000
     8 O1      -2.1951   4.7086   4.8157   O.3       1 RES1   0.0000
     9 O2      -3.1170   2.9327   5.3931   O.2       1 RES1   0.0000
    10 O3       0.2752   6.0945   4.3444   O.3       1 RES1  -1.0000
    11 O4       1.4841   6.0945   6.0179   O.2       1 RES1   0.0000
    12 B1      -2.0776   6.0945   0.3643   B         1 RES1   0.0000
    13 C1      -0.8145   8.3714   0.0506   C.ar      1 RES1   0.0000
    14 C2      -0.1185   9.2173   0.8895   C.ar      1 RES1   0.0000
    15 C3      -0.1929   8.6591   2.1604   C.ar      1 RES1   0.0000
    16 C4      -1.0795   8.5238  -1.4367   C.3       1 RES1   0.0000
    17 C5       0.4053   9.1478   3.4214   C.3       1 RES1   0.0000
    18 C6      -4.6757   6.0945   0.6354   C.ar      1 RES1   0.0000
    19 C7      -5.5135   6.0945   1.7038   C.ar      1 RES1   0.0000
    20 C8      -4.7149   6.0945   2.8644   C.ar      1 RES1   0.0000
    21 C9      -4.9923   6.0945  -0.8454   C.3       1 RES1   0.0000
    22 C10     -5.1254   6.0945   4.2464   C.3       1 RES1   0.0000
    23 H1      -2.2286   6.0945  -0.6044   H         1 RES1   0.0000
    24 H2       0.3166  10.0047   0.6518   H         1 RES1   0.0000
    25 H3      -1.5923   7.7754  -1.7487   H         1 RES1   0.0000
    26 H4      -0.2429   8.5579  -1.9088   H         1 RES1   0.0000
    27 H5      -1.5681   9.3343  -1.5935   H         1 RES1   0.0000
    28 H6       0.1783   8.5481   4.1361   H         1 RES1   0.0000
    29 H7       0.0662  10.0242   3.6191   H         1 RES1   0.0000
    30 H8       1.3597   9.1868   3.3283   H         1 RES1   0.0000
    31 H9      -6.4428   6.0945   1.6752   H         1 RES1   0.0000
    32 H10     -4.1735   6.0945  -1.3469   H         1 RES1   0.0000
    33 H11     -5.5002   6.8783  -1.0642   H         1 RES1   0.0000
    34 H12     -5.5002   5.3107  -1.0642   H         1 RES1   0.0000
    35 H13     -4.3497   6.0945   4.8116   H         1 RES1   0.0000
    36 H14     -5.6504   5.3107   4.4244   H         1 RES1   0.0000
    37 H15     -5.6504   6.8783   4.4244   H         1 RES1   0.0000
    38 N2A     -1.2702   4.8415   0.7792   N.ar      1 RES1   0.0000
    39 N1A     -0.8940   4.6818   2.0991   N.ar      1 RES1   0.0000
    40 O1A     -2.1951   7.4804   4.8157   O.3       1 RES1   0.0000
    41 N5A     -2.7675   8.5652   4.4694   N.2       1 RES1   0.0000
    42 O2A     -3.1170   9.2563   5.3931   O.2       1 RES1   0.0000
    43 C3A     -0.1929   3.5299   2.1604   C.ar      1 RES1   0.0000
    44 C2A     -0.1185   2.9717   0.8895   C.ar      1 RES1   0.0000
    45 C1A     -0.8145   3.8176   0.0506   C.ar      1 RES1   0.0000
    46 C4A     -1.0795   3.6652  -1.4367   C.3       1 RES1   0.0000
    47 H3A     -1.5923   4.4136  -1.7487   H         1 RES1   0.0000
    48 H4A     -0.2429   3.6311  -1.9088   H         1 RES1   0.0000
    49 H5A     -1.5681   2.8547  -1.5935   H         1 RES1   0.0000
    50 H2A      0.3166   2.1843   0.6518   H         1 RES1   0.0000
    51 C5A      0.4053   3.0412   3.4214   C.3       1 RES1   0.0000
    52 H6A      0.1783   3.6409   4.1361   H         1 RES1   0.0000
    53 H7A      0.0662   2.1648   3.6191   H         1 RES1   0.0000
    54 H8A      1.3597   3.0022   3.3283   H         1 RES1   0.0000
    55 N7      -2.1037   6.0945   9.4761   N.4       2 RES2   1.0000
    56 C11     -1.9233   6.0945  10.7838   C.3       2 RES2   0.0000
    57 C12     -0.2280   6.0945  11.1979   C.3       2 RES2   0.0000
    58 C13     -1.5467   4.8914   8.7198   C.3       2 RES2   0.0000
    59 C14     -2.1161   3.5726   9.4304   C.3       2 RES2   0.0000
    60 C15     -3.6643   6.0945   9.1135   C.3       2 RES2   0.0000
    61 C16     -3.9801   6.0945   7.7185   C.3       2 RES2   0.0000
    62 H16     -2.3469   5.3095  11.1660   H         2 RES2   0.0000
    63 H17     -2.3469   6.8795  11.1660   H         2 RES2   0.0000
    64 H18     -0.1332   6.0945  12.1535   H         2 RES2   0.0000
    65 H19      0.1899   6.8783  10.8344   H         2 RES2   0.0000
    66 H20      0.1899   5.3107  10.8344   H         2 RES2   0.0000
    67 H21     -0.5774   4.8975   8.7492   H         2 RES2   0.0000
    68 H22     -1.8265   4.9207   7.7912   H         2 RES2   0.0000
    69 H23     -1.7823   2.7949   8.9755   H         2 RES2   0.0000
    70 H24     -3.0754   3.5775   9.3936   H         2 RES2   0.0000
    71 H25     -1.8306   3.5543  10.3468   H         2 RES2   0.0000
    72 H26     -4.0725   5.3132   9.5178   H         2 RES2   0.0000
    73 H27     -4.0725   6.8758   9.5178   H         2 RES2   0.0000
    74 H28     -4.9326   6.0945   7.6049   H         2 RES2   0.0000
    75 H29     -3.6088   5.3107   7.3068   H         2 RES2   0.0000
    76 H30     -3.6088   6.8783   7.3068   H         2 RES2   0.0000
    77 C13A    -1.5467   7.2976   8.7198   C.3       2 RES2   0.0000
    78 C14A    -2.1161   8.6164   9.4304   C.3       2 RES2   0.0000
    79 H23A    -1.7823   9.3941   8.9755   H         2 RES2   0.0000
    80 H24A    -3.0754   8.6115   9.3936   H         2 RES2   0.0000
    81 H25A    -1.8306   8.6347  10.3468   H         2 RES2   0.0000
    82 H21A    -0.5774   7.2915   8.7492   H         2 RES2   0.0000
    83 H22A    -1.8265   7.2683   7.7912   H         2 RES2   0.0000
@<TRIPOS>BOND
     1     1     2    1
     2     2     3   ar
     3     3    12    1
     4     4     1    1
     5     5     4   ar
     6     6     8    1
     7     7    10    1
     8     8     1    1
     9     9     6    2
    10    10     1    1
    11    11     7    2
    12    12     5    1
    13    13     3   ar
    14    14    13   ar
    15    15     2   ar
    16    16    13    1
    17    17    15    1
    18    18     5   ar
    19    19    18   ar
    20    20     4   ar
    21    21    18    1
    22    22    20    1
    23    23    12    1
    24    24    14    1
    25    25    16    1
    26    26    16    1
    27    27    16    1
    28    28    17    1
    29    29    17    1
    30    30    17    1
    31    31    19    1
    32    32    21    1
    33    33    21    1
    34    34    21    1
    35    35    22    1
    36    36    22    1
    37    37    22    1
    38    38    12    1
    39    39     1    1
    40    40     1    1
    41    41    40    1
    42    42    41    2
    43    43    39   ar
    44    44    43   ar
    45    45    38   ar
    46    46    45    1
    47    47    46    1
    48    48    46    1
    49    49    46    1
    50    50    44    1
    51    51    43    1
    52    52    51    1
    53    53    51    1
    54    54    51    1
    55    14    15   ar
    56    19    20   ar
    57    38    39   ar
    58    44    45   ar
    59    55    56    1
    60    56    57    1
    61    57    64    1
    62    58    55    1
    63    59    58    1
    64    60    55    1
    65    61    60    1
    66    62    56    1
    67    63    56    1
    68    65    57    1
    69    66    57    1
    70    67    58    1
    71    68    58    1
    72    69    59    1
    73    70    59    1
    74    71    59    1
    75    72    60    1
    76    73    60    1
    77    74    61    1
    78    75    61    1
    79    76    61    1
    80    77    55    1
    81    78    77    1
    82    79    78    1
    83    80    78    1
    84    81    78    1
    85    82    77    1
    86    83    77    1
@<TRIPOS>SUBSTRUCTURE
     1 RES1        1 GROUP             0 ****  ****    0  
     2 RES2       55 GROUP             0 ****  ****    0  
@<TRIPOS>CRYSIN
   15.6230   12.1890   10.0640   90.0000  125.7500   90.0000     8     1
