@<TRIPOS>MOLECULE
PUQWOO
    79    80     3     0     0
SMALL
USER_CHARGES
****
Generated from the CSD

@<TRIPOS>ATOM
     1 Fe1      8.8249   2.6167   0.1001   Fe        1 RES1   2.0000
     2 O1       7.6822   4.1881   0.9424   O.3       1 RES1   0.0000
     3 O2       9.9655   1.0488  -0.7941   O.3       1 RES1   0.0000
     4 O3       7.6794   1.0211   0.9097   O.3       1 RES1   0.0000
     5 O4       9.9536   4.2322  -0.7056   O.3       1 RES1   0.0000
     6 O5       9.9743   2.6071   1.8483   O.3       1 RES1   0.0000
     7 O6       7.6347   2.6149  -1.6076   O.3       1 RES1   0.0000
     8 H1       6.8697   4.1355   1.3352   H         1 RES1   0.0000
     9 H2       8.0844   4.8177   1.3763   H         1 RES1   0.0000
    10 H3       9.5743   0.3766  -1.2139   H         1 RES1   0.0000
    11 H4      10.3585   1.4851  -1.4361   H         1 RES1   0.0000
    12 H5       8.0806   0.3055   1.2822   H         1 RES1   0.0000
    13 H6       7.5098   1.4851   1.6139   H         1 RES1   0.0000
    14 H7      10.7112   4.1710  -1.2070   H         1 RES1   0.0000
    15 H8       9.4824   4.7750  -1.1164   H         1 RES1   0.0000
    16 H9      10.4214   1.8191   2.0858   H         1 RES1   0.0000
    17 H10     10.6512   3.0412   1.5404   H         1 RES1   0.0000
    18 H11      7.1948   1.8546  -1.8977   H         1 RES1   0.0000
    19 H12      6.9665   3.1052  -1.3746   H         1 RES1   0.0000
    20 S1      -0.0383   2.6331  14.2387   S.o2      2 RES2   0.0000
    21 O7      -0.8023   3.8015  14.6540   O.3       2 RES2  -1.0000
    22 O8       1.3056   2.6227  14.7974   O.2       2 RES2   0.0000
    23 O9      -0.7617   1.3899  14.4716   O.2       2 RES2   0.0000
    24 O10      0.7366   3.1102   9.7731   O.2       2 RES2   0.0000
    25 C1      -2.2732   3.2452  11.5407   C.3       2 RES2   0.0000
    26 C2      -0.8886   2.5346  11.5063   C.3       2 RES2   0.0000
    27 C3      -0.4035   2.9148  10.1017   C.2       2 RES2   0.0000
    28 C4      -1.6372   3.0029   9.2180   C.3       2 RES2   0.0000
    29 H13     -1.5878   2.3676   8.4611   H         2 RES2   0.0000
    30 H14     -1.7682   3.9195   8.8680   H         2 RES2   0.0000
    31 C5      -2.7364   2.6163  10.2010   C.3       2 RES2   0.0000
    32 H15     -3.6544   2.8927   9.9160   H         2 RES2   0.0000
    33 C6      -2.5888   1.1078  10.4638   C.3       2 RES2   0.0000
    34 H16     -2.4922   0.6040   9.6168   H         2 RES2   0.0000
    35 H17     -3.3638   0.7539  10.9657   H         2 RES2   0.0000
    36 C7      -1.2884   1.0374  11.3111   C.3       2 RES2   0.0000
    37 H18     -0.5790   0.5400  10.8324   H         2 RES2   0.0000
    38 H19     -1.4566   0.5983  12.1830   H         2 RES2   0.0000
    39 C8      -2.1550   4.7715  11.4969   C.3       2 RES2   0.0000
    40 H20     -1.4998   5.0294  10.8153   H         2 RES2   0.0000
    41 H21     -1.8625   5.1019  12.3728   H         2 RES2   0.0000
    42 H22     -3.0274   5.1609  11.2752   H         2 RES2   0.0000
    43 C9      -3.2075   2.8664  12.6904   C.3       2 RES2   0.0000
    44 H23     -3.1320   1.9057  12.8703   H         2 RES2   0.0000
    45 H24     -4.1318   3.0810  12.4446   H         2 RES2   0.0000
    46 H25     -2.9577   3.3688  13.4943   H         2 RES2   0.0000
    47 C10      0.2330   2.8039  12.4937   C.3       2 RES2   0.0000
    48 H26      0.5453   3.7298  12.3352   H         2 RES2   0.0000
    49 H27      0.9830   2.2035  12.2548   H         2 RES2   0.0000
    50 S2       4.5488   2.6096   2.5886   S.o2      3 RES3   0.0000
    51 O11      3.1521   2.6263   2.1690   O.3       3 RES3  -1.0000
    52 O12      5.2456   1.4020   2.1906   O.2       3 RES3   0.0000
    53 O13      5.2688   3.8136   2.1808   O.2       3 RES3   0.0000
    54 O14      4.9246   0.8804   6.5856   O.2       3 RES3   0.0000
    55 C11      6.2439   3.9927   5.7927   C.3       3 RES3   0.0000
    56 C12      5.8056   2.6469   5.1326   C.3       3 RES3   0.0000
    57 C13      5.7094   1.7580   6.3844   C.2       3 RES3   0.0000
    58 C14      6.8301   2.2234   7.3178   C.3       3 RES3   0.0000
    59 H28      7.4790   1.4972   7.4917   H         3 RES3   0.0000
    60 H29      6.4683   2.5517   8.1790   H         3 RES3   0.0000
    61 C15      7.4667   3.3624   6.5061   C.3       3 RES3   0.0000
    62 H30      8.0077   4.0062   7.0489   H         3 RES3   0.0000
    63 C16      8.2394   2.6838   5.3699   C.3       3 RES3   0.0000
    64 H31      8.7958   1.9399   5.7120   H         3 RES3   0.0000
    65 H32      8.8202   3.3312   4.8965   H         3 RES3   0.0000
    66 C17      7.1130   2.1573   4.4390   C.3       3 RES3   0.0000
    67 H33      7.1343   1.1696   4.3784   H         3 RES3   0.0000
    68 H34      7.1962   2.5389   3.5287   H         3 RES3   0.0000
    69 C18      5.2242   4.5718   6.7552   C.3       3 RES3   0.0000
    70 H35      4.5095   5.0117   6.2488   H         3 RES3   0.0000
    71 H36      5.6623   5.2270   7.3379   H         3 RES3   0.0000
    72 H37      4.8442   3.8520   7.3002   H         3 RES3   0.0000
    73 C19      6.6285   5.0941   4.8105   C.3       3 RES3   0.0000
    74 H38      7.2566   4.7374   4.1493   H         3 RES3   0.0000
    75 H39      7.0513   5.8331   5.2965   H         3 RES3   0.0000
    76 H40      5.8252   5.4209   4.3545   H         3 RES3   0.0000
    77 C20      4.4894   2.6199   4.3545   C.3       3 RES3   0.0000
    78 H41      3.9603   3.4100   4.6315   H         3 RES3   0.0000
    79 H42      3.9862   1.8176   4.6434   H         3 RES3   0.0000
@<TRIPOS>BOND
     1     1     2    1
     2     2     8    1
     3     3     1    1
     4     4     1    1
     5     5     1    1
     6     6     1    1
     7     7     1    1
     8     9     2    1
     9    10     3    1
    10    11     3    1
    11    12     4    1
    12    13     4    1
    13    14     5    1
    14    15     5    1
    15    16     6    1
    16    17     6    1
    17    18     7    1
    18    19     7    1
    19    20    21    1
    20    22    20    2
    21    23    20    2
    22    24    27    2
    23    25    26    1
    24    26    27    1
    25    27    28    1
    26    28    29    1
    27    30    28    1
    28    31    25    1
    29    32    31    1
    30    33    31    1
    31    34    33    1
    32    35    33    1
    33    36    26    1
    34    37    36    1
    35    38    36    1
    36    39    25    1
    37    40    39    1
    38    41    39    1
    39    42    39    1
    40    43    25    1
    41    44    43    1
    42    45    43    1
    43    46    43    1
    44    47    20    1
    45    48    47    1
    46    49    47    1
    47    26    47    1
    48    28    31    1
    49    33    36    1
    50    50    51    1
    51    52    50    2
    52    53    50    2
    53    54    57    2
    54    55    56    1
    55    56    57    1
    56    57    58    1
    57    58    59    1
    58    60    58    1
    59    61    55    1
    60    62    61    1
    61    63    61    1
    62    64    63    1
    63    65    63    1
    64    66    56    1
    65    67    66    1
    66    68    66    1
    67    69    55    1
    68    70    69    1
    69    71    69    1
    70    72    69    1
    71    73    55    1
    72    74    73    1
    73    75    73    1
    74    76    73    1
    75    77    50    1
    76    78    77    1
    77    79    77    1
    78    56    77    1
    79    58    61    1
    80    63    66    1
@<TRIPOS>SUBSTRUCTURE
     1 RES1        1 GROUP             0 ****  ****    0  
     2 RES2       20 GROUP             0 ****  ****    0  
     3 RES3       50 GROUP             0 ****  ****    0  
@<TRIPOS>CRYSIN
   11.6413    7.1057   17.1401   90.0000   94.0840   90.0000     4     1
