@<TRIPOS>MOLECULE
PURYAF
   152   162     4     0     0
SMALL
USER_CHARGES
****
Generated from the CSD

@<TRIPOS>ATOM
     1 Fe1      7.1593   2.1186  10.2826   Fe        1 RES1   2.0000
     2 N1       5.7997   0.8208  10.5978   N.ar      1 RES1   0.0000
     3 N2       4.5993   2.5445  11.3468   N.pl3     1 RES1   0.0000
     4 N3       5.4608   4.4856  11.4666   N.pl3     1 RES1   0.0000
     5 N4       2.9184  -2.0597  11.3423   N.pl3     1 RES1   0.0000
     6 N5       7.2356  -0.6184   9.6648   N.pl3     1 RES1   0.0000
     7 N6       9.1292   0.0616   8.9846   N.pl3     1 RES1   0.0000
     8 N7       5.8255   2.3422   7.4674   N.pl3     1 RES1   0.0000
     9 N8       7.4977   3.5889   7.9314   N.pl3     1 RES1   0.0000
    10 N9       9.2213   2.9782  11.9837   N.pl3     1 RES1   0.0000
    11 N10      8.2232   1.5151  13.1636   N.pl3     1 RES1   0.0000
    12 N11      8.4932   3.4255   9.9202   N.ar      1 RES1   0.0000
    13 N12     11.3451   6.3275   9.1152   N.pl3     1 RES1   0.0000
    14 C1       5.9693  -0.4684  10.2439   C.ar      1 RES1   0.0000
    15 C2       5.0339  -1.4377  10.4313   C.ar      1 RES1   0.0000
    16 H1       5.1952  -2.3291  10.1438   H         1 RES1   0.0000
    17 C3       3.8277  -1.0962  11.0585   C.ar      1 RES1   0.0000
    18 C4       3.6177   0.2693  11.3925   C.ar      1 RES1   0.0000
    19 H2       2.8051   0.5551  11.7949   H         1 RES1   0.0000
    20 C5       4.6099   1.1527  11.1210   C.ar      1 RES1   0.0000
    21 C6       5.7656   3.2258  11.0816   C.3       1 RES1   0.0000
    22 C7       4.1567   4.6004  11.9302   C.2       1 RES1   0.0000
    23 C8       3.5500   5.9080  12.3619   C.3       1 RES1   0.0000
    24 H3       2.6739   5.7425  12.7691   H         1 RES1   0.0000
    25 H4       3.4430   6.4917  11.5824   H         1 RES1   0.0000
    26 H5       4.1376   6.3404  13.0161   H         1 RES1   0.0000
    27 C9       3.6108   3.3762  11.8514   C.2       1 RES1   0.0000
    28 H6       2.7264   3.1295  12.0932   H         1 RES1   0.0000
    29 C10      6.4134   5.6090  11.3979   C.3       1 RES1   0.0000
    30 H7       7.2643   5.2931  11.0291   H         1 RES1   0.0000
    31 H8       6.5599   5.9676  12.2979   H         1 RES1   0.0000
    32 H9       6.0475   6.3117  10.8214   H         1 RES1   0.0000
    33 C11      1.5785  -1.7481  11.8949   C.3       1 RES1   0.0000
    34 H10      1.3916  -0.7853  11.7615   H         1 RES1   0.0000
    35 H11      1.5854  -1.9219  12.8700   H         1 RES1   0.0000
    36 C12      0.4790  -2.5517  11.2635   C.ar      1 RES1   0.0000
    37 C13      0.3095  -2.5450   9.8990   C.ar      1 RES1   0.0000
    38 H12      0.9060  -2.0425   9.3569   H         1 RES1   0.0000
    39 C14     -0.7163  -3.2582   9.3044   C.ar      1 RES1   0.0000
    40 H13     -0.8155  -3.2714   8.3597   H         1 RES1   0.0000
    41 C15     -1.5913  -3.9527  10.1176   C.ar      1 RES1   0.0000
    42 H14     -2.3159  -4.4187   9.7163   H         1 RES1   0.0000
    43 C16     -1.4577  -3.9940  11.4726   C.ar      1 RES1   0.0000
    44 H15     -2.0586  -4.4985  12.0081   H         1 RES1   0.0000
    45 C17     -0.4029  -3.2711  12.0578   C.ar      1 RES1   0.0000
    46 H16     -0.2934  -3.2734  13.0010   H         1 RES1   0.0000
    47 C18      3.2452  -3.4635  11.1345   C.3       1 RES1   0.0000
    48 H17      3.4173  -3.6031  10.1702   H         1 RES1   0.0000
    49 H18      2.4511  -4.0051  11.3742   H         1 RES1   0.0000
    50 C19      4.4372  -4.0024  11.9125   C.ar      1 RES1   0.0000
    51 C20      4.9818  -5.1918  11.4916   C.ar      1 RES1   0.0000
    52 H19      4.6208  -5.6350  10.7330   H         1 RES1   0.0000
    53 C21      6.0627  -5.7541  12.1718   C.ar      1 RES1   0.0000
    54 H20      6.4299  -6.5813  11.8828   H         1 RES1   0.0000
    55 C22      6.5960  -5.1032  13.2689   C.ar      1 RES1   0.0000
    56 H21      7.3325  -5.4784  13.7350   H         1 RES1   0.0000
    57 C23      6.0579  -3.9148  13.6775   C.ar      1 RES1   0.0000
    58 H22      6.4230  -3.4667  14.4317   H         1 RES1   0.0000
    59 C24      4.9926  -3.3631  13.0082   C.ar      1 RES1   0.0000
    60 H23      4.6336  -2.5331  13.3001   H         1 RES1   0.0000
    61 C25      7.8478  -1.7154   9.0993   C.2       1 RES1   0.0000
    62 H24      7.4940  -2.5945   9.0333   H         1 RES1   0.0000
    63 C26      9.0436  -1.2934   8.6594   C.2       1 RES1   0.0000
    64 C27     10.3049   0.9025   8.7124   C.3       1 RES1   0.0000
    65 H25     10.3003   1.1760   7.7712   H         1 RES1   0.0000
    66 H26     11.1210   0.3947   8.9013   H         1 RES1   0.0000
    67 H27     10.2762   1.6990   9.2835   H         1 RES1   0.0000
    68 C28      8.0152   0.5097   9.5963   C.3       1 RES1   0.0000
    69 C29     10.1125  -2.0299   7.9249   C.3       1 RES1   0.0000
    70 H28      9.8721  -2.9784   7.8638   H         1 RES1   0.0000
    71 H29     10.9617  -1.9384   8.4043   H         1 RES1   0.0000
    72 H30     10.2044  -1.6581   7.0227   H         1 RES1   0.0000
    73 C30      6.6741   2.6154   8.4707   C.3       1 RES1   0.0000
    74 C31      6.1209   3.0904   6.3201   C.2       1 RES1   0.0000
    75 C32      7.1619   3.8799   6.6202   C.2       1 RES1   0.0000
    76 H31      7.5827   4.5110   6.0493   H         1 RES1   0.0000
    77 C33      8.5354   4.0647   8.7409   C.ar      1 RES1   0.0000
    78 C34      9.4541   5.0162   8.4205   C.ar      1 RES1   0.0000
    79 H32      9.4418   5.4343   7.5682   H         1 RES1   0.0000
    80 C35     10.4263   5.3650   9.3858   C.ar      1 RES1   0.0000
    81 C36     10.3957   4.6886  10.6240   C.ar      1 RES1   0.0000
    82 H33     11.0378   4.8806  11.2973   H         1 RES1   0.0000
    83 C37      9.4280   3.7534  10.8331   C.ar      1 RES1   0.0000
    84 C38      9.8884   2.9348  13.1955   C.2       1 RES1   0.0000
    85 H34     10.6430   3.4540  13.4478   H         1 RES1   0.0000
    86 C39      9.2653   2.0160  13.9423   C.2       1 RES1   0.0000
    87 C40      9.5190   1.5692  15.3217   C.3       1 RES1   0.0000
    88 H35     10.3207   2.0136  15.6672   H         1 RES1   0.0000
    89 H36      9.6535   0.5984  15.3309   H         1 RES1   0.0000
    90 H37      8.7501   1.7973  15.8854   H         1 RES1   0.0000
    91 C41      7.2868   0.4722  13.6178   C.3       1 RES1   0.0000
    92 H38      6.5513   0.3900  12.9753   H         1 RES1   0.0000
    93 H39      6.9264   0.7162  14.4965   H         1 RES1   0.0000
    94 H40      7.7584  -0.3844  13.6855   H         1 RES1   0.0000
    95 C42      8.1654   2.0848  11.9465   C.3       1 RES1   0.0000
    96 C43     11.0620   7.2717   8.0322   C.3       1 RES1   0.0000
    97 H41     11.0358   6.7736   7.1773   H         1 RES1   0.0000
    98 H42     11.8070   7.9216   7.9771   H         1 RES1   0.0000
    99 C44      9.7756   8.0285   8.1870   C.ar      1 RES1   0.0000
   100 C45      9.3006   8.4202   9.4279   C.ar      1 RES1   0.0000
   101 H43      9.8063   8.2181  10.2066   H         1 RES1   0.0000
   102 C46      8.1119   9.0914   9.5542   C.ar      1 RES1   0.0000
   103 H44      7.8039   9.3527  10.4134   H         1 RES1   0.0000
   104 C47      7.3557   9.3915   8.4273   C.ar      1 RES1   0.0000
   105 H45      6.5360   9.8631   8.5123   H         1 RES1   0.0000
   106 C48      7.8068   8.9975   7.1823   C.ar      1 RES1   0.0000
   107 H46      7.2883   9.1902   6.4096   H         1 RES1   0.0000
   108 C49      9.0040   8.3247   7.0560   C.ar      1 RES1   0.0000
   109 H47      9.3089   8.0607   6.1950   H         1 RES1   0.0000
   110 C50     12.4289   6.6012  10.0918   C.3       1 RES1   0.0000
   111 H48     12.7375   5.7469  10.4855   H         1 RES1   0.0000
   112 H49     12.0737   7.1640  10.8246   H         1 RES1   0.0000
   113 C51     13.5842   7.2953   9.4537   C.ar      1 RES1   0.0000
   114 C52     13.8808   8.6208   9.7402   C.ar      1 RES1   0.0000
   115 H50     13.3779   9.0846  10.4004   H         1 RES1   0.0000
   116 C53     14.8970   9.2691   9.0735   C.ar      1 RES1   0.0000
   117 H51     15.0726  10.1819   9.2665   H         1 RES1   0.0000
   118 C54     15.6371   8.6379   8.1652   C.ar      1 RES1   0.0000
   119 H52     16.3479   9.0899   7.7252   H         1 RES1   0.0000
   120 C55     15.3624   7.3354   7.8761   C.ar      1 RES1   0.0000
   121 H53     15.8766   6.8818   7.2179   H         1 RES1   0.0000
   122 C56     14.3519   6.6706   8.5223   C.ar      1 RES1   0.0000
   123 H54     14.1864   5.7590   8.3156   H         1 RES1   0.0000
   124 C57      5.4305   2.8876   5.0194   C.3       1 RES1   0.0000
   125 H55      5.7428   3.5592   4.3762   H         1 RES1   0.0000
   126 H56      4.4633   2.9810   5.1440   H         1 RES1   0.0000
   127 H57      5.6319   1.9917   4.6786   H         1 RES1   0.0000
   128 C58      4.7695   1.3321   7.5502   C.3       1 RES1   0.0000
   129 H58      5.1615   0.4407   7.4443   H         1 RES1   0.0000
   130 H59      4.1130   1.4874   6.8392   H         1 RES1   0.0000
   131 H60      4.3269   1.3935   8.4224   H         1 RES1   0.0000
   132 P1       9.5096   7.9225  13.5771   P.3       2 RES2  -1.0000
   133 F1       9.7669   6.4299  13.8024   F         2 RES2   0.0000
   134 F2      10.7550   8.0511  12.6212   F         2 RES2   0.0000
   135 F3       8.5768   7.5935  12.4067   F         2 RES2   0.0000
   136 F1A      9.2523   9.4151  13.3517   F         2 RES2   0.0000
   137 F2A      8.2643   7.7938  14.5329   F         2 RES2   0.0000
   138 F3A     10.4425   8.2515  14.7474   F         2 RES2   0.0000
   139 P2       4.3121  11.6222   6.7885   P.3       3 RES3  -1.0000
   140 F4       2.7372  11.5813   7.0218   F         3 RES3   0.0000
   141 F5       4.3049  10.0573   6.4515   F         3 RES3   0.0000
   142 F6       4.5512  11.2828   8.3343   F         3 RES3   0.0000
   143 F4A      5.8871  11.6630   6.5553   F         3 RES3   0.0000
   144 F5A      4.3194  13.1870   7.1255   F         3 RES3   0.0000
   145 F6A      4.0731  11.9616   5.2428   F         3 RES3   0.0000
   146 P3       0.0143   2.0656  10.0694   P.3       4 RES4  -1.0000
   147 F7       1.4116   1.7144   9.3976   F         4 RES4   0.0000
   148 F8       0.4773   3.5724  10.2204   F         4 RES4   0.0000
   149 F9      -1.3756   2.4243  10.7677   F         4 RES4   0.0000
   150 F10     -0.5976   2.3715   8.6343   F         4 RES4   0.0000
   151 F11     -0.4550   0.5680   9.9453   F         4 RES4   0.0000
   152 F12      0.6355   1.7477  11.5235   F         4 RES4   0.0000
@<TRIPOS>BOND
     1     1     2    1
     2     2    14   ar
     3     3    20    1
     4     4    21    1
     5     5    17    1
     6     6    14    1
     7     7    63    1
     8     8    73    1
     9     9    73    1
    10    10    83    1
    11    11    86    1
    12    12     1    1
    13    13    80    1
    14    14    15   ar
    15    15    16    1
    16    17    15   ar
    17    18    17   ar
    18    19    18    1
    19    20     2   ar
    20    21     1    1
    21    22     4    1
    22    23    22    1
    23    24    23    1
    24    25    23    1
    25    26    23    1
    26    27     3    1
    27    28    27    1
    28    29     4    1
    29    30    29    1
    30    31    29    1
    31    32    29    1
    32    33     5    1
    33    34    33    1
    34    35    33    1
    35    36    33    1
    36    37    36   ar
    37    38    37    1
    38    39    37   ar
    39    40    39    1
    40    41    39   ar
    41    42    41    1
    42    43    41   ar
    43    44    43    1
    44    45    36   ar
    45    46    45    1
    46    47     5    1
    47    48    47    1
    48    49    47    1
    49    50    47    1
    50    51    50   ar
    51    52    51    1
    52    53    51   ar
    53    54    53    1
    54    55    53   ar
    55    56    55    1
    56    57    55   ar
    57    58    57    1
    58    59    50   ar
    59    60    59    1
    60    61     6    1
    61    62    61    1
    62    63    61    2
    63    64     7    1
    64    65    64    1
    65    66    64    1
    66    67    64    1
    67    68     1    1
    68    69    63    1
    69    70    69    1
    70    71    69    1
    71    72    69    1
    72    73     1    1
    73    74     8    1
    74    75     9    1
    75    76    75    1
    76    77     9    1
    77    78    77   ar
    78    79    78    1
    79    80    78   ar
    80    81    80   ar
    81    82    81    1
    82    83    12   ar
    83    84    10    1
    84    85    84    1
    85    86    84    2
    86    87    86    1
    87    88    87    1
    88    89    87    1
    89    90    87    1
    90    91    11    1
    91    92    91    1
    92    93    91    1
    93    94    91    1
    94    95     1    1
    95    96    13    1
    96    97    96    1
    97    98    96    1
    98    99    96    1
    99   100    99   ar
   100   101   100    1
   101   102   100   ar
   102   103   102    1
   103   104   102   ar
   104   105   104    1
   105   106   104   ar
   106   107   106    1
   107   108    99   ar
   108   109   108    1
   109   110    13    1
   110   111   110    1
   111   112   110    1
   112   113   110    1
   113   114   113   ar
   114   115   114    1
   115   116   114   ar
   116   117   116    1
   117   118   116   ar
   118   119   118    1
   119   120   118   ar
   120   121   120    1
   121   122   113   ar
   122   123   122    1
   123   124    74    1
   124   125   124    1
   125   126   124    1
   126   127   124    1
   127   128     8    1
   128   129   128    1
   129   130   128    1
   130   131   128    1
   131     3    21    1
   132     6    68    1
   133     7    68    1
   134    10    95    1
   135    11    95    1
   136    12    77   ar
   137    18    20   ar
   138    22    27    2
   139    43    45   ar
   140    57    59   ar
   141    74    75    2
   142    81    83   ar
   143   106   108   ar
   144   120   122   ar
   145   132   133    1
   146   134   132    1
   147   135   132    1
   148   136   132    1
   149   137   132    1
   150   138   132    1
   151   139   140    1
   152   141   139    1
   153   142   139    1
   154   143   139    1
   155   144   139    1
   156   145   139    1
   157   146   147    1
   158   148   146    1
   159   149   146    1
   160   150   146    1
   161   151   146    1
   162   152   146    1
@<TRIPOS>SUBSTRUCTURE
     1 RES1        1 GROUP             0 ****  ****    0  
     2 RES2      132 GROUP             0 ****  ****    0  
     3 RES3      139 GROUP             0 ****  ****    0  
     4 RES4      146 GROUP             0 ****  ****    0  
@<TRIPOS>CRYSIN
   14.0410   15.3474   15.8865  116.8560  103.2680   93.3070     2     1
