@<TRIPOS>MOLECULE
PUSBAJ
   126   138     2     0     0
SMALL
USER_CHARGES
****
Generated from the CSD

@<TRIPOS>ATOM
     1 Fe1      0.0000   8.5155   9.0850   Fe        1 RES1   2.0000
     2 N1       1.3318  10.1624  11.3435   N.pl3     1 RES1   0.0000
     3 N2       2.3213   8.4355  10.6204   N.pl3     1 RES1   0.0000
     4 N3       1.3267   7.1888   9.0850   N.ar      1 RES1   0.0000
     5 N4       4.2850   4.2305   9.0850   N.pl3     1 RES1   0.0000
     6 C1       1.1905   9.2036  10.4350   C.3       1 RES1   0.0000
     7 C2       0.3406  11.1962  11.5925   C.3       1 RES1   0.0000
     8 H1      -0.0944  11.4414  10.7496   H         1 RES1   0.0000
     9 H2       0.7809  11.9851  11.9742   H         1 RES1   0.0000
    10 H3      -0.3306  10.8607  12.2220   H         1 RES1   0.0000
    11 C3       2.5019  10.0074  12.0612   C.2       1 RES1   0.0000
    12 H4       2.8172  10.5852  12.7477   H         1 RES1   0.0000
    13 C4       3.1082   8.9157  11.6270   C.2       1 RES1   0.0000
    14 H5       3.9210   8.5427  11.9473   H         1 RES1   0.0000
    15 C5       2.4388   7.2756   9.8536   C.ar      1 RES1   0.0000
    16 C6       3.4488   6.3662   9.8518   C.ar      1 RES1   0.0000
    17 H6       4.2361   6.5115  10.3624   H         1 RES1   0.0000
    18 C7       3.2989   5.2166   9.0850   C.ar      1 RES1   0.0000
    19 C8       5.6339   4.5677   9.4157   C.3       1 RES1   0.0000
    20 H7       6.1452   3.7288   9.5382   H         1 RES1   0.0000
    21 H8       5.6336   5.0453  10.2830   H         1 RES1   0.0000
    22 C9       6.3253   5.3903   8.4345   C.ar      1 RES1   0.0000
    23 C10      5.7531   5.7394   7.2498   C.ar      1 RES1   0.0000
    24 H9       4.8727   5.4348   7.0616   H         1 RES1   0.0000
    25 C11      6.3832   6.5007   6.3268   C.ar      1 RES1   0.0000
    26 H10      5.9047   6.7563   5.5480   H         1 RES1   0.0000
    27 C12      7.6129   6.9027   6.4558   C.ar      1 RES1   0.0000
    28 H11      8.0537   7.3977   5.7750   H         1 RES1   0.0000
    29 C13      8.2481   6.5620   7.6459   C.ar      1 RES1   0.0000
    30 H12      9.1428   6.8550   7.7731   H         1 RES1   0.0000
    31 C14      7.6657   5.8416   8.6326   C.ar      1 RES1   0.0000
    32 H13      8.1368   5.6403   9.4332   H         1 RES1   0.0000
    33 N1O     -1.6469   7.1837   6.8265   N.pl3     1 RES1   0.0000
    34 N2O      0.0800   6.1942   7.5496   N.pl3     1 RES1   0.0000
    35 C1O     -0.6881   7.3250   7.7350   C.3       1 RES1   0.0000
    36 C2O     -2.6807   8.1749   6.5775   C.3       1 RES1   0.0000
    37 H1O     -2.9259   8.6099   7.4204   H         1 RES1   0.0000
    38 H2O     -3.4696   7.7346   6.1958   H         1 RES1   0.0000
    39 H3O     -2.3452   8.8461   5.9480   H         1 RES1   0.0000
    40 C3O     -1.4919   6.0136   6.1088   C.2       1 RES1   0.0000
    41 H4O     -2.0697   5.6983   5.4223   H         1 RES1   0.0000
    42 C4O     -0.4002   5.4073   6.5430   C.2       1 RES1   0.0000
    43 H5O     -0.0272   4.5945   6.2227   H         1 RES1   0.0000
    44 C5O      1.2399   6.0767   8.3164   C.ar      1 RES1   0.0000
    45 C6O      2.1493   5.0667   8.3182   C.ar      1 RES1   0.0000
    46 H6O      2.0040   4.2794   7.8076   H         1 RES1   0.0000
    47 C8O      3.9478   2.8816   8.7543   C.3       1 RES1   0.0000
    48 H7O      4.7867   2.3703   8.6318   H         1 RES1   0.0000
    49 H8O      3.4702   2.8819   7.8870   H         1 RES1   0.0000
    50 C9O      3.1252   2.1902   9.7355   C.ar      1 RES1   0.0000
    51 C10O     2.7761   2.7624  10.9202   C.ar      1 RES1   0.0000
    52 H9O      3.0807   3.6428  11.1084   H         1 RES1   0.0000
    53 C11O     2.0148   2.1323  11.8432   C.ar      1 RES1   0.0000
    54 H10O     1.7592   2.6108  12.6220   H         1 RES1   0.0000
    55 C12O     1.6128   0.9026  11.7142   C.ar      1 RES1   0.0000
    56 H11O     1.1178   0.4618  12.3950   H         1 RES1   0.0000
    57 C13O     1.9535   0.2674  10.5241   C.ar      1 RES1   0.0000
    58 H12O     1.6605  -0.6273  10.3969   H         1 RES1   0.0000
    59 C14O     2.6739   0.8498   9.5374   C.ar      1 RES1   0.0000
    60 H13O     2.8752   0.3787   8.7368   H         1 RES1   0.0000
    61 N1A     -1.3318   6.8686  11.3435   N.pl3     1 RES1   0.0000
    62 N2A     -2.3213   8.5955  10.6204   N.pl3     1 RES1   0.0000
    63 N3A     -1.3267   9.8422   9.0850   N.ar      1 RES1   0.0000
    64 N4A     -4.2850  12.8005   9.0850   N.pl3     1 RES1   0.0000
    65 C1A     -1.1905   7.8274  10.4350   C.3       1 RES1   0.0000
    66 C2A     -0.3406   5.8348  11.5925   C.3       1 RES1   0.0000
    67 H1A      0.0944   5.5896  10.7496   H         1 RES1   0.0000
    68 H2A     -0.7809   5.0459  11.9742   H         1 RES1   0.0000
    69 H3A      0.3306   6.1703  12.2220   H         1 RES1   0.0000
    70 C3A     -2.5019   7.0236  12.0612   C.2       1 RES1   0.0000
    71 H4A     -2.8172   6.4458  12.7477   H         1 RES1   0.0000
    72 C4A     -3.1082   8.1153  11.6270   C.2       1 RES1   0.0000
    73 H5A     -3.9210   8.4883  11.9473   H         1 RES1   0.0000
    74 C5A     -2.4388   9.7554   9.8536   C.ar      1 RES1   0.0000
    75 C6A     -3.4488  10.6648   9.8518   C.ar      1 RES1   0.0000
    76 H6A     -4.2361  10.5195  10.3624   H         1 RES1   0.0000
    77 C7A     -3.2989  11.8144   9.0850   C.ar      1 RES1   0.0000
    78 C8A     -5.6339  12.4633   9.4157   C.3       1 RES1   0.0000
    79 H7A     -6.1452  13.3022   9.5382   H         1 RES1   0.0000
    80 H8A     -5.6336  11.9857  10.2830   H         1 RES1   0.0000
    81 C9A     -6.3253  11.6407   8.4345   C.ar      1 RES1   0.0000
    82 C10A    -5.7531  11.2916   7.2498   C.ar      1 RES1   0.0000
    83 H9A     -4.8727  11.5962   7.0616   H         1 RES1   0.0000
    84 C11A    -6.3832  10.5303   6.3268   C.ar      1 RES1   0.0000
    85 H10A    -5.9047  10.2747   5.5480   H         1 RES1   0.0000
    86 C12A    -7.6129  10.1283   6.4558   C.ar      1 RES1   0.0000
    87 H11A    -8.0537   9.6333   5.7750   H         1 RES1   0.0000
    88 C13A    -8.2481  10.4690   7.6459   C.ar      1 RES1   0.0000
    89 H12A    -9.1428  10.1760   7.7731   H         1 RES1   0.0000
    90 C14A    -7.6657  11.1894   8.6326   C.ar      1 RES1   0.0000
    91 H13A    -8.1368  11.3907   9.4332   H         1 RES1   0.0000
    92 N1N      1.6469   9.8473   6.8265   N.pl3     1 RES1   0.0000
    93 N2N     -0.0800  10.8368   7.5496   N.pl3     1 RES1   0.0000
    94 C1N      0.6881   9.7060   7.7350   C.3       1 RES1   0.0000
    95 C2N      2.6807   8.8561   6.5775   C.3       1 RES1   0.0000
    96 H1N      2.9259   8.4211   7.4204   H         1 RES1   0.0000
    97 H2N      3.4696   9.2964   6.1958   H         1 RES1   0.0000
    98 H3N      2.3452   8.1849   5.9480   H         1 RES1   0.0000
    99 C3N      1.4919  11.0174   6.1088   C.2       1 RES1   0.0000
   100 H4N      2.0697  11.3327   5.4223   H         1 RES1   0.0000
   101 C4N      0.4002  11.6237   6.5430   C.2       1 RES1   0.0000
   102 H5N      0.0272  12.4365   6.2227   H         1 RES1   0.0000
   103 C5N     -1.2399  10.9543   8.3164   C.ar      1 RES1   0.0000
   104 C6N     -2.1493  11.9643   8.3182   C.ar      1 RES1   0.0000
   105 H6N     -2.0040  12.7516   7.8076   H         1 RES1   0.0000
   106 C8N     -3.9478  14.1494   8.7543   C.3       1 RES1   0.0000
   107 H7N     -4.7867  14.6607   8.6318   H         1 RES1   0.0000
   108 H8N     -3.4702  14.1491   7.8870   H         1 RES1   0.0000
   109 C9N     -3.1252  14.8408   9.7355   C.ar      1 RES1   0.0000
   110 C10N    -2.7761  14.2686  10.9202   C.ar      1 RES1   0.0000
   111 H9N     -3.0807  13.3882  11.1084   H         1 RES1   0.0000
   112 C11N    -2.0148  14.8987  11.8432   C.ar      1 RES1   0.0000
   113 H10N    -1.7592  14.4202  12.6220   H         1 RES1   0.0000
   114 C12N    -1.6128  16.1284  11.7142   C.ar      1 RES1   0.0000
   115 H11N    -1.1178  16.5692  12.3950   H         1 RES1   0.0000
   116 C13N    -1.9535  16.7636  10.5241   C.ar      1 RES1   0.0000
   117 H12N    -1.6605  17.6583  10.3969   H         1 RES1   0.0000
   118 C14N    -2.6739  16.1812   9.5374   C.ar      1 RES1   0.0000
   119 H13N    -2.8752  16.6523   8.7368   H         1 RES1   0.0000
   120 P1       5.5986   5.5986  13.6275   P.3       2 RES2  -1.0000
   121 F1       6.0426   6.5723  14.7013   F         2 RES2   0.0000
   122 F2       4.6614   6.6217  13.1206   F         2 RES2   0.0000
   123 F3       5.2081   4.5626  12.5900   F         2 RES2   0.0000
   124 F1F      6.5723   6.0426  12.5537   F         2 RES2   0.0000
   125 F2F      6.6217   4.6614  14.1344   F         2 RES2   0.0000
   126 F3F      4.5626   5.2081  14.6650   F         2 RES2   0.0000
@<TRIPOS>BOND
     1     1     4    1
     2     2     6    1
     3     3     6    1
     4     4    15   ar
     5     5    18    1
     6     6     1    1
     7     7     2    1
     8     8     7    1
     9     9     7    1
    10    10     7    1
    11    11     2    1
    12    12    11    1
    13    13     3    1
    14    14    13    1
    15    15     3    1
    16    16    15   ar
    17    17    16    1
    18    18    16   ar
    19    19     5    1
    20    20    19    1
    21    21    19    1
    22    22    19    1
    23    23    22   ar
    24    24    23    1
    25    25    23   ar
    26    26    25    1
    27    27    25   ar
    28    28    27    1
    29    29    27   ar
    30    30    29    1
    31    31    22   ar
    32    32    31    1
    33    33    35    1
    34    34    35    1
    35    35     1    1
    36    36    33    1
    37    37    36    1
    38    38    36    1
    39    39    36    1
    40    40    33    1
    41    41    40    1
    42    42    34    1
    43    43    42    1
    44    44     4   ar
    45    45    18   ar
    46    46    45    1
    47    47     5    1
    48    48    47    1
    49    49    47    1
    50    50    47    1
    51    51    50   ar
    52    52    51    1
    53    53    51   ar
    54    54    53    1
    55    55    53   ar
    56    56    55    1
    57    57    55   ar
    58    58    57    1
    59    59    50   ar
    60    60    59    1
    61    61    65    1
    62    62    65    1
    63    63     1    1
    64    64    77    1
    65    65     1    1
    66    66    61    1
    67    67    66    1
    68    68    66    1
    69    69    66    1
    70    70    61    1
    71    71    70    1
    72    72    62    1
    73    73    72    1
    74    74    62    1
    75    75    74   ar
    76    76    75    1
    77    77    75   ar
    78    78    64    1
    79    79    78    1
    80    80    78    1
    81    81    78    1
    82    82    81   ar
    83    83    82    1
    84    84    82   ar
    85    85    84    1
    86    86    84   ar
    87    87    86    1
    88    88    86   ar
    89    89    88    1
    90    90    81   ar
    91    91    90    1
    92    92    94    1
    93    93    94    1
    94    94     1    1
    95    95    92    1
    96    96    95    1
    97    97    95    1
    98    98    95    1
    99    99    92    1
   100   100    99    1
   101   101    93    1
   102   102   101    1
   103   103    63   ar
   104   104    77   ar
   105   105   104    1
   106   106    64    1
   107   107   106    1
   108   108   106    1
   109   109   106    1
   110   110   109   ar
   111   111   110    1
   112   112   110   ar
   113   113   112    1
   114   114   112   ar
   115   115   114    1
   116   116   114   ar
   117   117   116    1
   118   118   109   ar
   119   119   118    1
   120    11    13    2
   121    29    31   ar
   122    34    44    1
   123    40    42    2
   124    44    45   ar
   125    57    59   ar
   126    63    74   ar
   127    70    72    2
   128    88    90   ar
   129    93   103    1
   130    99   101    2
   131   103   104   ar
   132   116   118   ar
   133   120   121    1
   134   122   120    1
   135   123   120    1
   136   124   120    1
   137   125   120    1
   138   126   120    1
@<TRIPOS>SUBSTRUCTURE
     1 RES1        1 GROUP             0 ****  ****    0  
     2 RES2      120 GROUP             0 ****  ****    0  
@<TRIPOS>CRYSIN
   17.0310   17.0310   18.1700   90.0000   90.0000   90.0000   120     1
