@<TRIPOS>MOLECULE
PUTGOC
    89    93     4     0     0
SMALL
USER_CHARGES
****
Generated from the CSD

@<TRIPOS>ATOM
     1 Fe1      3.4794   4.9765   4.5160   Fe        1 RES1   2.0000
     2 N1       3.4609   4.8211   6.5056   N.ar      1 RES1   0.0000
     3 N2       1.4725   5.1044   4.8263   N.3       1 RES1   0.0000
     4 H1       1.2129   6.0677   4.8271   H         1 RES1   0.0000
     5 H2       1.0905   4.7730   4.0995   H         1 RES1   0.0000
     6 N3       3.4679   2.9691   4.3508   N.ar      1 RES1   0.0000
     7 N4       5.4740   4.6617   4.2930   N.3       1 RES1   0.0000
     8 H3       5.6031   4.7810   3.4281   H         1 RES1   0.0000
     9 H4       6.0369   5.3120   4.6336   H         1 RES1   0.0000
    10 N5       3.3487   5.4037   2.5764   N.ar      1 RES1   0.0000
    11 N6       3.7576   6.9771   4.6507   N.3       1 RES1   0.0000
    12 H5       4.1981   7.2397   5.5266   H         1 RES1   0.0000
    13 H6       3.0896   7.4898   4.8982   H         1 RES1   0.0000
    14 C1       4.4928   5.0241   7.3440   C.ar      1 RES1   0.0000
    15 H7       5.3345   5.2684   6.9769   H         1 RES1   0.0000
    16 C2       4.3761   4.8877   8.7480   C.ar      1 RES1   0.0000
    17 H8       5.1191   5.0585   9.3152   H         1 RES1   0.0000
    18 C3       3.1718   4.5023   9.2705   C.ar      1 RES1   0.0000
    19 H9       3.0785   4.3533  10.2032   H         1 RES1   0.0000
    20 C4       2.0772   4.3326   8.4172   C.ar      1 RES1   0.0000
    21 H10      1.2252   4.0975   8.7662   H         1 RES1   0.0000
    22 C5       2.2564   4.5150   7.0397   C.ar      1 RES1   0.0000
    23 C6       1.1127   4.4209   6.0905   C.3       1 RES1   0.0000
    24 H11      0.9029   3.4702   5.9119   H         1 RES1   0.0000
    25 H12      0.3118   4.8464   6.4874   H         1 RES1   0.0000
    26 C7       2.4039   2.1434   4.1607   C.ar      1 RES1   0.0000
    27 H13      1.5711   2.5344   3.9209   H         1 RES1   0.0000
    28 C8       2.4614   0.7867   4.2913   C.ar      1 RES1   0.0000
    29 H14      1.6827   0.2557   4.1656   H         1 RES1   0.0000
    30 C9       3.6718   0.1950   4.6105   C.ar      1 RES1   0.0000
    31 H15      3.7298  -0.7443   4.7361   H         1 RES1   0.0000
    32 C10      4.7923   0.9908   4.7428   C.ar      1 RES1   0.0000
    33 H16      5.6393   0.6021   4.9214   H         1 RES1   0.0000
    34 C11      4.6622   2.3808   4.6105   C.ar      1 RES1   0.0000
    35 C12      5.8260   3.3039   4.7825   C.3       1 RES1   0.0000
    36 H17      6.0759   3.3498   5.7399   H         1 RES1   0.0000
    37 H18      6.6024   2.9587   4.2764   H         1 RES1   0.0000
    38 C13      2.8794   4.6262   1.6024   C.ar      1 RES1   0.0000
    39 H19      2.5062   3.7833   1.8339   H         1 RES1   0.0000
    40 C14      2.9127   4.9920   0.2729   C.ar      1 RES1   0.0000
    41 H20      2.5718   4.4049  -0.3919   H         1 RES1   0.0000
    42 C15      3.4358   6.2019  -0.0860   C.ar      1 RES1   0.0000
    43 H21      3.4716   6.4714  -0.9972   H         1 RES1   0.0000
    44 C16      3.9198   7.0333   0.9343   C.ar      1 RES1   0.0000
    45 H22      4.3029   7.8774   0.7243   H         1 RES1   0.0000
    46 C17      3.8370   6.6205   2.2308   C.ar      1 RES1   0.0000
    47 C18      4.3177   7.4771   3.3702   C.3       1 RES1   0.0000
    48 H23      5.3072   7.4576   3.4082   H         1 RES1   0.0000
    49 H24      4.0330   8.4152   3.2247   H         1 RES1   0.0000
    50 S1       0.2637   8.7425   5.8998   S.o2      2 RES2   0.0000
    51 O1      -0.5758   9.8739   5.5693   O.2       2 RES2   0.0000
    52 O2      -0.2291   7.4909   5.3568   O.2       2 RES2   0.0000
    53 O3       1.6710   8.9622   5.5557   O.3       2 RES2  -1.0000
    54 N7      -1.3379  10.1056  10.5985   N.pl3     2 RES2   0.0000
    55 H25     -1.3073   9.9164  11.4584   H         2 RES2   0.0000
    56 H26     -1.3542  11.0058  10.3140   H         2 RES2   0.0000
    57 C19      0.2091   8.5804   7.6516   C.ar      2 RES2   0.0000
    58 C20      0.9655   7.5402   8.2254   C.ar      2 RES2   0.0000
    59 H27      1.4884   6.9576   7.6863   H         2 RES2   0.0000
    60 C21      0.9218   7.3923   9.6129   C.ar      2 RES2   0.0000
    61 H28      1.4096   6.6881  10.0246   H         2 RES2   0.0000
    62 C22      0.1927   8.2409  10.3818   C.ar      2 RES2   0.0000
    63 H29      0.1781   8.1148  11.3244   H         2 RES2   0.0000
    64 C23     -0.5380   9.2914   9.8311   C.ar      2 RES2   0.0000
    65 C24     -0.5365   9.4405   8.4404   C.ar      2 RES2   0.0000
    66 H30     -1.0464  10.1320   8.0352   H         2 RES2   0.0000
    67 S2       7.2895   8.1602   6.1927   S.o2      3 RES3   0.0000
    68 O4       6.9812   9.3682   5.4664   O.2       3 RES3   0.0000
    69 O5       6.4029   7.0425   5.8927   O.2       3 RES3   0.0000
    70 O6       8.6924   7.7443   6.0639   O.3       3 RES3  -1.0000
    71 N8       7.0259   6.7925  11.1442   N.pl3     3 RES3   0.0000
    72 H31      7.0842   5.8762  10.7522   H         3 RES3   0.0000
    73 H32      6.7698   6.9416  12.0570   H         3 RES3   0.0000
    74 C25      7.0570   8.5448   7.8947   C.ar      3 RES3   0.0000
    75 C26      6.9060   9.8613   8.2899   C.ar      3 RES3   0.0000
    76 H33      6.8804  10.5586   7.6450   H         3 RES3   0.0000
    77 C27      6.7908  10.1492   9.6509   C.ar      3 RES3   0.0000
    78 H34      6.6966  11.0494   9.9403   H         3 RES3   0.0000
    79 C28      6.8144   9.1331  10.5703   C.ar      3 RES3   0.0000
    80 H35      6.7329   9.3453  11.4931   H         3 RES3   0.0000
    81 C29      6.9527   7.7914  10.1933   C.ar      3 RES3   0.0000
    82 C30      7.0759   7.5138   8.8538   C.ar      3 RES3   0.0000
    83 H36      7.1783   6.6136   8.5710   H         3 RES3   0.0000
    84 O7      10.5663   9.6595   6.7513   O.3       4 RES4   0.0000
    85 H37     10.0459   9.0322   6.5486   H         4 RES4   0.0000
    86 C31     10.5782   9.8281   8.1708   C.3       4 RES4   0.0000
    87 H38     11.2689   9.2558   8.5628   H         4 RES4   0.0000
    88 H39      9.7029   9.5804   8.5363   H         4 RES4   0.0000
    89 H40     10.7676  10.7650   8.3875   H         4 RES4   0.0000
@<TRIPOS>BOND
     1     1     2    1
     2     2    14   ar
     3     3     1    1
     4     4     3    1
     5     5     3    1
     6     6     1    1
     7     7     1    1
     8     8     7    1
     9     9     7    1
    10    10     1    1
    11    11     1    1
    12    12    11    1
    13    13    11    1
    14    14    15    1
    15    16    14   ar
    16    17    16    1
    17    18    16   ar
    18    19    18    1
    19    20    18   ar
    20    21    20    1
    21    22     2   ar
    22    23     3    1
    23    24    23    1
    24    25    23    1
    25    26     6   ar
    26    27    26    1
    27    28    26   ar
    28    29    28    1
    29    30    28   ar
    30    31    30    1
    31    32    30   ar
    32    33    32    1
    33    34     6   ar
    34    35     7    1
    35    36    35    1
    36    37    35    1
    37    38    10   ar
    38    39    38    1
    39    40    38   ar
    40    41    40    1
    41    42    40   ar
    42    43    42    1
    43    44    42   ar
    44    45    44    1
    45    46    10   ar
    46    47    11    1
    47    48    47    1
    48    49    47    1
    49    20    22   ar
    50    22    23    1
    51    32    34   ar
    52    34    35    1
    53    44    46   ar
    54    46    47    1
    55    50    51    2
    56    52    50    2
    57    53    50    1
    58    54    55    1
    59    56    54    1
    60    57    50    1
    61    58    57   ar
    62    59    58    1
    63    60    58   ar
    64    61    60    1
    65    62    60   ar
    66    63    62    1
    67    64    54    1
    68    65    57   ar
    69    66    65    1
    70    62    64   ar
    71    64    65   ar
    72    67    68    2
    73    69    67    2
    74    70    67    1
    75    71    72    1
    76    73    71    1
    77    74    67    1
    78    75    74   ar
    79    76    75    1
    80    77    75   ar
    81    78    77    1
    82    79    77   ar
    83    80    79    1
    84    81    71    1
    85    82    74   ar
    86    83    82    1
    87    79    81   ar
    88    81    82   ar
    89    84    85    1
    90    86    84    1
    91    87    86    1
    92    88    86    1
    93    89    86    1
@<TRIPOS>SUBSTRUCTURE
     1 RES1        1 GROUP             0 ****  ****    0  
     2 RES2       50 GROUP             0 ****  ****    0  
     3 RES3       67 GROUP             0 ****  ****    0  
     4 RES4       84 GROUP             0 ****  ****    0  
@<TRIPOS>CRYSIN
   17.7500   11.4680   16.6500   90.0000   96.6840   90.0000    14     1
