@<TRIPOS>MOLECULE
PUTHAP01
    83    88     3     0     0
SMALL
USER_CHARGES
****
Generated from the CSD

@<TRIPOS>ATOM
     1 Fe1      9.9788   3.2529  18.5778   Fe        1 RES1   2.0000
     2 C1      12.4877   1.5881  17.5805   C.ar      1 RES1   0.0000
     3 H1      11.8909   0.8749  17.5432   H         1 RES1   0.0000
     4 C2      13.7622   1.3857  17.1531   C.ar      1 RES1   0.0000
     5 H2      14.0301   0.5502  16.8448   H         1 RES1   0.0000
     6 C3      14.6290   2.4113  17.1828   C.ar      1 RES1   0.0000
     7 H3      15.5069   2.2945  16.9024   H         1 RES1   0.0000
     8 C4      14.2046   3.6231  17.6305   C.ar      1 RES1   0.0000
     9 H4      14.7874   4.3485  17.6397   H         1 RES1   0.0000
    10 C5      12.9039   3.7725  18.0738   C.ar      1 RES1   0.0000
    11 C6      12.4329   5.0767  18.6075   C.3       1 RES1   0.0000
    12 H5      12.8990   5.2574  19.4396   H         1 RES1   0.0000
    13 H6      12.6766   5.7736  17.9797   H         1 RES1   0.0000
    14 C7       8.7864   0.3736  17.7737   C.ar      1 RES1   0.0000
    15 H7       9.0287   0.6018  16.9061   H         1 RES1   0.0000
    16 C8       8.0827  -0.7866  17.9759   C.ar      1 RES1   0.0000
    17 H8       7.8567  -1.3354  17.2608   H         1 RES1   0.0000
    18 C9       7.7228  -1.1180  19.2520   C.ar      1 RES1   0.0000
    19 H9       7.2295  -1.8897  19.4136   H         1 RES1   0.0000
    20 C10      8.0980  -0.2989  20.2977   C.ar      1 RES1   0.0000
    21 H10      7.8700  -0.5162  21.1725   H         1 RES1   0.0000
    22 C11      8.8128   0.8458  20.0261   C.ar      1 RES1   0.0000
    23 C12      9.2253   1.7742  21.1281   C.3       1 RES1   0.0000
    24 H11      8.4421   2.2361  21.4641   H         1 RES1   0.0000
    25 H12      9.5999   1.2539  21.8561   H         1 RES1   0.0000
    26 C13      7.3099   4.5781  19.7135   C.ar      1 RES1   0.0000
    27 H13      7.7265   4.4993  20.5410   H         1 RES1   0.0000
    28 C14      6.0572   5.1134  19.6688   C.ar      1 RES1   0.0000
    29 H14      5.6294   5.3837  20.4481   H         1 RES1   0.0000
    30 C15      5.4450   5.2451  18.4605   C.ar      1 RES1   0.0000
    31 H15      4.5863   5.5970  18.4031   H         1 RES1   0.0000
    32 C16      6.1112   4.8512  17.3320   C.ar      1 RES1   0.0000
    33 H16      5.7142   4.9517  16.4974   H         1 RES1   0.0000
    34 C17      7.3755   4.3025  17.4377   C.ar      1 RES1   0.0000
    35 C18      8.1073   3.8323  16.2153   C.3       1 RES1   0.0000
    36 H17      7.6779   3.0308  15.8789   H         1 RES1   0.0000
    37 H18      8.0453   4.5129  15.5279   H         1 RES1   0.0000
    38 N1      12.0449   2.7652  18.0528   N.ar      1 RES1   0.0000
    39 N2      11.0052   5.1564  18.8549   N.3       1 RES1   0.0000
    40 H19     10.8181   5.4380  19.6662   H         1 RES1   0.0000
    41 H20     10.7607   5.6432  18.1468   H         1 RES1   0.0000
    42 N3       9.1357   1.1914  18.7744   N.ar      1 RES1   0.0000
    43 N4      10.1988   2.7496  20.6948   N.3       1 RES1   0.0000
    44 H21     10.1303   3.4438  21.2468   H         1 RES1   0.0000
    45 H22     11.0187   2.3977  20.8345   H         1 RES1   0.0000
    46 N5       7.9738   4.1559  18.6199   N.ar      1 RES1   0.0000
    47 N6       9.5232   3.5442  16.4813   N.3       1 RES1   0.0000
    48 H23      9.8115   2.8841  15.9718   H         1 RES1   0.0000
    49 H24      9.9098   4.2072  16.0572   H         1 RES1   0.0000
    50 C19      1.8846   4.9723   3.1438   C.ar      2 RES2   0.0000
    51 C20      2.3276   3.8767   2.4156   C.ar      2 RES2   0.0000
    52 H25      3.0391   3.9681   1.8258   H         2 RES2   0.0000
    53 C21      1.7106   2.6550   2.5675   C.ar      2 RES2   0.0000
    54 H26      2.0052   1.9291   2.0673   H         2 RES2   0.0000
    55 C22      0.6617   2.4890   3.4490   C.ar      2 RES2   0.0000
    56 C23      0.2064   3.5879   4.1589   C.ar      2 RES2   0.0000
    57 H27     -0.5116   3.4981   4.7438   H         2 RES2   0.0000
    58 C24      0.8131   4.8108   3.9995   C.ar      2 RES2   0.0000
    59 H28      0.4965   5.5426   4.4763   H         2 RES2   0.0000
    60 N7       0.0297   1.2455   3.5889   N.pl3     2 RES2   0.0000
    61 H29      0.5861   0.6018   3.3749   H         2 RES2   0.0000
    62 H30     -0.4238   1.1506   4.3240   H         2 RES2   0.0000
    63 O1       3.2180   6.6077   1.6702   O.2       2 RES2   0.0000
    64 O2       3.8249   6.4456   3.9795   O.3       2 RES2  -1.0000
    65 O3       1.7986   7.5548   3.3227   O.2       2 RES2   0.0000
    66 S1       2.7431   6.5117   3.0240   S.o2      2 RES2   0.0000
    67 C25      8.9905   7.3220   4.3354   C.ar      3 RES3   0.0000
    68 C26      9.6566   8.4732   3.9297   C.ar      3 RES3   0.0000
    69 H31     10.5125   8.4091   3.5736   H         3 RES3   0.0000
    70 C27      9.0589   9.7038   4.0521   C.ar      3 RES3   0.0000
    71 H32      9.5220  10.4644   3.7817   H         3 RES3   0.0000
    72 C28      7.7809   9.8332   4.5709   C.ar      3 RES3   0.0000
    73 C29      7.1107   8.6780   4.9505   C.ar      3 RES3   0.0000
    74 H33      6.2427   8.7392   5.2825   H         3 RES3   0.0000
    75 C30      7.7113   7.4441   4.8426   C.ar      3 RES3   0.0000
    76 H34      7.2511   6.6838   5.1153   H         3 RES3   0.0000
    77 N8       7.1870  11.0822   4.6262   N.pl3     3 RES3   0.0000
    78 H35      7.7082  11.7211   4.9147   H         3 RES3   0.0000
    79 H36      6.3684  11.1396   4.9797   H         3 RES3   0.0000
    80 O4       8.8175   4.7347   4.2835   O.3       3 RES3  -1.0000
    81 O5      10.6659   5.7756   3.1420   O.2       3 RES3   0.0000
    82 O6      10.6033   5.7240   5.5505   O.2       3 RES3   0.0000
    83 S2       9.8336   5.7737   4.3199   S.o2      3 RES3   0.0000
@<TRIPOS>BOND
     1     1    38    1
     2     2     3    1
     3     4     2   ar
     4     5     4    1
     5     6     4   ar
     6     7     6    1
     7     8     6   ar
     8     9     8    1
     9    10     8   ar
    10    11    10    1
    11    12    11    1
    12    13    11    1
    13    14    15    1
    14    16    14   ar
    15    17    16    1
    16    18    16   ar
    17    19    18    1
    18    20    18   ar
    19    21    20    1
    20    22    20   ar
    21    23    22    1
    22    24    23    1
    23    25    23    1
    24    26    27    1
    25    28    26   ar
    26    29    28    1
    27    30    28   ar
    28    31    30    1
    29    32    30   ar
    30    33    32    1
    31    34    32   ar
    32    35    34    1
    33    36    35    1
    34    37    35    1
    35    38     2   ar
    36    39     1    1
    37    40    39    1
    38    41    39    1
    39    42     1    1
    40    43     1    1
    41    44    43    1
    42    45    43    1
    43    46     1    1
    44    47     1    1
    45    48    47    1
    46    49    47    1
    47    10    38   ar
    48    11    39    1
    49    14    42   ar
    50    22    42   ar
    51    23    43    1
    52    26    46   ar
    53    34    46   ar
    54    35    47    1
    55    50    51   ar
    56    51    52    1
    57    53    51   ar
    58    54    53    1
    59    55    53   ar
    60    56    55   ar
    61    57    56    1
    62    58    50   ar
    63    59    58    1
    64    60    55    1
    65    61    60    1
    66    62    60    1
    67    63    66    2
    68    64    66    1
    69    65    66    2
    70    66    50    1
    71    56    58   ar
    72    67    68   ar
    73    68    69    1
    74    70    68   ar
    75    71    70    1
    76    72    70   ar
    77    73    72   ar
    78    74    73    1
    79    75    67   ar
    80    76    75    1
    81    77    72    1
    82    78    77    1
    83    79    77    1
    84    80    83    1
    85    81    83    2
    86    82    83    2
    87    83    67    1
    88    73    75   ar
@<TRIPOS>SUBSTRUCTURE
     1 RES1        1 GROUP             0 ****  ****    0  
     2 RES2       50 GROUP             0 ****  ****    0  
     3 RES3       67 GROUP             0 ****  ****    0  
@<TRIPOS>CRYSIN
   13.0398   13.5849   18.5750   90.0000   90.5880   90.0000    14     1
