@<TRIPOS>MOLECULE
PUTHAP
    83    88     3     0     0
SMALL
USER_CHARGES
****
Generated from the CSD

@<TRIPOS>ATOM
     1 Fe1      9.6629   3.2015  18.2954   Fe        1 RES1   2.0000
     2 C1      11.9596   1.4886  17.4499   C.ar      1 RES1   0.0000
     3 H1      11.3493   0.7603  17.4571   H         1 RES1   0.0000
     4 C2      13.2479   1.2616  17.0140   C.ar      1 RES1   0.0000
     5 H2      13.5175   0.3944  16.7373   H         1 RES1   0.0000
     6 C3      14.1434   2.3187  16.9872   C.ar      1 RES1   0.0000
     7 H3      15.0354   2.1916  16.6859   H         1 RES1   0.0000
     8 C4      13.7102   3.5609  17.4073   C.ar      1 RES1   0.0000
     9 H4      14.3028   4.3032  17.3928   H         1 RES1   0.0000
    10 C5      12.4108   3.7192  17.8475   C.ar      1 RES1   0.0000
    11 C6      11.9164   5.0352  18.3631   C.3       1 RES1   0.0000
    12 H5      12.3013   5.2032  19.2603   H         1 RES1   0.0000
    13 H6      12.2182   5.7588  17.7601   H         1 RES1   0.0000
    14 C7       8.5606   0.5271  17.3904   C.ar      1 RES1   0.0000
    15 H7       8.8098   0.7712  16.5059   H         1 RES1   0.0000
    16 C8       7.8878  -0.6694  17.5801   C.ar      1 RES1   0.0000
    17 H8       7.6799  -1.2279  16.8401   H         1 RES1   0.0000
    18 C9       7.5225  -1.0389  18.8651   C.ar      1 RES1   0.0000
    19 H9       7.0383  -1.8419  19.0197   H         1 RES1   0.0000
    20 C10      7.8778  -0.2132  19.9222   C.ar      1 RES1   0.0000
    21 H10      7.6579  -0.4554  20.8137   H         1 RES1   0.0000
    22 C11      8.5579   0.9695  19.6668   C.ar      1 RES1   0.0000
    23 C12      8.9595   1.9025  20.7730   C.3       1 RES1   0.0000
    24 H11      8.1642   2.3881  21.1057   H         1 RES1   0.0000
    25 H12      9.3444   1.3852  21.5244   H         1 RES1   0.0000
    26 C13      7.2615   4.5272  19.5487   C.ar      1 RES1   0.0000
    27 H13      7.7284   4.4672  20.3730   H         1 RES1   0.0000
    28 C14      6.0227   5.1283  19.5416   C.ar      1 RES1   0.0000
    29 H14      5.6407   5.4552  20.3473   H         1 RES1   0.0000
    30 C15      5.3409   5.2481  18.3370   C.ar      1 RES1   0.0000
    31 H15      4.4805   5.6491  18.3036   H         1 RES1   0.0000
    32 C16      5.9443   4.7692  17.1884   C.ar      1 RES1   0.0000
    33 H16      5.5068   4.8521  16.3498   H         1 RES1   0.0000
    34 C17      7.1908   4.1669  17.2681   C.ar      1 RES1   0.0000
    35 C18      7.8848   3.6375  16.0463   C.3       1 RES1   0.0000
    36 H17      7.4785   2.7744  15.7806   H         1 RES1   0.0000
    37 H18      7.7722   4.2747  15.2977   H         1 RES1   0.0000
    38 N1      11.5232   2.6977  17.8682   N.ar      1 RES1   0.0000
    39 N2      10.4464   5.0518  18.4507   N.3       1 RES1   0.0000
    40 H19     10.2664   5.3333  19.2529   H         1 RES1   0.0000
    41 H20     10.2097   5.5379  17.7509   H         1 RES1   0.0000
    42 N3       8.8811   1.3669  18.4061   N.ar      1 RES1   0.0000
    43 N4       9.9573   2.8656  20.2676   N.3       1 RES1   0.0000
    44 H21      9.8919   3.5591  20.8137   H         1 RES1   0.0000
    45 H22     10.7491   2.5142  20.4061   H         1 RES1   0.0000
    46 N5       7.8478   4.0166  18.4404   N.ar      1 RES1   0.0000
    47 N6       9.3241   3.4445  16.3221   N.3       1 RES1   0.0000
    48 H23      9.6026   2.7852  15.8173   H         1 RES1   0.0000
    49 H24      9.6964   4.1067  15.9018   H         1 RES1   0.0000
    50 C19      1.8865   5.0892   3.1530   C.ar      2 RES2   0.0000
    51 C20      2.3311   4.0312   2.3599   C.ar      2 RES2   0.0000
    52 H25      3.0566   4.1609   1.7609   H         2 RES2   0.0000
    53 C21      1.7178   2.7931   2.4437   C.ar      2 RES2   0.0000
    54 H26      2.0166   2.0804   1.8913   H         2 RES2   0.0000
    55 C22      0.6585   2.5833   3.3377   C.ar      2 RES2   0.0000
    56 C23      0.2033   3.6555   4.1045   C.ar      2 RES2   0.0000
    57 H27     -0.5293   3.5334   4.6971   H         2 RES2   0.0000
    58 C24      0.8088   4.8975   4.0098   C.ar      2 RES2   0.0000
    59 H28      0.4858   5.6220   4.5337   H         2 RES2   0.0000
    60 N7       0.0338   1.3358   3.4143   N.pl3     2 RES2   0.0000
    61 H29      0.5713   0.6939   3.2024   H         2 RES2   0.0000
    62 H30     -0.4025   1.2415   4.1407   H         2 RES2   0.0000
    63 O1       3.3685   6.7500   1.8370   O.2       2 RES2   0.0000
    64 O2       3.7365   6.5403   4.2281   O.2       2 RES2   0.0000
    65 O3       1.7670   7.6789   3.3891   O.3       2 RES2  -1.0000
    66 S1       2.7554   6.6284   3.1515   S.o2      2 RES2   0.0000
    67 C25      8.7416   7.3077   4.2353   C.ar      3 RES3   0.0000
    68 C26      9.4271   8.4615   3.8577   C.ar      3 RES3   0.0000
    69 H31     10.3116   8.3950   3.5164   H         3 RES3   0.0000
    70 C27      8.8287   9.7007   3.9766   C.ar      3 RES3   0.0000
    71 H32      9.3100  10.4808   3.7257   H         3 RES3   0.0000
    72 C28      7.5179   9.8198   4.4624   C.ar      3 RES3   0.0000
    73 C29      6.8343   8.6564   4.8220   C.ar      3 RES3   0.0000
    74 H33      5.9434   8.7162   5.1451   H         3 RES3   0.0000
    75 C30      7.4428   7.4128   4.7123   C.ar      3 RES3   0.0000
    76 H34      6.9674   6.6303   4.9652   H         3 RES3   0.0000
    77 N8       6.9244  11.0657   4.5122   N.pl3     3 RES3   0.0000
    78 H35      7.4272  11.7034   4.7981   H         3 RES3   0.0000
    79 H36      6.1346  11.1233   4.8624   H         3 RES3   0.0000
    80 O4       8.5707   4.7139   4.2441   O.2       3 RES3   0.0000
    81 O5      10.3691   5.7414   2.9775   O.2       3 RES3   0.0000
    82 O6      10.4246   5.7374   5.4140   O.3       3 RES3  -1.0000
    83 S2       9.5877   5.7624   4.2105   S.o2      3 RES3   0.0000
@<TRIPOS>BOND
     1     1    38    1
     2     2     3    1
     3     4     2   ar
     4     5     4    1
     5     6     4   ar
     6     7     6    1
     7     8     6   ar
     8     9     8    1
     9    10     8   ar
    10    11    10    1
    11    12    11    1
    12    13    11    1
    13    14    15    1
    14    16    14   ar
    15    17    16    1
    16    18    16   ar
    17    19    18    1
    18    20    18   ar
    19    21    20    1
    20    22    20   ar
    21    23    22    1
    22    24    23    1
    23    25    23    1
    24    26    27    1
    25    28    26   ar
    26    29    28    1
    27    30    28   ar
    28    31    30    1
    29    32    30   ar
    30    33    32    1
    31    34    32   ar
    32    35    34    1
    33    36    35    1
    34    37    35    1
    35    38     2   ar
    36    39     1    1
    37    40    39    1
    38    41    39    1
    39    42     1    1
    40    43     1    1
    41    44    43    1
    42    45    43    1
    43    46     1    1
    44    47     1    1
    45    48    47    1
    46    49    47    1
    47    10    38   ar
    48    11    39    1
    49    14    42   ar
    50    22    42   ar
    51    23    43    1
    52    26    46   ar
    53    34    46   ar
    54    35    47    1
    55    50    51   ar
    56    51    52    1
    57    53    51   ar
    58    54    53    1
    59    55    53   ar
    60    56    55   ar
    61    57    56    1
    62    58    50   ar
    63    59    58    1
    64    60    55    1
    65    61    60    1
    66    62    60    1
    67    63    66    2
    68    64    66    2
    69    65    66    1
    70    66    50    1
    71    56    58   ar
    72    67    68   ar
    73    68    69    1
    74    70    68   ar
    75    71    70    1
    76    72    70   ar
    77    73    72   ar
    78    74    73    1
    79    75    67   ar
    80    76    75    1
    81    77    72    1
    82    78    77    1
    83    79    77    1
    84    80    83    2
    85    81    83    2
    86    82    83    1
    87    83    67    1
    88    73    75   ar
@<TRIPOS>SUBSTRUCTURE
     1 RES1        1 GROUP             0 ****  ****    0  
     2 RES2       50 GROUP             0 ****  ****    0  
     3 RES3       67 GROUP             0 ****  ****    0  
@<TRIPOS>CRYSIN
   12.5927   13.5534   18.3630   90.0000   90.4810   90.0000    14     1
