@<TRIPOS>MOLECULE
PUTWOR
    88    91     3     0     0
SMALL
USER_CHARGES
****
Generated from the CSD

@<TRIPOS>ATOM
     1 Fe1     10.8660   5.5525   4.8011   Fe        1 RES1   2.0000
     2 N1       8.9402   5.6021   5.1831   N.ar      1 RES1   0.0000
     3 C1       7.9882   4.8313   4.6548   C.ar      1 RES1   0.0000
     4 H1       8.2138   4.2516   3.9369   H         1 RES1   0.0000
     5 C2       6.6874   4.8443   5.1120   C.ar      1 RES1   0.0000
     6 H2       6.0404   4.2684   4.7224   H         1 RES1   0.0000
     7 C3       6.3277   5.6923   6.1341   C.ar      1 RES1   0.0000
     8 H3       5.4370   5.7115   6.4623   H         1 RES1   0.0000
     9 C4       7.3104   6.5215   6.6726   C.ar      1 RES1   0.0000
    10 H4       7.0931   7.1326   7.3668   H         1 RES1   0.0000
    11 C5       8.6009   6.4460   6.1886   C.ar      1 RES1   0.0000
    12 C6       9.7299   7.1741   6.7789   C.2       1 RES1   0.0000
    13 C7       9.5216   8.1112   7.9147   C.3       1 RES1   0.0000
    14 H5      10.3162   8.6751   8.0236   H         1 RES1   0.0000
    15 H6       9.3702   7.5996   8.7361   H         1 RES1   0.0000
    16 H7       8.7415   8.6768   7.7336   H         1 RES1   0.0000
    17 N2      10.8851   6.8804   6.2574   N.2       1 RES1   0.0000
    18 N3      12.0026   7.3492   7.0036   N.3       1 RES1   0.0000
    19 C8      12.3610   6.4666   8.1085   C.3       1 RES1   0.0000
    20 H8      12.9574   6.9404   8.7245   H         1 RES1   0.0000
    21 H9      12.8167   5.6727   7.7586   H         1 RES1   0.0000
    22 H10     11.5491   6.1936   8.5844   H         1 RES1   0.0000
    23 C9      13.0278   8.0016   6.2889   C.ar      1 RES1   0.0000
    24 C10     14.3715   7.7554   6.5420   C.ar      1 RES1   0.0000
    25 H11     14.6234   7.0922   7.1748   H         1 RES1   0.0000
    26 C11     15.3474   8.4814   5.8689   C.ar      1 RES1   0.0000
    27 H12     16.2645   8.3127   6.0475   H         1 RES1   0.0000
    28 C12     14.9971   9.4479   4.9401   C.ar      1 RES1   0.0000
    29 H13     15.6714   9.9310   4.4785   H         1 RES1   0.0000
    30 C13     13.6706   9.7035   4.6903   C.ar      1 RES1   0.0000
    31 H14     13.4259  10.3609   4.0483   H         1 RES1   0.0000
    32 C14     12.6857   9.0025   5.3753   C.ar      1 RES1   0.0000
    33 H15     11.7708   9.2062   5.2217   H         1 RES1   0.0000
    34 N4      11.0102   4.1656   6.1723   N.1       1 RES1   0.0000
    35 C15     11.0293   3.4013   7.0119   C.1       1 RES1   0.0000
    36 C16     11.0954   2.4220   8.0927   C.3       1 RES1   0.0000
    37 H16     12.0252   2.1427   8.2252   H         1 RES1   0.0000
    38 H17     10.5501   1.6420   7.8603   H         1 RES1   0.0000
    39 H18     10.7534   2.8237   8.9185   H         1 RES1   0.0000
    40 N1A     12.7917   5.6021   4.4191   N.ar      1 RES1   0.0000
    41 C1A     13.7438   4.8313   4.9474   C.ar      1 RES1   0.0000
    42 H1A     13.5182   4.2516   5.6653   H         1 RES1   0.0000
    43 C2A     15.0446   4.8443   4.4902   C.ar      1 RES1   0.0000
    44 H2A     15.6916   4.2684   4.8798   H         1 RES1   0.0000
    45 C3A     15.4043   5.6923   3.4681   C.ar      1 RES1   0.0000
    46 H3A     16.2950   5.7115   3.1399   H         1 RES1   0.0000
    47 C4A     14.4216   6.5215   2.9296   C.ar      1 RES1   0.0000
    48 H4A     14.6389   7.1326   2.2354   H         1 RES1   0.0000
    49 C5A     13.1310   6.4460   3.4136   C.ar      1 RES1   0.0000
    50 C6A     12.0020   7.1741   2.8232   C.2       1 RES1   0.0000
    51 C7A     12.2104   8.1112   1.6875   C.3       1 RES1   0.0000
    52 H5A     11.4158   8.6751   1.5786   H         1 RES1   0.0000
    53 H6A     12.3617   7.5996   0.8661   H         1 RES1   0.0000
    54 H7A     12.9905   8.6768   1.8686   H         1 RES1   0.0000
    55 N2A     10.8468   6.8804   3.3448   N.2       1 RES1   0.0000
    56 N3A      9.7294   7.3492   2.5985   N.3       1 RES1   0.0000
    57 C8A      9.3710   6.4666   1.4937   C.3       1 RES1   0.0000
    58 H8A      8.7746   6.9404   0.8776   H         1 RES1   0.0000
    59 H9A      8.9153   5.6727   1.8436   H         1 RES1   0.0000
    60 H10A    10.1829   6.1936   1.0178   H         1 RES1   0.0000
    61 C9A      8.7042   8.0016   3.3133   C.ar      1 RES1   0.0000
    62 C10A     7.3604   7.7554   3.0602   C.ar      1 RES1   0.0000
    63 H11A     7.1086   7.0922   2.4274   H         1 RES1   0.0000
    64 C11A     6.3845   8.4814   3.7333   C.ar      1 RES1   0.0000
    65 H12A     5.4674   8.3127   3.5547   H         1 RES1   0.0000
    66 C12A     6.7349   9.4479   4.6621   C.ar      1 RES1   0.0000
    67 H13A     6.0605   9.9310   5.1237   H         1 RES1   0.0000
    68 C13A     8.0614   9.7035   4.9119   C.ar      1 RES1   0.0000
    69 H14A     8.3061  10.3609   5.5539   H         1 RES1   0.0000
    70 C14A     9.0463   9.0025   4.2269   C.ar      1 RES1   0.0000
    71 H15A     9.9612   9.2062   4.3805   H         1 RES1   0.0000
    72 N4A     10.7218   4.1656   3.4299   N.1       1 RES1   0.0000
    73 C15A    10.7027   3.4013   2.5903   C.1       1 RES1   0.0000
    74 C16A    10.6366   2.4220   1.5095   C.3       1 RES1   0.0000
    75 H16A     9.7068   2.1427   1.3770   H         1 RES1   0.0000
    76 H17A    11.1818   1.6420   1.7418   H         1 RES1   0.0000
    77 H18A    10.9785   2.8237   0.6837   H         1 RES1   0.0000
    78 N5       5.5404   7.7095   9.2448   N.1       2 RES2   0.0000
    79 C17      5.6482   6.8393   9.9709   C.1       2 RES2   0.0000
    80 C18      5.7924   5.7316  10.8987   C.3       2 RES2   0.0000
    81 H19      5.3200   4.9478  10.5490   H         2 RES2   0.0000
    82 H20      5.4122   5.9812  11.7665   H         2 RES2   0.0000
    83 H21      6.7426   5.5176  11.0079   H         2 RES2   0.0000
    84 Cl1      3.5038   3.5417   8.1340   Cl        3 RES3   0.0000
    85 O1       3.5969   4.9773   8.1198   O.3       3 RES3  -1.0000
    86 O2       2.1315   3.1496   7.9596   O.2       3 RES3   0.0000
    87 O3       3.9932   3.0429   9.3886   O.2       3 RES3   0.0000
    88 O4       4.2907   2.9960   7.0614   O.2       3 RES3   0.0000
@<TRIPOS>BOND
     1     1     2    1
     2     2     3   ar
     3     3     4    1
     4     5     3   ar
     5     6     5    1
     6     7     5   ar
     7     8     7    1
     8     9     7   ar
     9    10     9    1
    10    11     2   ar
    11    12    11    1
    12    13    12    1
    13    14    13    1
    14    15    13    1
    15    16    13    1
    16    17     1    1
    17    18    17    1
    18    19    18    1
    19    20    19    1
    20    21    19    1
    21    22    19    1
    22    23    18    1
    23    24    23   ar
    24    25    24    1
    25    26    24   ar
    26    27    26    1
    27    28    26   ar
    28    29    28    1
    29    30    28   ar
    30    31    30    1
    31    32    23   ar
    32    33    32    1
    33    34     1    1
    34    35    34    3
    35    36    35    1
    36    37    36    1
    37    38    36    1
    38    39    36    1
    39    40     1    1
    40    41    40   ar
    41    42    41    1
    42    43    41   ar
    43    44    43    1
    44    45    43   ar
    45    46    45    1
    46    47    45   ar
    47    48    47    1
    48    49    40   ar
    49    50    49    1
    50    51    50    1
    51    52    51    1
    52    53    51    1
    53    54    51    1
    54    55     1    1
    55    56    55    1
    56    57    56    1
    57    58    57    1
    58    59    57    1
    59    60    57    1
    60    61    56    1
    61    62    61   ar
    62    63    62    1
    63    64    62   ar
    64    65    64    1
    65    66    64   ar
    66    67    66    1
    67    68    66   ar
    68    69    68    1
    69    70    61   ar
    70    71    70    1
    71    72     1    1
    72    73    72    3
    73    74    73    1
    74    75    74    1
    75    76    74    1
    76    77    74    1
    77     9    11   ar
    78    12    17    2
    79    30    32   ar
    80    47    49   ar
    81    50    55    2
    82    68    70   ar
    83    78    79    3
    84    79    80    1
    85    80    81    1
    86    82    80    1
    87    83    80    1
    88    84    85    1
    89    86    84    2
    90    87    84    2
    91    88    84    2
@<TRIPOS>SUBSTRUCTURE
     1 RES1        1 GROUP             0 ****  ****    0  
     2 RES2       78 GROUP             0 ****  ****    0  
     3 RES3       84 GROUP             0 ****  ****    0  
@<TRIPOS>CRYSIN
   12.0681   16.8580   19.7972   90.0000  104.0570   90.0000    15     1
