@<TRIPOS>MOLECULE
PUTWEH
    98   104     3     0     0
SMALL
USER_CHARGES
****
Generated from the CSD

@<TRIPOS>ATOM
     1 Fe1     -0.0008   9.1665   2.5229   Fe        1 RES1   2.0000
     2 N1      -1.1096  10.4416   3.5510   N.ar      1 RES1   0.0000
     3 C1      -0.8025  11.0832   4.6736   C.ar      1 RES1   0.0000
     4 H1       0.0405  10.9209   5.0788   H         1 RES1   0.0000
     5 C2      -1.6741  11.9823   5.2746   C.ar      1 RES1   0.0000
     6 H2      -1.4265  12.4058   6.0882   H         1 RES1   0.0000
     7 C3      -2.8823  12.2601   4.7043   C.ar      1 RES1   0.0000
     8 H3      -3.4808  12.8788   5.1074   H         1 RES1   0.0000
     9 C4      -3.2181  11.6125   3.5107   C.ar      1 RES1   0.0000
    10 H4      -4.0476  11.7899   3.0812   H         1 RES1   0.0000
    11 C5      -2.3139  10.7009   2.9616   C.ar      1 RES1   0.0000
    12 C6      -2.6084   9.8884   1.7966   C.2       1 RES1   0.0000
    13 C7      -3.8928  10.0148   1.0528   C.3       1 RES1   0.0000
    14 H5      -3.8849   9.4099   0.2825   H         1 RES1   0.0000
    15 H6      -4.0024  10.9388   0.7428   H         1 RES1   0.0000
    16 H7      -4.6390   9.7811   1.6453   H         1 RES1   0.0000
    17 N2      -1.6572   9.0457   1.5110   N.2       1 RES1   0.0000
    18 N3      -1.9726   8.0831   0.5312   N.pl3     1 RES1   0.0000
    19 H8      -1.7495   8.2082  -0.3111   H         1 RES1   0.0000
    20 C8      -2.6521   6.9199   0.9322   C.ar      1 RES1   0.0000
    21 C9      -2.5370   5.7994   0.0846   C.ar      1 RES1   0.0000
    22 H9      -1.9861   5.8324  -0.6888   H         1 RES1   0.0000
    23 C10     -3.2379   4.6513   0.3989   C.ar      1 RES1   0.0000
    24 H10     -3.1808   3.9006  -0.1809   H         1 RES1   0.0000
    25 C11     -4.0294   4.5675   1.5459   C.ar      1 RES1   0.0000
    26 H11     -4.4882   3.7618   1.7543   H         1 RES1   0.0000
    27 C12     -4.1365   5.6578   2.3669   C.ar      1 RES1   0.0000
    28 H12     -4.6819   5.6124   3.1436   H         1 RES1   0.0000
    29 C13     -3.4451   6.8416   2.0654   C.ar      1 RES1   0.0000
    30 H13     -3.5221   7.5936   2.6421   H         1 RES1   0.0000
    31 N1A     -0.5499   7.5674   3.5510   N.ar      1 RES1   0.0000
    32 N1B      1.6594   9.4892   3.5510   N.ar      1 RES1   0.0000
    33 C1A     -1.2590   7.5125   4.6736   C.ar      1 RES1   0.0000
    34 C1B      2.0615   8.9025   4.6736   C.ar      1 RES1   0.0000
    35 H1A     -1.5400   8.3237   5.0788   H         1 RES1   0.0000
    36 H1B      1.4995   8.2536   5.0788   H         1 RES1   0.0000
    37 C2A     -1.6019   6.3081   5.2746   C.ar      1 RES1   0.0000
    38 C2B      3.2760   9.2078   5.2746   C.ar      1 RES1   0.0000
    39 H2A     -2.0925   6.3108   6.0882   H         1 RES1   0.0000
    40 H2B      3.5189   8.7816   6.0882   H         1 RES1   0.0000
    41 C3A     -1.2383   5.1229   4.7043   C.ar      1 RES1   0.0000
    42 C3B      4.1206  10.1152   4.7043   C.ar      1 RES1   0.0000
    43 H3A     -1.4749   4.2952   5.1074   H         1 RES1   0.0000
    44 H3B      4.9557  10.3242   5.1074   H         1 RES1   0.0000
    45 C4A     -0.5096   5.1559   3.5107   C.ar      1 RES1   0.0000
    46 C4B      3.7277  10.7298   3.5107   C.ar      1 RES1   0.0000
    47 H4A     -0.2485   4.3488   3.0812   H         1 RES1   0.0000
    48 H4B      4.2961  11.3595   3.0812   H         1 RES1   0.0000
    49 C5A     -0.1723   6.3947   2.9616   C.ar      1 RES1   0.0000
    50 C5B      2.4862  10.4026   2.9616   C.ar      1 RES1   0.0000
    51 C6A      0.6787   6.5459   1.7966   C.2       1 RES1   0.0000
    52 C6B      1.9297  11.0639   1.7966   C.2       1 RES1   0.0000
    53 C7A      1.2113   5.3704   1.0528   C.3       1 RES1   0.0000
    54 C7B      2.6815  12.1130   1.0528   C.3       1 RES1   0.0000
    55 H5A      1.7313   5.6798   0.2825   H         1 RES1   0.0000
    56 H5B      2.1536  12.4086   0.2825   H         1 RES1   0.0000
    57 H6A      0.4660   4.8136   0.7428   H         1 RES1   0.0000
    58 H6B      3.5364  11.7459   0.7428   H         1 RES1   0.0000
    59 H7A      1.7869   4.8411   1.6453   H         1 RES1   0.0000
    60 H7B      2.8521  12.8760   1.6453   H         1 RES1   0.0000
    61 N2A      0.9329   7.7911   1.5110   N.2       1 RES1   0.0000
    62 N2B      0.7243  10.6615   1.5110   N.2       1 RES1   0.0000
    63 N3A      1.9242   7.9992   0.5312   N.pl3     1 RES1   0.0000
    64 N3B      0.0484  11.4159   0.5312   N.pl3     1 RES1   0.0000
    65 H8A      1.7043   8.1298  -0.3111   H         1 RES1   0.0000
    66 H8B      0.0452  11.1601  -0.3111   H         1 RES1   0.0000
    67 C8A      3.2713   7.9924   0.9322   C.ar      1 RES1   0.0000
    68 C8B     -0.6192  12.5859   0.9322   C.ar      1 RES1   0.0000
    69 C9A      4.1841   8.6523   0.0846   C.ar      1 RES1   0.0000
    70 C9B     -1.6471  13.0465   0.0846   C.ar      1 RES1   0.0000
    71 H9A      3.8801   9.1129  -0.6888   H         1 RES1   0.0000
    72 H9B     -1.8940  12.5529  -0.6888   H         1 RES1   0.0000
    73 C10A     5.5289   8.6193   0.3989   C.ar      1 RES1   0.0000
    74 C10B    -2.2909  14.2276   0.3989   C.ar      1 RES1   0.0000
    75 H10A     6.1504   9.0442  -0.1809   H         1 RES1   0.0000
    76 H10B    -2.9696  14.5534  -0.1809   H         1 RES1   0.0000
    77 C11A     5.9972   7.9759   1.5459   C.ar      1 RES1   0.0000
    78 C11B    -1.9678  14.9549   1.5459   C.ar      1 RES1   0.0000
    79 H11A     6.9244   7.9814   1.7543   H         1 RES1   0.0000
    80 H11B    -2.4362  15.7551   1.7543   H         1 RES1   0.0000
    81 C12A     5.1065   7.3379   2.3669   C.ar      1 RES1   0.0000
    82 C12B    -0.9700  14.5026   2.3669   C.ar      1 RES1   0.0000
    83 H12A     5.4185   6.8883   3.1436   H         1 RES1   0.0000
    84 H12B    -0.7367  14.9975   3.1436   H         1 RES1   0.0000
    85 C13A     3.7356   7.3448   2.0654   C.ar      1 RES1   0.0000
    86 C13B    -0.2905  13.3119   2.0654   C.ar      1 RES1   0.0000
    87 H13A     3.1228   6.9021   2.6421   H         1 RES1   0.0000
    88 H13B     0.3993  13.0025   2.6421   H         1 RES1   0.0000
    89 Cl1     -0.0008   9.1665  -2.2811   Cl        2 RES2   0.0000
    90 O1      -0.1782   7.8239  -1.7861   O.3       2 RES2  -1.0000
    91 O2      -0.0008   9.1665  -3.7033   O.2       2 RES2   0.0000
    92 O1A      1.2514   9.6828  -1.7861   O.2       2 RES2   0.0000
    93 O1B     -1.0732   9.9915  -1.7861   O.2       2 RES2   0.0000
    94 Cl2      5.7770  11.9936   8.2150   Cl        3 RES3   0.0000
    95 O3       6.0909  12.3453   6.8670   O.3       3 RES3  -1.0000
    96 O4       6.8831  11.6716   9.0266   O.2       3 RES3   0.0000
    97 O5       5.1534  13.1249   8.7155   O.2       3 RES3   0.0000
    98 O6       5.0962  10.8315   8.1653   O.2       3 RES3   0.0000
@<TRIPOS>BOND
     1     1     2    1
     2     2     3   ar
     3     3     4    1
     4     5     3   ar
     5     6     5    1
     6     7     5   ar
     7     8     7    1
     8     9     7   ar
     9    10     9    1
    10    11     2   ar
    11    12    11    1
    12    13    12    1
    13    14    13    1
    14    15    13    1
    15    16    13    1
    16    17     1    1
    17    18    17    1
    18    19    18    1
    19    20    18    1
    20    21    20   ar
    21    22    21    1
    22    23    21   ar
    23    24    23    1
    24    25    23   ar
    25    26    25    1
    26    27    25   ar
    27    28    27    1
    28    29    20   ar
    29    30    29    1
    30    31     1    1
    31    32     1    1
    32    33    31   ar
    33    34    32   ar
    34    35    33    1
    35    36    34    1
    36    37    33   ar
    37    38    34   ar
    38    39    37    1
    39    40    38    1
    40    41    37   ar
    41    42    38   ar
    42    43    41    1
    43    44    42    1
    44    45    41   ar
    45    46    42   ar
    46    47    45    1
    47    48    46    1
    48    49    31   ar
    49    50    32   ar
    50    51    49    1
    51    52    50    1
    52    53    51    1
    53    54    52    1
    54    55    53    1
    55    56    54    1
    56    57    53    1
    57    58    54    1
    58    59    53    1
    59    60    54    1
    60    61     1    1
    61    62     1    1
    62    63    61    1
    63    64    62    1
    64    65    63    1
    65    66    64    1
    66    67    63    1
    67    68    64    1
    68    69    67   ar
    69    70    68   ar
    70    71    69    1
    71    72    70    1
    72    73    69   ar
    73    74    70   ar
    74    75    73    1
    75    76    74    1
    76    77    73   ar
    77    78    74   ar
    78    79    77    1
    79    80    78    1
    80    81    77   ar
    81    82    78   ar
    82    83    81    1
    83    84    82    1
    84    85    67   ar
    85    86    68   ar
    86    87    85    1
    87    88    86    1
    88     9    11   ar
    89    12    17    2
    90    27    29   ar
    91    45    49   ar
    92    46    50   ar
    93    51    61    2
    94    52    62    2
    95    81    85   ar
    96    82    86   ar
    97    89    90    1
    98    91    89    2
    99    92    89    2
   100    93    89    2
   101    94    95    1
   102    96    94    2
   103    97    94    2
   104    98    94    2
@<TRIPOS>SUBSTRUCTURE
     1 RES1        1 GROUP             0 ****  ****    0  
     2 RES2       89 GROUP             0 ****  ****    0  
     3 RES3       94 GROUP             0 ****  ****    0  
@<TRIPOS>CRYSIN
   15.8761   15.8761   10.5809   90.0000   90.0000  120.0000   173     1
