@<TRIPOS>MOLECULE
PUTWIL
    98   104     3     0     0
SMALL
USER_CHARGES
****
Generated from the CSD

@<TRIPOS>ATOM
     1 Fe1     -0.0008   9.1665   2.5289   Fe        1 RES1   2.0000
     2 N1      -1.1097  10.4273   3.5520   N.ar      1 RES1   0.0000
     3 C1      -0.8137  11.0804   4.7085   C.ar      1 RES1   0.0000
     4 H1       0.0286  10.9195   5.1169   H         1 RES1   0.0000
     5 C2      -1.6892  11.9700   5.3211   C.ar      1 RES1   0.0000
     6 H2      -1.4701  12.3714   6.1539   H         1 RES1   0.0000
     7 C3      -2.8672  12.2532   4.6979   C.ar      1 RES1   0.0000
     8 H3      -3.4586  12.8953   5.0704   H         1 RES1   0.0000
     9 C4      -3.1998  11.6029   3.5203   C.ar      1 RES1   0.0000
    10 H4      -4.0301  11.7789   3.0939   H         1 RES1   0.0000
    11 C5      -2.3124  10.6927   2.9690   C.ar      1 RES1   0.0000
    12 C6      -2.5886   9.8622   1.7818   C.2       1 RES1   0.0000
    13 C7      -3.8896   9.9956   1.0369   C.3       1 RES1   0.0000
    14 H5      -3.8881   9.3934   0.2645   H         1 RES1   0.0000
    15 H6      -3.9952  10.9209   0.7290   H         1 RES1   0.0000
    16 H7      -4.6319   9.7632   1.6326   H         1 RES1   0.0000
    17 N2      -1.6495   9.0414   1.4834   N.2       1 RES1   0.0000
    18 N3      -1.9424   8.0721   0.5047   N.pl3     1 RES1   0.0000
    19 H8      -1.6964   8.1903  -0.3312   H         1 RES1   0.0000
    20 C8      -2.6275   6.9213   0.8856   C.ar      1 RES1   0.0000
    21 C9      -2.5005   5.7966   0.0423   C.ar      1 RES1   0.0000
    22 H9      -1.9472   5.8310  -0.7290   H         1 RES1   0.0000
    23 C10     -3.1879   4.6527   0.3555   C.ar      1 RES1   0.0000
    24 H10     -3.1324   3.9047  -0.2275   H         1 RES1   0.0000
    25 C11     -3.9714   4.5606   1.5099   C.ar      1 RES1   0.0000
    26 H11     -4.4128   3.7466   1.7226   H         1 RES1   0.0000
    27 C12     -4.0984   5.6440   2.3289   C.ar      1 RES1   0.0000
    28 H12     -4.6565   5.5959   3.0970   H         1 RES1   0.0000
    29 C13     -3.4173   6.8154   2.0442   C.ar      1 RES1   0.0000
    30 H13     -3.4816   7.5538   2.6378   H         1 RES1   0.0000
    31 N1A     -0.5374   7.5744   3.5520   N.ar      1 RES1   0.0000
    32 N1B      1.6471   9.4965   3.5520   N.ar      1 RES1   0.0000
    33 C1A     -1.2510   7.5043   4.7085   C.ar      1 RES1   0.0000
    34 C1B      2.0647   8.9135   4.7085   C.ar      1 RES1   0.0000
    35 H1A     -1.5328   8.3141   5.1169   H         1 RES1   0.0000
    36 H1B      1.5043   8.2646   5.1169   H         1 RES1   0.0000
    37 C2A     -1.5836   6.3012   5.3211   C.ar      1 RES1   0.0000
    38 C2B      3.2729   9.2270   5.3211   C.ar      1 RES1   0.0000
    39 H2A     -2.0409   6.2902   6.1539   H         1 RES1   0.0000
    40 H2B      3.5110   8.8366   6.1539   H         1 RES1   0.0000
    41 C3A     -1.2399   5.1394   4.6979   C.ar      1 RES1   0.0000
    42 C3B      4.1071  10.1056   4.6979   C.ar      1 RES1   0.0000
    43 H3A     -1.5003   4.3062   5.0704   H         1 RES1   0.0000
    44 H3B      4.9589  10.2967   5.0704   H         1 RES1   0.0000
    45 C4A     -0.5104   5.1765   3.5203   C.ar      1 RES1   0.0000
    46 C4B      3.7102  10.7188   3.5203   C.ar      1 RES1   0.0000
    47 H4A     -0.2477   4.3695   3.0939   H         1 RES1   0.0000
    48 H4B      4.2778  11.3499   3.0939   H         1 RES1   0.0000
    49 C5A     -0.1659   6.4002   2.9690   C.ar      1 RES1   0.0000
    50 C5B      2.4783  10.4053   2.9690   C.ar      1 RES1   0.0000
    51 C6A      0.6914   6.5762   1.7818   C.2       1 RES1   0.0000
    52 C6B      1.8972  11.0598   1.7818   C.2       1 RES1   0.0000
    53 C7A      1.2264   5.3828   1.0369   C.3       1 RES1   0.0000
    54 C7B      2.6632  12.1198   1.0369   C.3       1 RES1   0.0000
    55 H5A      1.7472   5.6853   0.2645   H         1 RES1   0.0000
    56 H5B      2.1409  12.4196   0.2645   H         1 RES1   0.0000
    57 H6A      0.4779   4.8287   0.7290   H         1 RES1   0.0000
    58 H6B      3.5173  11.7486   0.7290   H         1 RES1   0.0000
    59 H7A      1.7988   4.8562   1.6326   H         1 RES1   0.0000
    60 H7B      2.8331  12.8788   1.6326   H         1 RES1   0.0000
    61 N2A      0.9327   7.7999   1.4834   N.2       1 RES1   0.0000
    62 N2B      0.7168  10.6569   1.4834   N.2       1 RES1   0.0000
    63 N3A      1.9186   8.0309   0.5047   N.pl3     1 RES1   0.0000
    64 N3B      0.0238  11.3953   0.5047   N.pl3     1 RES1   0.0000
    65 H8A      1.6932   8.1848  -0.3312   H         1 RES1   0.0000
    66 H8B      0.0032  11.1230  -0.3312   H         1 RES1   0.0000
    67 C8A      3.2578   8.0130   0.8856   C.ar      1 RES1   0.0000
    68 C8B     -0.6303  12.5639   0.8856   C.ar      1 RES1   0.0000
    69 C9A      4.1683   8.6853   0.0423   C.ar      1 RES1   0.0000
    70 C9B     -1.6678  13.0163   0.0423   C.ar      1 RES1   0.0000
    71 H9A      3.8619   9.1473  -0.7290   H         1 RES1   0.0000
    72 H9B     -1.9147  12.5199  -0.7290   H         1 RES1   0.0000
    73 C10A     5.5027   8.6619   0.3555   C.ar      1 RES1   0.0000
    74 C10B    -2.3147  14.1836   0.3555   C.ar      1 RES1   0.0000
    75 H10A     6.1226   9.0840  -0.2275   H         1 RES1   0.0000
    76 H10B    -2.9903  14.5094  -0.2275   H         1 RES1   0.0000
    77 C11A     5.9742   8.0295   1.5099   C.ar      1 RES1   0.0000
    78 C11B    -2.0028  14.9082   1.5099   C.ar      1 RES1   0.0000
    79 H11A     6.8998   8.0542   1.7226   H         1 RES1   0.0000
    80 H11B    -2.4870  15.6974   1.7226   H         1 RES1   0.0000
    81 C12A     5.0994   7.3778   2.3289   C.ar      1 RES1   0.0000
    82 C12B    -1.0010  14.4764   2.3289   C.ar      1 RES1   0.0000
    83 H12A     5.4201   6.9186   3.0970   H         1 RES1   0.0000
    84 H12B    -0.7636  14.9838   3.0970   H         1 RES1   0.0000
    85 C13A     3.7444   7.3819   2.0442   C.ar      1 RES1   0.0000
    86 C13B    -0.3270  13.3009   2.0442   C.ar      1 RES1   0.0000
    87 H13A     3.1371   6.9570   2.6378   H         1 RES1   0.0000
    88 H13B     0.3445  12.9874   2.6378   H         1 RES1   0.0000
    89 B1      -0.0008   9.1665  -2.2961   B         2 RES2  -1.0000
    90 F1      -0.1608   7.8771  -1.7839   F         2 RES2   0.0000
    91 F2      -0.0008   9.1665  -3.6610   F         2 RES2   0.0000
    92 F1A      1.1967   9.6713  -1.7839   F         2 RES2   0.0000
    93 F1B     -1.0358   9.9498  -1.7839   F         2 RES2   0.0000
    94 B2       5.8130  11.9521   8.1431   B         3 RES3  -1.0000
    95 F3       5.9670  12.3508   6.8522   F         3 RES3   0.0000
    96 F4       6.8545  11.4104   8.8446   F         3 RES3   0.0000
    97 F5       5.1637  12.8788   8.9409   F         3 RES3   0.0000
    98 F6       4.9311  10.7958   8.0986   F         3 RES3   0.0000
@<TRIPOS>BOND
     1     1     2    1
     2     2     3   ar
     3     3     4    1
     4     5     3   ar
     5     6     5    1
     6     7     5   ar
     7     8     7    1
     8     9     7   ar
     9    10     9    1
    10    11     2   ar
    11    12    11    1
    12    13    12    1
    13    14    13    1
    14    15    13    1
    15    16    13    1
    16    17     1    1
    17    18    17    1
    18    19    18    1
    19    20    18    1
    20    21    20   ar
    21    22    21    1
    22    23    21   ar
    23    24    23    1
    24    25    23   ar
    25    26    25    1
    26    27    25   ar
    27    28    27    1
    28    29    20   ar
    29    30    29    1
    30    31     1    1
    31    32     1    1
    32    33    31   ar
    33    34    32   ar
    34    35    33    1
    35    36    34    1
    36    37    33   ar
    37    38    34   ar
    38    39    37    1
    39    40    38    1
    40    41    37   ar
    41    42    38   ar
    42    43    41    1
    43    44    42    1
    44    45    41   ar
    45    46    42   ar
    46    47    45    1
    47    48    46    1
    48    49    31   ar
    49    50    32   ar
    50    51    49    1
    51    52    50    1
    52    53    51    1
    53    54    52    1
    54    55    53    1
    55    56    54    1
    56    57    53    1
    57    58    54    1
    58    59    53    1
    59    60    54    1
    60    61     1    1
    61    62     1    1
    62    63    61    1
    63    64    62    1
    64    65    63    1
    65    66    64    1
    66    67    63    1
    67    68    64    1
    68    69    67   ar
    69    70    68   ar
    70    71    69    1
    71    72    70    1
    72    73    69   ar
    73    74    70   ar
    74    75    73    1
    75    76    74    1
    76    77    73   ar
    77    78    74   ar
    78    79    77    1
    79    80    78    1
    80    81    77   ar
    81    82    78   ar
    82    83    81    1
    83    84    82    1
    84    85    67   ar
    85    86    68   ar
    86    87    85    1
    87    88    86    1
    88     9    11   ar
    89    12    17    2
    90    27    29   ar
    91    45    49   ar
    92    46    50   ar
    93    51    61    2
    94    52    62    2
    95    81    85   ar
    96    82    86   ar
    97    89    90    1
    98    91    89    1
    99    92    89    1
   100    93    89    1
   101    94    95    1
   102    96    94    1
   103    97    94    1
   104    98    94    1
@<TRIPOS>SUBSTRUCTURE
     1 RES1        1 GROUP             0 ****  ****    0  
     2 RES2       89 GROUP             0 ****  ****    0  
     3 RES3       94 GROUP             0 ****  ****    0  
@<TRIPOS>CRYSIN
   15.8761   15.8761   10.5809   90.0000   90.0000  120.0000   173     1
