@<TRIPOS>MOLECULE
PUWFIY
    77    81     1     0     0
SMALL
NO_CHARGES
****
Generated from the CSD

@<TRIPOS>ATOM
     1 Fe1      7.4558   4.6649   7.7155   Fe        1 RES1   0.0000
     2 P1       6.3697   6.6558   7.7372   P.3       1 RES1   0.0000
     3 P2       8.4738   2.6609   7.8601   P.3       1 RES1   0.0000
     4 N1       6.1527   3.9927   6.4609   N.2       1 RES1   0.0000
     5 N2       8.5373   5.2556   9.0173   N.2       1 RES1   0.0000
     6 N3       9.1278   5.5601   9.9104   N.3       1 RES1   0.0000
     7 C1      10.5347   6.3446   6.9913   C.3       1 RES1   0.0000
     8 H1       9.9698   7.0081   7.4179   H         1 RES1   0.0000
     9 H2      11.3544   6.7648   6.6874   H         1 RES1   0.0000
    10 H3      10.7474   5.6449   7.6288   H         1 RES1   0.0000
    11 C2      10.7158   4.7017   5.1265   C.3       1 RES1   0.0000
    12 H4      10.8956   3.9786   5.7480   H         1 RES1   0.0000
    13 H5      11.5501   5.1241   4.8710   H         1 RES1   0.0000
    14 H6      10.2766   4.3471   4.3378   H         1 RES1   0.0000
    15 C3       9.7994   5.7411   5.7988   C.3       1 RES1   0.0000
    16 H7       9.6679   6.4716   5.1445   H         1 RES1   0.0000
    17 C4       8.4135   5.1453   6.0821   C.2       1 RES1   0.0000
    18 C5       7.6224   4.9169   4.9257   C.ar      1 RES1   0.0000
    19 C6       7.9209   5.2770   3.5705   C.ar      1 RES1   0.0000
    20 H8       8.7340   5.7075   3.3769   H         1 RES1   0.0000
    21 C7       7.0499   5.0078   2.5570   C.ar      1 RES1   0.0000
    22 H9       7.2701   5.2450   1.6738   H         1 RES1   0.0000
    23 C8       5.8232   4.3782   2.8259   C.ar      1 RES1   0.0000
    24 H10      5.2322   4.2048   2.1152   H         1 RES1   0.0000
    25 C9       5.4670   4.0125   4.0888   C.ar      1 RES1   0.0000
    26 H11      4.6391   3.5944   4.2441   H         1 RES1   0.0000
    27 C10      6.3605   4.2686   5.1802   C.ar      1 RES1   0.0000
    28 C11      4.9220   3.3310   6.9202   C.3       1 RES1   0.0000
    29 H12      4.1378   3.7652   6.4999   H         1 RES1   0.0000
    30 C12      4.9538   1.8238   6.5257   C.3       1 RES1   0.0000
    31 H13      5.2850   1.7517   5.6054   H         1 RES1   0.0000
    32 H14      5.5964   1.3646   7.1073   H         1 RES1   0.0000
    33 C13      3.6359   1.1041   6.6138   C.ar      1 RES1   0.0000
    34 C14      3.4092   0.1413   7.5765   C.ar      1 RES1   0.0000
    35 H15      4.0716  -0.0441   8.2167   H         1 RES1   0.0000
    36 C15      2.2070  -0.5558   7.6058   C.ar      1 RES1   0.0000
    37 H16      2.0653  -1.2095   8.2655   H         1 RES1   0.0000
    38 C16      1.2327  -0.3005   6.6874   C.ar      1 RES1   0.0000
    39 H17      0.4266  -0.7841   6.7069   H         1 RES1   0.0000
    40 C17      1.4326   0.6631   5.7353   C.ar      1 RES1   0.0000
    41 H18      0.7564   0.8538   5.1113   H         1 RES1   0.0000
    42 C18      2.6342   1.3609   5.6913   C.ar      1 RES1   0.0000
    43 H19      2.7683   2.0135   5.0292   H         1 RES1   0.0000
    44 C19      4.8700   3.5427   8.4194   C.ar      1 RES1   0.0000
    45 C20      3.7361   3.2281   9.1694   C.ar      1 RES1   0.0000
    46 H20      2.9712   2.8900   8.7401   H         1 RES1   0.0000
    47 C21      3.7335   3.4125  10.5440   C.ar      1 RES1   0.0000
    48 H21      2.9671   3.2045  11.0467   H         1 RES1   0.0000
    49 C22      4.8590   3.9009  11.1655   C.ar      1 RES1   0.0000
    50 H22      4.8685   4.0127  12.0994   H         1 RES1   0.0000
    51 C23      5.9834   4.2305  10.4133   C.ar      1 RES1   0.0000
    52 H23      6.7427   4.5620  10.8573   H         1 RES1   0.0000
    53 C24      6.0263   4.0870   9.0214   C.ar      1 RES1   0.0000
    54 C25      4.7186   6.6747   6.9919   C.3       1 RES1   0.0000
    55 H24      4.1476   6.0419   7.4550   H         1 RES1   0.0000
    56 H25      4.7836   6.4275   6.0566   H         1 RES1   0.0000
    57 H26      4.3412   7.5645   7.0663   H         1 RES1   0.0000
    58 C26      7.1772   8.0578   6.8870   C.3       1 RES1   0.0000
    59 H27      7.3264   7.8291   5.9570   H         1 RES1   0.0000
    60 H28      8.0272   8.2475   7.3124   H         1 RES1   0.0000
    61 H29      6.6062   8.8409   6.9413   H         1 RES1   0.0000
    62 C27      6.0437   7.3833   9.3729   C.3       1 RES1   0.0000
    63 H30      5.6246   8.2517   9.2635   H         1 RES1   0.0000
    64 H31      6.8797   7.4862   9.8534   H         1 RES1   0.0000
    65 H32      5.4514   6.8003   9.8749   H         1 RES1   0.0000
    66 C28      7.8282   1.4369   9.0530   C.3       1 RES1   0.0000
    67 H33      6.8890   1.2764   8.8749   H         1 RES1   0.0000
    68 H34      7.9324   1.7787   9.9549   H         1 RES1   0.0000
    69 H35      8.3214   0.6062   8.9628   H         1 RES1   0.0000
    70 C29     10.2167   2.6981   8.4122   C.3       1 RES1   0.0000
    71 H36     10.5600   1.7929   8.4589   H         1 RES1   0.0000
    72 H37     10.2697   3.1092   9.2889   H         1 RES1   0.0000
    73 H38     10.7445   3.2116   7.7811   H         1 RES1   0.0000
    74 C30      8.5660   1.6972   6.3189   C.3       1 RES1   0.0000
    75 H39      8.9578   0.8296   6.5038   H         1 RES1   0.0000
    76 H40      9.1154   2.1700   5.6738   H         1 RES1   0.0000
    77 H41      7.6734   1.5781   5.9570   H         1 RES1   0.0000
@<TRIPOS>BOND
     1     1     2    1
     2     2    54    1
     3     3     1    1
     4     4     1    1
     5     5     1    1
     6     6     5    2
     7     7     8    1
     8     9     7    1
     9    10     7    1
    10    11    12    1
    11    13    11    1
    12    14    11    1
    13    15     7    1
    14    16    15    1
    15    17     1    2
    16    18    17    1
    17    19    18   ar
    18    20    19    1
    19    21    19   ar
    20    22    21    1
    21    23    21   ar
    22    24    23    1
    23    25    23   ar
    24    26    25    1
    25    27     4    1
    26    28     4    1
    27    29    28    1
    28    30    28    1
    29    31    30    1
    30    32    30    1
    31    33    30    1
    32    34    33   ar
    33    35    34    1
    34    36    34   ar
    35    37    36    1
    36    38    36   ar
    37    39    38    1
    38    40    38   ar
    39    41    40    1
    40    42    33   ar
    41    43    42    1
    42    44    28    1
    43    45    44   ar
    44    46    45    1
    45    47    45   ar
    46    48    47    1
    47    49    47   ar
    48    50    49    1
    49    51    49   ar
    50    52    51    1
    51    53     1    1
    52    54    55    1
    53    56    54    1
    54    57    54    1
    55    58     2    1
    56    59    58    1
    57    60    58    1
    58    61    58    1
    59    62     2    1
    60    63    62    1
    61    64    62    1
    62    65    62    1
    63    66     3    1
    64    67    66    1
    65    68    66    1
    66    69    66    1
    67    70     3    1
    68    71    70    1
    69    72    70    1
    70    73    70    1
    71    74     3    1
    72    75    74    1
    73    76    74    1
    74    77    74    1
    75    11    15    1
    76    15    17    1
    77    18    27   ar
    78    25    27   ar
    79    40    42   ar
    80    44    53   ar
    81    51    53   ar
@<TRIPOS>SUBSTRUCTURE
     1 RES1        1 GROUP             0 ****  ****    0  
@<TRIPOS>CRYSIN
   10.6131   14.2296   19.7148   90.0000   97.8300   90.0000   231     1
