@<TRIPOS>MOLECULE
PUZGID
   101   106     1     0     0
SMALL
NO_CHARGES
****
Generated from the CSD

@<TRIPOS>ATOM
     1 Fe1      0.0000   0.0000   0.0000   Fe        1 RES1   0.0000
     2 S1       0.8773  -4.1815   2.1522   S.2       1 RES1   0.0000
     3 O1      -1.8116   0.8382   0.8081   O.3       1 RES1   0.0000
     4 H1      -2.3271   0.3508   1.2731   H         1 RES1   0.0000
     5 O2       2.2158   2.6625   6.4703   O.2       1 RES1   0.0000
     6 O3       7.1945   7.7679   6.8071   O.2       1 RES1   0.0000
     7 N1      -0.2089  -1.7837   1.1805   N.2       1 RES1   0.0000
     8 N2       1.1011   0.9251   1.6555   N.ar      1 RES1   0.0000
     9 N3       3.1898   3.1866   4.5079   N.am      1 RES1   0.0000
    10 H2       3.8197   3.6585   4.1613   H         1 RES1   0.0000
    11 N4       6.4561   7.3389   4.7179   N.am      1 RES1   0.0000
    12 H3       5.8307   6.9504   4.2729   H         1 RES1   0.0000
    13 N5       9.2672   9.3602   2.3391   N.ar      1 RES1   0.0000
    14 C1       0.2161  -2.7826   1.5926   C.1       1 RES1   0.0000
    15 C2       0.7917   0.8386   2.9502   C.ar      1 RES1   0.0000
    16 H4       0.0919   0.2741   3.1900   H         1 RES1   0.0000
    17 C3       1.4347   1.5261   3.9606   C.ar      1 RES1   0.0000
    18 H5       1.1722   1.4275   4.8469   H         1 RES1   0.0000
    19 C4       2.4842   2.3674   3.6168   C.ar      1 RES1   0.0000
    20 C5       2.8415   2.4172   2.2789   C.ar      1 RES1   0.0000
    21 H6       3.5611   2.9422   2.0104   H         1 RES1   0.0000
    22 C6       2.1422   1.7005   1.3553   C.ar      1 RES1   0.0000
    23 H7       2.4063   1.7551   0.4648   H         1 RES1   0.0000
    24 C7       3.0109   3.3366   5.8495   C.2       1 RES1   0.0000
    25 C8       3.8451   4.3832   6.5393   C.ar      1 RES1   0.0000
    26 C9       3.7381   4.4295   7.9189   C.ar      1 RES1   0.0000
    27 H8       3.1463   3.8533   8.3459   H         1 RES1   0.0000
    28 C10      4.4876   5.3069   8.6758   C.ar      1 RES1   0.0000
    29 C11      4.3828   5.3375  10.1839   C.3       1 RES1   0.0000
    30 H9       3.7014   4.7235  10.4688   H         1 RES1   0.0000
    31 H10      4.1545   6.2242  10.4706   H         1 RES1   0.0000
    32 H11      5.2242   5.0823  10.5680   H         1 RES1   0.0000
    33 C12      5.3548   6.1573   8.0126   C.ar      1 RES1   0.0000
    34 H12      5.8802   6.7407   8.5106   H         1 RES1   0.0000
    35 C13      5.4646   6.1678   6.6342   C.ar      1 RES1   0.0000
    36 C14      4.7090   5.2667   5.8911   C.ar      1 RES1   0.0000
    37 H13      4.7793   5.2526   4.9634   H         1 RES1   0.0000
    38 C15      6.4376   7.1636   6.0682   C.2       1 RES1   0.0000
    39 C16      7.3834   8.0854   3.9710   C.ar      1 RES1   0.0000
    40 C17      8.3651   8.9110   4.5150   C.ar      1 RES1   0.0000
    41 H14      8.4075   9.0593   5.4316   H         1 RES1   0.0000
    42 C18      9.2689   9.5009   3.6631   C.ar      1 RES1   0.0000
    43 H15      9.9286  10.0375   4.0389   H         1 RES1   0.0000
    44 C19      8.2803   8.6238   1.8264   C.ar      1 RES1   0.0000
    45 H16      8.2230   8.5447   0.9021   H         1 RES1   0.0000
    46 C20      7.3475   7.9782   2.5960   C.ar      1 RES1   0.0000
    47 H17      6.6863   7.4661   2.1890   H         1 RES1   0.0000
    48 C21     -2.0897   2.2156   1.0810   C.3       1 RES1   0.0000
    49 H18     -1.2817   2.7272   0.9974   H         1 RES1   0.0000
    50 H19     -2.4330   2.3027   1.9730   H         1 RES1   0.0000
    51 H20     -2.7404   2.5408   0.4543   H         1 RES1   0.0000
    52 S1A     -0.8773   4.1815  -2.1522   S.2       1 RES1   0.0000
    53 O1A      1.8116  -0.8382  -0.8081   O.3       1 RES1   0.0000
    54 H1A      2.3271  -0.3508  -1.2731   H         1 RES1   0.0000
    55 O2A     -2.2158  -2.6625  -6.4703   O.2       1 RES1   0.0000
    56 O3A     -7.1945  -7.7679  -6.8071   O.2       1 RES1   0.0000
    57 N1A      0.2089   1.7837  -1.1805   N.2       1 RES1   0.0000
    58 N2A     -1.1011  -0.9251  -1.6555   N.ar      1 RES1   0.0000
    59 N3A     -3.1898  -3.1866  -4.5079   N.am      1 RES1   0.0000
    60 H2A     -3.8197  -3.6585  -4.1613   H         1 RES1   0.0000
    61 N4A     -6.4561  -7.3389  -4.7179   N.am      1 RES1   0.0000
    62 H3A     -5.8307  -6.9504  -4.2729   H         1 RES1   0.0000
    63 N5A     -9.2672  -9.3602  -2.3391   N.ar      1 RES1   0.0000
    64 C1A     -0.2161   2.7826  -1.5926   C.1       1 RES1   0.0000
    65 C2A     -0.7917  -0.8386  -2.9502   C.ar      1 RES1   0.0000
    66 H4A     -0.0919  -0.2741  -3.1900   H         1 RES1   0.0000
    67 C3A     -1.4347  -1.5261  -3.9606   C.ar      1 RES1   0.0000
    68 H5A     -1.1722  -1.4275  -4.8469   H         1 RES1   0.0000
    69 C4A     -2.4842  -2.3674  -3.6168   C.ar      1 RES1   0.0000
    70 C5A     -2.8415  -2.4172  -2.2789   C.ar      1 RES1   0.0000
    71 H6A     -3.5611  -2.9422  -2.0104   H         1 RES1   0.0000
    72 C6A     -2.1422  -1.7005  -1.3553   C.ar      1 RES1   0.0000
    73 H7A     -2.4063  -1.7551  -0.4648   H         1 RES1   0.0000
    74 C7A     -3.0109  -3.3366  -5.8495   C.2       1 RES1   0.0000
    75 C8A     -3.8451  -4.3832  -6.5393   C.ar      1 RES1   0.0000
    76 C9A     -3.7381  -4.4295  -7.9189   C.ar      1 RES1   0.0000
    77 H8A     -3.1463  -3.8533  -8.3459   H         1 RES1   0.0000
    78 C10A    -4.4876  -5.3069  -8.6758   C.ar      1 RES1   0.0000
    79 C11A    -4.3828  -5.3375 -10.1839   C.3       1 RES1   0.0000
    80 H9A     -3.7014  -4.7235 -10.4688   H         1 RES1   0.0000
    81 H10A    -4.1545  -6.2242 -10.4706   H         1 RES1   0.0000
    82 H11A    -5.2242  -5.0823 -10.5680   H         1 RES1   0.0000
    83 C12A    -5.3548  -6.1573  -8.0126   C.ar      1 RES1   0.0000
    84 H12A    -5.8802  -6.7407  -8.5106   H         1 RES1   0.0000
    85 C13A    -5.4646  -6.1678  -6.6342   C.ar      1 RES1   0.0000
    86 C14A    -4.7090  -5.2667  -5.8911   C.ar      1 RES1   0.0000
    87 H13A    -4.7793  -5.2526  -4.9634   H         1 RES1   0.0000
    88 C15A    -6.4376  -7.1636  -6.0682   C.2       1 RES1   0.0000
    89 C16A    -7.3834  -8.0854  -3.9710   C.ar      1 RES1   0.0000
    90 C17A    -8.3651  -8.9110  -4.5150   C.ar      1 RES1   0.0000
    91 H14A    -8.4075  -9.0593  -5.4316   H         1 RES1   0.0000
    92 C18A    -9.2689  -9.5009  -3.6631   C.ar      1 RES1   0.0000
    93 H15A    -9.9286 -10.0375  -4.0389   H         1 RES1   0.0000
    94 C19A    -8.2803  -8.6238  -1.8264   C.ar      1 RES1   0.0000
    95 H16A    -8.2230  -8.5447  -0.9021   H         1 RES1   0.0000
    96 C20A    -7.3475  -7.9782  -2.5960   C.ar      1 RES1   0.0000
    97 H17A    -6.6863  -7.4661  -2.1890   H         1 RES1   0.0000
    98 C21A     2.0897  -2.2156  -1.0810   C.3       1 RES1   0.0000
    99 H18A     1.2817  -2.7272  -0.9974   H         1 RES1   0.0000
   100 H19A     2.4330  -2.3027  -1.9730   H         1 RES1   0.0000
   101 H20A     2.7404  -2.5408  -0.4543   H         1 RES1   0.0000
@<TRIPOS>BOND
     1     1     3    1
     2     2    14    2
     3     3     4    1
     4     5    24    2
     5     6    38    2
     6     7     1    1
     7     8     1    1
     8     9    10    1
     9    11    12    1
    10    13    42   ar
    11    14     7    2
    12    15     8   ar
    13    16    15    1
    14    17    15   ar
    15    18    17    1
    16    19     9    1
    17    20    19   ar
    18    21    20    1
    19    22     8   ar
    20    23    22    1
    21    24     9   am
    22    25    24    1
    23    26    25   ar
    24    27    26    1
    25    28    26   ar
    26    29    28    1
    27    30    29    1
    28    31    29    1
    29    32    29    1
    30    33    28   ar
    31    34    33    1
    32    35    33   ar
    33    36    25   ar
    34    37    36    1
    35    38    11   am
    36    39    11    1
    37    40    39   ar
    38    41    40    1
    39    42    40   ar
    40    43    42    1
    41    44    13   ar
    42    45    44    1
    43    46    39   ar
    44    47    46    1
    45    48     3    1
    46    49    48    1
    47    50    48    1
    48    51    48    1
    49    52    64    2
    50    53     1    1
    51    54    53    1
    52    55    74    2
    53    56    88    2
    54    57     1    1
    55    58     1    1
    56    59    60    1
    57    61    62    1
    58    63    92   ar
    59    64    57    2
    60    65    58   ar
    61    66    65    1
    62    67    65   ar
    63    68    67    1
    64    69    59    1
    65    70    69   ar
    66    71    70    1
    67    72    58   ar
    68    73    72    1
    69    74    59   am
    70    75    74    1
    71    76    75   ar
    72    77    76    1
    73    78    76   ar
    74    79    78    1
    75    80    79    1
    76    81    79    1
    77    82    79    1
    78    83    78   ar
    79    84    83    1
    80    85    83   ar
    81    86    75   ar
    82    87    86    1
    83    88    61   am
    84    89    61    1
    85    90    89   ar
    86    91    90    1
    87    92    90   ar
    88    93    92    1
    89    94    63   ar
    90    95    94    1
    91    96    89   ar
    92    97    96    1
    93    98    53    1
    94    99    98    1
    95   100    98    1
    96   101    98    1
    97    17    19   ar
    98    20    22   ar
    99    35    36   ar
   100    35    38    1
   101    44    46   ar
   102    67    69   ar
   103    70    72   ar
   104    85    86   ar
   105    85    88    1
   106    94    96   ar
@<TRIPOS>SUBSTRUCTURE
     1 RES1        1 GROUP             0 ****  ****    0  
@<TRIPOS>CRYSIN
    9.0061   10.3811   11.6830   82.8480   84.3220   67.5220     2     1
