@<TRIPOS>MOLECULE
PUZHIC01
    91    91     4     0     0
SMALL
USER_CHARGES
****
Generated from the CSD

@<TRIPOS>ATOM
     1 O1       4.4257   0.1531   4.9158   O.3       1 RES1   0.0000
     2 H18      4.5896   0.0470   5.7115   H         1 RES1   0.0000
     3 C16      3.1984   1.1180   4.7492   C.3       1 RES1   0.0000
     4 H19      3.4873   1.9881   4.4313   H         1 RES1   0.0000
     5 H20      2.5584   0.7521   4.1189   H         1 RES1   0.0000
     6 C17      2.6552   1.2153   5.9789   C.3       1 RES1   0.0000
     7 H21      2.4413   0.3379   6.3045   H         1 RES1   0.0000
     8 H22      1.8557   1.7440   5.9340   H         1 RES1   0.0000
     9 H23      3.2827   1.6324   6.5730   H         1 RES1   0.0000
    10 O2       6.3599   2.9812   7.8839   O.3       2 RES2   1.0000
    11 H24      5.6736   2.8736   8.3727   H         2 RES2   0.0000
    12 H25      7.0956   3.1062   8.3245   H         2 RES2   0.0000
    13 Fe1      1.7600   1.4016  10.9605   Fe        3 RES3   0.0000
    14 N2       4.0190   2.5450   9.1970   N.1       3 RES3   0.0000
    15 N3       2.2474   3.8456  12.7572   N.1       3 RES3   0.0000
    16 N4       3.9444  -0.0713  12.5636   N.1       3 RES3   0.0000
    17 C18      3.1607   2.1121   9.8279   C.1       3 RES3   0.0000
    18 C19      2.0349   2.9215  12.1225   C.1       3 RES3  -1.0000
    19 C20      3.1231   0.4578  11.9693   C.1       3 RES3   0.0000
    20 N2A     -0.4990   0.2581  12.7239   N.1       3 RES3   0.0000
    21 N3A      1.2726  -1.0424   9.1637   N.1       3 RES3   0.0000
    22 N4A     -0.4244   2.8745   9.3573   N.1       3 RES3   0.0000
    23 C18A     0.3593   0.6911  12.0930   C.1       3 RES3   0.0000
    24 C19A     1.4851  -0.1183   9.7984   C.1       3 RES3  -1.0000
    25 C20A     0.3969   2.3453   9.9517   C.1       3 RES3  -1.0000
    26 N1       1.4254   5.0046   1.4127   N.4       4 RES4   1.0000
    27 H1       1.2252   4.1324   1.5794   H         4 RES4   0.0000
    28 C1       0.3068   5.5976   0.6083   C.3       4 RES4   0.0000
    29 H2       0.5565   6.4882   0.3168   H         4 RES4   0.0000
    30 H3      -0.4841   5.6756   1.1651   H         4 RES4   0.0000
    31 C2       1.5833   5.7168   2.7413   C.3       4 RES4   0.0000
    32 H4       2.3491   5.3419   3.2037   H         4 RES4   0.0000
    33 H5       1.7742   6.6522   2.5691   H         4 RES4   0.0000
    34 C3       0.3944   5.6313   3.6427   C.ar      4 RES4   0.0000
    35 C4       0.1949   4.5201   4.4368   C.ar      4 RES4   0.0000
    36 H6       0.7664   3.7908   4.3568   H         4 RES4   0.0000
    37 C5      -0.8350   4.4762   5.3432   C.ar      4 RES4   0.0000
    38 H7      -0.9545   3.7197   5.8704   H         4 RES4   0.0000
    39 C6      -1.6773   5.5226   5.4735   C.ar      4 RES4   0.0000
    40 H8      -2.3702   5.4860   6.0929   H         4 RES4   0.0000
    41 C7      -1.5154   6.6287   4.7053   C.ar      4 RES4   0.0000
    42 H9      -2.1030   7.3442   4.7952   H         4 RES4   0.0000
    43 C8      -0.4756   6.6982   3.7816   C.ar      4 RES4   0.0000
    44 H10     -0.3652   7.4600   3.2596   H         4 RES4   0.0000
    45 C9       2.7391   5.0542   0.6557   C.3       4 RES4   0.0000
    46 H11      2.5872   4.7520  -0.2532   H         4 RES4   0.0000
    47 H12      3.0409   5.9751   0.6127   H         4 RES4   0.0000
    48 C10      3.8206   4.2211   1.2658   C.ar      4 RES4   0.0000
    49 C11      3.9128   2.8858   0.9579   C.ar      4 RES4   0.0000
    50 H13      3.2642   2.5001   0.4154   H         4 RES4   0.0000
    51 C12      4.9361   2.1090   1.4314   C.ar      4 RES4   0.0000
    52 H14      4.9779   1.2092   1.2024   H         4 RES4   0.0000
    53 C13      5.8783   2.6404   2.2239   C.ar      4 RES4   0.0000
    54 H15      6.5687   2.1068   2.5461   H         4 RES4   0.0000
    55 C14      5.8264   3.9736   2.5605   C.ar      4 RES4   0.0000
    56 H16      6.4786   4.3408   3.1117   H         4 RES4   0.0000
    57 C15      4.7903   4.7722   2.0716   C.ar      4 RES4   0.0000
    58 H17      4.7562   5.6759   2.2907   H         4 RES4   0.0000
    59 N1A     -1.1330   5.3333  -1.4127   N.4       4 RES4   1.0000
    60 H1A     -0.9328   6.2054  -1.5794   H         4 RES4   0.0000
    61 C1A     -0.0144   4.7403  -0.6083   C.3       4 RES4   0.0000
    62 H2A     -0.2642   3.8496  -0.3168   H         4 RES4   0.0000
    63 H3A      0.7765   4.6623  -1.1651   H         4 RES4   0.0000
    64 C2A     -1.2909   4.6210  -2.7413   C.3       4 RES4   0.0000
    65 H4A     -2.0568   4.9960  -3.2037   H         4 RES4   0.0000
    66 H5A     -1.4818   3.6857  -2.5691   H         4 RES4   0.0000
    67 C3A     -0.1020   4.7065  -3.6427   C.ar      4 RES4   0.0000
    68 C4A      0.0974   5.8177  -4.4368   C.ar      4 RES4   0.0000
    69 H6A     -0.4740   6.5471  -4.3568   H         4 RES4   0.0000
    70 C5A      1.1273   5.8616  -5.3432   C.ar      4 RES4   0.0000
    71 H7A      1.2468   6.6181  -5.8704   H         4 RES4   0.0000
    72 C6A      1.9696   4.8153  -5.4735   C.ar      4 RES4   0.0000
    73 H8A      2.6626   4.8519  -6.0929   H         4 RES4   0.0000
    74 C7A      1.8078   3.7092  -4.7053   C.ar      4 RES4   0.0000
    75 H9A      2.3954   2.9937  -4.7952   H         4 RES4   0.0000
    76 C8A      0.7680   3.6397  -3.7816   C.ar      4 RES4   0.0000
    77 H10A     0.6576   2.8778  -3.2596   H         4 RES4   0.0000
    78 C9A     -2.4468   5.2837  -0.6557   C.3       4 RES4   0.0000
    79 H11A    -2.2948   5.5859   0.2532   H         4 RES4   0.0000
    80 H12A    -2.7485   4.3628  -0.6127   H         4 RES4   0.0000
    81 C10A    -3.5282   6.1167  -1.2658   C.ar      4 RES4   0.0000
    82 C11A    -3.6204   7.4521  -0.9579   C.ar      4 RES4   0.0000
    83 H13A    -2.9718   7.8378  -0.4154   H         4 RES4   0.0000
    84 C12A    -4.6437   8.2289  -1.4314   C.ar      4 RES4   0.0000
    85 H14A    -4.6855   9.1286  -1.2024   H         4 RES4   0.0000
    86 C13A    -5.5859   7.6975  -2.2239   C.ar      4 RES4   0.0000
    87 H15A    -6.2763   8.2311  -2.5461   H         4 RES4   0.0000
    88 C14A    -5.5340   6.3643  -2.5605   C.ar      4 RES4   0.0000
    89 H16A    -6.1862   5.9971  -3.1117   H         4 RES4   0.0000
    90 C15A    -4.4979   5.5656  -2.0716   C.ar      4 RES4   0.0000
    91 H17A    -4.4639   4.6620  -2.2907   H         4 RES4   0.0000
@<TRIPOS>BOND
     1     1     2    1
     2     3     1    1
     3     4     3    1
     4     5     3    1
     5     6     3    1
     6     7     6    1
     7     8     6    1
     8     9     6    1
     9    10    11    1
    10    12    10    1
    11    13    17    1
    12    14    17    3
    13    15    18    3
    14    16    19    3
    15    18    13    1
    16    19    13    1
    17    20    23    3
    18    21    24    3
    19    22    25    3
    20    23    13    1
    21    24    13    1
    22    25    13    1
    23    26    27    1
    24    28    26    1
    25    29    28    1
    26    30    28    1
    27    31    26    1
    28    32    31    1
    29    33    31    1
    30    34    31    1
    31    35    34   ar
    32    36    35    1
    33    37    35   ar
    34    38    37    1
    35    39    37   ar
    36    40    39    1
    37    41    39   ar
    38    42    41    1
    39    43    34   ar
    40    44    43    1
    41    45    26    1
    42    46    45    1
    43    47    45    1
    44    48    45    1
    45    49    48   ar
    46    50    49    1
    47    51    49   ar
    48    52    51    1
    49    53    51   ar
    50    54    53    1
    51    55    53   ar
    52    56    55    1
    53    57    48   ar
    54    58    57    1
    55    59    60    1
    56    61    28    1
    57    62    61    1
    58    63    61    1
    59    64    59    1
    60    65    64    1
    61    66    64    1
    62    67    64    1
    63    68    67   ar
    64    69    68    1
    65    70    68   ar
    66    71    70    1
    67    72    70   ar
    68    73    72    1
    69    74    72   ar
    70    75    74    1
    71    76    67   ar
    72    77    76    1
    73    78    59    1
    74    79    78    1
    75    80    78    1
    76    81    78    1
    77    82    81   ar
    78    83    82    1
    79    84    82   ar
    80    85    84    1
    81    86    84   ar
    82    87    86    1
    83    88    86   ar
    84    89    88    1
    85    90    81   ar
    86    91    90    1
    87    41    43   ar
    88    55    57   ar
    89    59    61    1
    90    74    76   ar
    91    88    90   ar
@<TRIPOS>SUBSTRUCTURE
     1 RES1        1 GROUP             0 ****  ****    0  
     2 RES2       10 GROUP             0 ****  ****    0  
     3 RES3       13 GROUP             0 ****  ****    0  
     4 RES4       26 GROUP             0 ****  ****    0  
@<TRIPOS>CRYSIN
    9.1336   10.3420   11.1890   82.5500   80.9500   88.3800     2     1
