@<TRIPOS>MOLECULE
QADCOO
    87    90     1     0     0
SMALL
NO_CHARGES
****
Generated from the CSD

@<TRIPOS>ATOM
     1 Fe1      0.8284   1.1384  11.9865   Fe        1 RES1   0.0000
     2 Cl1      1.2819   2.9971  13.6468   Cl        1 RES1   0.0000
     3 Cl2      0.3277  -0.7921  10.3721   Cl        1 RES1   0.0000
     4 N1      -0.1961   2.5655  10.7265   N.2       1 RES1   0.0000
     5 N2      -0.6012   3.7494  11.2286   N.pl3     1 RES1   0.0000
     6 H1      -0.3244   4.0686  11.9767   H         1 RES1   0.0000
     7 N3      -1.1009   0.8250  12.9770   N.2       1 RES1   0.0000
     8 N4      -1.4908   1.6433  13.9667   N.pl3     1 RES1   0.0000
     9 H2      -0.9663   2.2143  14.3404   H         1 RES1   0.0000
    10 N5       1.8524  -0.2783  13.2524   N.2       1 RES1   0.0000
    11 N6       1.9200  -1.5826  12.9380   N.pl3     1 RES1   0.0000
    12 H3       1.5061  -1.9338  12.2702   H         1 RES1   0.0000
    13 N7       2.7144   1.4335  10.9406   N.2       1 RES1   0.0000
    14 N8       3.1090   0.4915  10.0451   N.pl3     1 RES1   0.0000
    15 H4       2.5899  -0.1237   9.7420   H         1 RES1   0.0000
    16 C1      -0.8299   2.4683   9.5823   C.2       1 RES1   0.0000
    17 H5      -0.7527   1.7715   9.0196   H         1 RES1   0.0000
    18 C2      -1.6368   3.5749   9.3505   C.2       1 RES1   0.0000
    19 H6      -2.1536   3.7285   8.6294   H         1 RES1   0.0000
    20 C3      -1.4839   4.3756  10.4340   C.2       1 RES1   0.0000
    21 C4      -2.0737   5.7142  10.7832   C.3       1 RES1   0.0000
    22 C5      -2.2590   5.8655  12.2250   C.3       1 RES1   0.0000
    23 H7      -2.6154   6.6739  12.3991   H         1 RES1   0.0000
    24 H8      -1.4625   5.7937  12.6378   H         1 RES1   0.0000
    25 H9      -2.8124   5.2227  12.5249   H         1 RES1   0.0000
    26 C6      -3.4020   5.8588  10.0451   C.3       1 RES1   0.0000
    27 H10     -3.7683   6.6562  10.2386   H         1 RES1   0.0000
    28 H11     -3.9605   5.2006  10.2998   H         1 RES1   0.0000
    29 H12     -3.2587   5.8036   9.1583   H         1 RES1   0.0000
    30 C7      -1.2061   6.8119  10.2773   C.3       1 RES1   0.0000
    31 H13     -1.5729   7.6060  10.4869   H         1 RES1   0.0000
    32 H14     -1.1274   6.7446   9.3808   H         1 RES1   0.0000
    33 H15     -0.3913   6.7490  10.6546   H         1 RES1   0.0000
    34 C8      -2.1756   0.1248  12.6910   C.2       1 RES1   0.0000
    35 H16     -2.2167  -0.5080  12.0509   H         1 RES1   0.0000
    36 C9      -3.2334   0.4904  13.5020   C.2       1 RES1   0.0000
    37 H17     -4.0624   0.1414  13.4956   H         1 RES1   0.0000
    38 C10     -2.7720   1.4854  14.3182   C.2       1 RES1   0.0000
    39 C11     -3.4414   2.2983  15.3843   C.3       1 RES1   0.0000
    40 C12     -4.1914   1.3982  16.3288   C.3       1 RES1   0.0000
    41 H18     -4.7773   0.8968  15.8657   H         1 RES1   0.0000
    42 H19     -4.6364   1.8985  16.9299   H         1 RES1   0.0000
    43 H20     -3.6101   0.8603  16.7558   H         1 RES1   0.0000
    44 C13     -2.5124   3.1232  16.1044   C.3       1 RES1   0.0000
    45 H21     -2.9501   3.5805  16.7429   H         1 RES1   0.0000
    46 H22     -2.1230   3.7019  15.5336   H         1 RES1   0.0000
    47 H23     -1.8826   2.6042  16.4817   H         1 RES1   0.0000
    48 C14     -4.5175   3.1674  14.7113   C.3       1 RES1   0.0000
    49 H24     -5.1006   2.6395  14.2759   H         1 RES1   0.0000
    50 H25     -4.1271   3.7307  14.1276   H         1 RES1   0.0000
    51 H26     -4.9547   3.6423  15.3401   H         1 RES1   0.0000
    52 C15      2.6121  -0.1712  14.3240   C.2       1 RES1   0.0000
    53 H27      2.7652   0.5986  14.7661   H         1 RES1   0.0000
    54 C16      3.1421  -1.3926  14.6806   C.2       1 RES1   0.0000
    55 H28      3.6789  -1.5627  15.3820   H         1 RES1   0.0000
    56 C17      2.7003  -2.2784  13.7745   C.2       1 RES1   0.0000
    57 C18      2.9075  -3.7561  13.6416   C.3       1 RES1   0.0000
    58 C19      1.7467  -4.4309  14.3469   C.3       1 RES1   0.0000
    59 H29      1.7208  -4.1625  15.2047   H         1 RES1   0.0000
    60 H30      1.8546  -5.3232  14.3146   H         1 RES1   0.0000
    61 H31      0.9762  -4.2067  13.9406   H         1 RES1   0.0000
    62 C20      4.1072  -4.1757  14.3566   C.3       1 RES1   0.0000
    63 H32      4.0693  -3.8787  15.2079   H         1 RES1   0.0000
    64 H33      4.8342  -3.8334  13.9535   H         1 RES1   0.0000
    65 H34      4.1582  -5.0747  14.3566   H         1 RES1   0.0000
    66 C21      2.9289  -4.2045  12.2653   C.3       1 RES1   0.0000
    67 H35      3.0475  -5.0957  12.2411   H         1 RES1   0.0000
    68 H36      3.6050  -3.8002  11.8284   H         1 RES1   0.0000
    69 H37      2.1487  -3.9946  11.8703   H         1 RES1   0.0000
    70 C22      3.7955   2.1624  11.1186   C.2       1 RES1   0.0000
    71 H38      3.8364   2.8759  11.6671   H         1 RES1   0.0000
    72 C23      4.8571   1.7074  10.3682   C.2       1 RES1   0.0000
    73 H39      5.6871   2.0542  10.3353   H         1 RES1   0.0000
    74 C24      4.3936   0.6229   9.6849   C.2       1 RES1   0.0000
    75 C25      5.0435  -0.3225   8.7145   C.3       1 RES1   0.0000
    76 C26      4.3214  -1.6168   8.6359   C.3       1 RES1   0.0000
    77 H40      4.2919  -1.9934   9.4517   H         1 RES1   0.0000
    78 H41      4.7518  -2.1657   8.0651   H         1 RES1   0.0000
    79 H42      3.4833  -1.4744   8.3392   H         1 RES1   0.0000
    80 C27      6.4138  -0.6074   9.1550   C.3       1 RES1   0.0000
    81 H43      6.3937  -1.0028   9.9612   H         1 RES1   0.0000
    82 H44      6.8790   0.1612   9.2066   H         1 RES1   0.0000
    83 H45      6.8106  -1.1574   8.5617   H         1 RES1   0.0000
    84 C28      5.0589   0.2628   7.3847   C.3       1 RES1   0.0000
    85 H46      5.4850   1.0558   7.4105   H         1 RES1   0.0000
    86 H47      4.2133   0.3854   7.1041   H         1 RES1   0.0000
    87 H48      5.4883  -0.2894   6.8203   H         1 RES1   0.0000
@<TRIPOS>BOND
     1     1     2    1
     2     3     1    1
     3     4     1    1
     4     5     4    1
     5     6     5    1
     6     7     1    1
     7     8     7    1
     8     9     8    1
     9    10     1    1
    10    11    10    1
    11    12    11    1
    12    13     1    1
    13    14    13    1
    14    15    14    1
    15    16     4    2
    16    17    16    1
    17    18    16    1
    18    19    18    1
    19    20     5    1
    20    21    20    1
    21    22    21    1
    22    23    22    1
    23    24    22    1
    24    25    22    1
    25    26    21    1
    26    27    26    1
    27    28    26    1
    28    29    26    1
    29    30    21    1
    30    31    30    1
    31    32    30    1
    32    33    30    1
    33    34     7    2
    34    35    34    1
    35    36    34    1
    36    37    36    1
    37    38     8    1
    38    39    38    1
    39    40    39    1
    40    41    40    1
    41    42    40    1
    42    43    40    1
    43    44    39    1
    44    45    44    1
    45    46    44    1
    46    47    44    1
    47    48    39    1
    48    49    48    1
    49    50    48    1
    50    51    48    1
    51    52    10    2
    52    53    52    1
    53    54    52    1
    54    55    54    1
    55    56    11    1
    56    57    56    1
    57    58    57    1
    58    59    58    1
    59    60    58    1
    60    61    58    1
    61    62    57    1
    62    63    62    1
    63    64    62    1
    64    65    62    1
    65    66    57    1
    66    67    66    1
    67    68    66    1
    68    69    66    1
    69    70    13    2
    70    71    70    1
    71    72    70    1
    72    73    72    1
    73    74    14    1
    74    75    74    1
    75    76    75    1
    76    77    76    1
    77    78    76    1
    78    79    76    1
    79    80    75    1
    80    81    80    1
    81    82    80    1
    82    83    80    1
    83    84    75    1
    84    85    84    1
    85    86    84    1
    86    87    84    1
    87    18    20    2
    88    36    38    2
    89    54    56    2
    90    72    74    2
@<TRIPOS>SUBSTRUCTURE
     1 RES1        1 GROUP             0 ****  ****    0  
@<TRIPOS>CRYSIN
   10.0000   11.0440   32.6150   90.0000   98.6100   90.0000    14     1
