@<TRIPOS>MOLECULE
QADFEH
    85    96     1     0     0
SMALL
NO_CHARGES
****
Generated from the CSD

@<TRIPOS>ATOM
     1 Fe1      5.1236   5.4259   3.2235   Fe        1 RES1   0.0000
     2 N1       3.8877   6.8929   2.7420   N.2       1 RES1   0.0000
     3 C1       1.2643   8.1358   6.5645   C.ar      1 RES1   0.0000
     4 H1       0.9361   7.2461   6.5025   H         1 RES1   0.0000
     5 C2       3.1185   7.5117   5.0029   C.2       1 RES1   0.0000
     6 C3       3.2209   7.7395   3.6359   C.2       1 RES1   0.0000
     7 C4       3.6843   7.3998   1.5233   C.2       1 RES1   0.0000
     8 H2       4.0251   7.0186   0.7234   H         1 RES1   0.0000
     9 C5       2.6026   8.7905   2.8908   C.2       1 RES1   0.0000
    10 H3       2.0845   9.5037   3.2441   H         1 RES1   0.0000
    11 C6       2.8494   9.8233   5.9196   C.ar      1 RES1   0.0000
    12 H4       3.6076  10.0932   5.4155   H         1 RES1   0.0000
    13 C7       2.8982   8.5757   1.5720   C.2       1 RES1   0.0000
    14 H5       2.6291   9.1100   0.8342   H         1 RES1   0.0000
    15 C8       2.3884   8.5104   5.8354   C.ar      1 RES1   0.0000
    16 C9       2.2012  10.7411   6.7410   C.ar      1 RES1   0.0000
    17 H6       2.5203  11.6339   6.7977   H         1 RES1   0.0000
    18 C10      0.6201   9.0552   7.3818   C.ar      1 RES1   0.0000
    19 H7      -0.1458   8.7937   7.8782   H         1 RES1   0.0000
    20 C11      1.0949  10.3558   7.4741   C.ar      1 RES1   0.0000
    21 H8       0.6602  10.9807   8.0407   H         1 RES1   0.0000
    22 C12      3.5992   6.1217   7.0662   C.2       1 RES1   0.0000
    23 H9       3.1533   6.6385   7.7274   H         1 RES1   0.0000
    24 C13      3.6631   6.4036   5.6747   C.2       1 RES1   0.0000
    25 C14      4.3060   4.9592   7.2744   C.2       1 RES1   0.0000
    26 H10      4.4420   4.5175   8.1039   H         1 RES1   0.0000
    27 N2       4.4199   5.4134   5.0526   N.2       1 RES1   0.0000
    28 C15      4.7874   4.5548   6.0184   C.2       1 RES1   0.0000
    29 H11      5.3072   3.7733   5.8706   H         1 RES1   0.0000
    30 N3       3.8028   4.0491   2.7575   N.2       1 RES1   0.0000
    31 C16      2.5652   4.2667   2.3083   C.2       1 RES1   0.0000
    32 H12      2.1722   5.1274   2.2229   H         1 RES1   0.0000
    33 C17      5.1236   0.5319   3.2235   C.ar      1 RES1   0.0000
    34 C18      1.9103   3.0594   1.9752   C.2       1 RES1   0.0000
    35 H13      1.0304   2.9654   1.6298   H         1 RES1   0.0000
    36 C19      5.1236   2.0255   3.2235   C.2       1 RES1   0.0000
    37 C20      3.9823   2.6604   2.7477   C.2       1 RES1   0.0000
    38 C21      2.7963   2.0505   2.2501   C.2       1 RES1   0.0000
    39 H14      2.6469   1.1197   2.1314   H         1 RES1   0.0000
    40 C22      5.2763  -0.1698   2.0313   C.ar      1 RES1   0.0000
    41 H15      5.3758   0.3027   1.2133   H         1 RES1   0.0000
    42 C23      5.1236  -2.2458   3.2235   C.ar      1 RES1   0.0000
    43 H16      5.1236  -3.1952   3.2235   H         1 RES1   0.0000
    44 C24      5.2845  -1.5573   2.0338   C.ar      1 RES1   0.0000
    45 H17      5.4005  -2.0346   1.2198   H         1 RES1   0.0000
    46 N1F      6.3596   6.8929   3.7050   N.2       1 RES1   0.0000
    47 C3F      7.0264   7.7395   2.8112   C.2       1 RES1   0.0000
    48 C2F      7.1288   7.5117   1.4441   C.2       1 RES1   0.0000
    49 C8F      7.8589   8.5104   0.6116   C.ar      1 RES1   0.0000
    50 C1F      8.9830   8.1358  -0.1175   C.ar      1 RES1   0.0000
    51 H1F      9.3112   7.2461  -0.0554   H         1 RES1   0.0000
    52 C10F     9.6272   9.0552  -0.9348   C.ar      1 RES1   0.0000
    53 H7F     10.3931   8.7937  -1.4312   H         1 RES1   0.0000
    54 C11F     9.1524  10.3558  -1.0271   C.ar      1 RES1   0.0000
    55 C9F      8.0461  10.7411  -0.2940   C.ar      1 RES1   0.0000
    56 C6F      7.3979   9.8233   0.5274   C.ar      1 RES1   0.0000
    57 H4F      6.6397  10.0932   1.0315   H         1 RES1   0.0000
    58 H6F      7.7270  11.6339  -0.3507   H         1 RES1   0.0000
    59 H8F      9.5871  10.9807  -1.5937   H         1 RES1   0.0000
    60 C13F     6.5842   6.4036   0.7724   C.2       1 RES1   0.0000
    61 C12F     6.6481   6.1217  -0.6192   C.2       1 RES1   0.0000
    62 H9F      7.0939   6.6385  -1.2804   H         1 RES1   0.0000
    63 C14F     5.9413   4.9592  -0.8274   C.2       1 RES1   0.0000
    64 H10F     5.8053   4.5175  -1.6569   H         1 RES1   0.0000
    65 C15F     5.4599   4.5548   0.4286   C.2       1 RES1   0.0000
    66 N2F      5.8274   5.4134   1.3944   N.2       1 RES1   0.0000
    67 C24F     4.9628  -1.5573   4.4132   C.ar      1 RES1   0.0000
    68 C22F     4.9710  -0.1698   4.4157   C.ar      1 RES1   0.0000
    69 H15F     4.8715   0.3027   5.2337   H         1 RES1   0.0000
    70 H17F     4.8468  -2.0346   5.2272   H         1 RES1   0.0000
    71 C20F     6.2650   2.6604   3.6993   C.2       1 RES1   0.0000
    72 N3F      6.4444   4.0491   3.6895   N.2       1 RES1   0.0000
    73 C16F     7.6821   4.2667   4.1387   C.2       1 RES1   0.0000
    74 H12F     8.0751   5.1274   4.2241   H         1 RES1   0.0000
    75 C18F     8.3370   3.0594   4.4718   C.2       1 RES1   0.0000
    76 H13F     9.2169   2.9654   4.8172   H         1 RES1   0.0000
    77 C21F     7.4510   2.0505   4.1969   C.2       1 RES1   0.0000
    78 H14F     7.6004   1.1197   4.3156   H         1 RES1   0.0000
    79 H11F     4.9401   3.7733   0.5764   H         1 RES1   0.0000
    80 C5F      7.6447   8.7905   3.5562   C.2       1 RES1   0.0000
    81 H3F      8.1628   9.5037   3.2029   H         1 RES1   0.0000
    82 C7F      7.3491   8.5757   4.8750   C.2       1 RES1   0.0000
    83 C4F      6.5630   7.3998   4.9237   C.2       1 RES1   0.0000
    84 H2F      6.2222   7.0186   5.7237   H         1 RES1   0.0000
    85 H5F      7.6182   9.1100   5.6128   H         1 RES1   0.0000
@<TRIPOS>BOND
     1     1     2    1
     2     2     6    1
     3     3     4    1
     4     5     6    2
     5     6     9    1
     6     7     2    2
     7     8     7    1
     8     9    10    1
     9    11    12    1
    10    13     7    1
    11    14    13    1
    12    15     3   ar
    13    16    11   ar
    14    17    16    1
    15    18     3   ar
    16    19    18    1
    17    20    16   ar
    18    21    20    1
    19    22    23    1
    20    24     5    1
    21    25    22    1
    22    26    25    1
    23    27     1    1
    24    28    25    2
    25    29    28    1
    26    30     1    1
    27    31    30    2
    28    32    31    1
    29    33    36    1
    30    34    31    1
    31    35    34    1
    32    36    37    2
    33    37    30    1
    34    38    34    2
    35    39    38    1
    36    40    33   ar
    37    41    40    1
    38    42    43    1
    39    44    40   ar
    40    45    44    1
    41    46     1    1
    42    47    46    1
    43    48    47    2
    44    49    48    1
    45    50    49   ar
    46    51    50    1
    47    52    50   ar
    48    53    52    1
    49    54    52   ar
    50    55    54   ar
    51    56    49   ar
    52    57    56    1
    53    58    55    1
    54    59    54    1
    55    60    48    1
    56    61    60    2
    57    62    61    1
    58    63    61    1
    59    64    63    1
    60    65    63    2
    61    66     1    1
    62    67    42   ar
    63    68    33   ar
    64    69    68    1
    65    70    67    1
    66    71    36    1
    67    72     1    1
    68    73    72    1
    69    74    73    1
    70    75    73    2
    71    76    75    1
    72    77    71    2
    73    78    77    1
    74    79    65    1
    75    80    47    1
    76    81    80    1
    77    82    80    2
    78    83    46    2
    79    84    83    1
    80    85    82    1
    81     5    15    1
    82     9    13    2
    83    11    15   ar
    84    18    20   ar
    85    22    24    2
    86    24    27    1
    87    27    28    1
    88    37    38    1
    89    42    44   ar
    90    55    56   ar
    91    60    66    1
    92    65    66    1
    93    67    68   ar
    94    71    72    1
    95    75    77    1
    96    82    83    1
@<TRIPOS>SUBSTRUCTURE
     1 RES1        1 GROUP             0 ****  ****    0  
@<TRIPOS>CRYSIN
   12.0659   22.7580   13.3972   90.0000  105.7530   90.0000    15     1
