@<TRIPOS>MOLECULE
QAGQIZ
   126   132     4     0     0
SMALL
USER_CHARGES
****
Generated from the CSD

@<TRIPOS>ATOM
     1 Fe1     11.8335   8.4426  12.6887   Fe        1 RES1   0.0000
     2 O1       8.7312   7.2221  15.0045   O.2       1 RES1   0.0000
     3 O2      11.7212   7.8446   8.6943   O.2       1 RES1   0.0000
     4 O3      14.9516   6.0111  13.6573   O.2       1 RES1   0.0000
     5 O4      12.0707  12.4143  13.5007   O.2       1 RES1   0.0000
     6 O5      11.5463  12.1817  10.6479   O.3       1 RES1   0.0000
     7 O6      12.5159   5.0642  15.1020   O.3       1 RES1   0.0000
     8 O7      14.2652   6.6344  10.1700   O.3       1 RES1   0.0000
     9 O8       9.3277  10.0731  15.7453   O.3       1 RES1   0.0000
    10 N1      10.7699   8.1173  14.3270   N.am      1 RES1  -1.0000
    11 N2      10.3054   7.6948  11.9022   N.ar      1 RES1   0.0000
    12 N3      12.4025   8.5253  10.8157   N.am      1 RES1   0.0000
    13 N4      12.8528   6.7529  12.9645   N.am      1 RES1   0.0000
    14 N5      13.3969   9.1629  13.4340   N.ar      1 RES1   0.0000
    15 N6      11.3148  10.3577  12.6880   N.am      1 RES1   0.0000
    16 C1       9.5725   7.5373  14.1442   C.2       1 RES1   0.0000
    17 C2       9.3068   7.2767  12.6901   C.ar      1 RES1   0.0000
    18 C3       8.1804   6.6843  12.1360   C.ar      1 RES1   0.0000
    19 H1       7.4645   6.3911  12.6884   H         1 RES1   0.0000
    20 C4       8.1227   6.5290  10.7491   C.ar      1 RES1   0.0000
    21 H2       7.3660   6.1170  10.3480   H         1 RES1   0.0000
    22 C5       9.1727   6.9774   9.9535   C.ar      1 RES1   0.0000
    23 H3       9.1387   6.8878   9.0078   H         1 RES1   0.0000
    24 C6      10.2713   7.5579  10.5729   C.ar      1 RES1   0.0000
    25 C7      11.5485   7.9991   9.9123   C.2       1 RES1   0.0000
    26 C8      14.1059   6.9008  13.4157   C.2       1 RES1   0.0000
    27 C9      14.4352   8.3484  13.6650   C.ar      1 RES1   0.0000
    28 C10     15.6398   8.8584  14.1216   C.ar      1 RES1   0.0000
    29 H4      16.3805   8.2870  14.2878   H         1 RES1   0.0000
    30 C11     15.7345  10.2359  14.3302   C.ar      1 RES1   0.0000
    31 H5      16.5537  10.6119  14.6312   H         1 RES1   0.0000
    32 C12     14.6364  11.0609  14.1011   C.ar      1 RES1   0.0000
    33 H6      14.6905  11.9969  14.2545   H         1 RES1   0.0000
    34 C13     13.4625  10.4826  13.6445   C.ar      1 RES1   0.0000
    35 C14     12.1971  11.2003  13.2716   C.2       1 RES1   0.0000
    36 C15     10.1583  10.9176  12.0725   C.ar      1 RES1   0.0000
    37 C16      8.8818  10.5305  12.4740   C.ar      1 RES1   0.0000
    38 H7       8.7853   9.9299  13.2034   H         1 RES1   0.0000
    39 C17      7.7433  11.0074  11.8256   C.ar      1 RES1   0.0000
    40 H8       6.8809  10.7211  12.1033   H         1 RES1   0.0000
    41 C18      7.8753  11.9036  10.7721   C.ar      1 RES1   0.0000
    42 H9       7.1015  12.2287  10.3269   H         1 RES1   0.0000
    43 C19      9.1385  12.3272  10.3664   C.ar      1 RES1   0.0000
    44 H10      9.2256  12.9509   9.6543   H         1 RES1   0.0000
    45 C20     10.2733  11.8350  11.0049   C.ar      1 RES1   0.0000
    46 C21     11.7137  13.3005   9.7741   C.3       1 RES1   0.0000
    47 H11     12.6693  13.4816   9.6543   H         1 RES1   0.0000
    48 H12     11.2793  14.0877  10.1640   H         1 RES1   0.0000
    49 H13     11.3078  13.1001   8.9045   H         1 RES1   0.0000
    50 C22     12.3385   5.4339  12.7863   C.ar      1 RES1   0.0000
    51 C23     11.9821   4.9835  11.5184   C.ar      1 RES1   0.0000
    52 H14     12.1705   5.5241  10.7596   H         1 RES1   0.0000
    53 C24     11.3524   3.7513  11.3432   C.ar      1 RES1   0.0000
    54 H15     11.1185   3.4564  10.4706   H         1 RES1   0.0000
    55 C25     11.0676   2.9564  12.4442   C.ar      1 RES1   0.0000
    56 H16     10.6163   2.1279  12.3310   H         1 RES1   0.0000
    57 C26     11.4452   3.3766  13.7148   C.ar      1 RES1   0.0000
    58 H17     11.2609   2.8269  14.4665   H         1 RES1   0.0000
    59 C27     12.0910   4.5966  13.8940   C.ar      1 RES1   0.0000
    60 C28     12.1076   4.3638  16.2752   C.3       1 RES1   0.0000
    61 H18     12.4097   4.8528  17.0697   H         1 RES1   0.0000
    62 H19     12.5016   3.4670  16.2744   H         1 RES1   0.0000
    63 H20     11.1302   4.2913  16.2884   H         1 RES1   0.0000
    64 C29     13.7097   8.9020  10.3876   C.ar      1 RES1   0.0000
    65 C30     14.0732  10.2453  10.3602   C.ar      1 RES1   0.0000
    66 H21     13.4290  10.9101  10.5740   H         1 RES1   0.0000
    67 C31     15.3740  10.6264  10.0216   C.ar      1 RES1   0.0000
    68 H22     15.6151  11.5449  10.0151   H         1 RES1   0.0000
    69 C32     16.3075   9.6611   9.6965   C.ar      1 RES1   0.0000
    70 H23     17.1870   9.9183   9.4475   H         1 RES1   0.0000
    71 C33     15.9638   8.3124   9.7313   C.ar      1 RES1   0.0000
    72 H24     16.6116   7.6526   9.5124   H         1 RES1   0.0000
    73 C34     14.6721   7.9285  10.0852   C.ar      1 RES1   0.0000
    74 C35     15.2830   5.6351  10.2875   C.3       1 RES1   0.0000
    75 H25     14.8665   4.7624  10.4461   H         1 RES1   0.0000
    76 H26     15.8740   5.8574  11.0382   H         1 RES1   0.0000
    77 H27     15.8055   5.6018   9.4598   H         1 RES1   0.0000
    78 C36     11.1454   8.5261  15.6376   C.ar      1 RES1   0.0000
    79 C37     12.2972   7.9967  16.2204   C.ar      1 RES1   0.0000
    80 H28     12.7954   7.3346  15.7558   H         1 RES1   0.0000
    81 C38     12.7271   8.4241  17.4715   C.ar      1 RES1   0.0000
    82 H29     13.5131   8.0495  17.8527   H         1 RES1   0.0000
    83 C39     12.0197   9.3905  18.1682   C.ar      1 RES1   0.0000
    84 H30     12.3159   9.6831  19.0212   H         1 RES1   0.0000
    85 C40     10.8687   9.9261  17.5998   C.ar      1 RES1   0.0000
    86 H31     10.3752  10.5871  18.0700   H         1 RES1   0.0000
    87 C41     10.4324   9.5018  16.3453   C.ar      1 RES1   0.0000
    88 C42      8.1263   9.9573  16.5145   C.3       1 RES1   0.0000
    89 H32      7.3667  10.2739  15.9836   H         1 RES1   0.0000
    90 H33      8.2056  10.4994  17.3272   H         1 RES1   0.0000
    91 H34      7.9844   9.0193  16.7596   H         1 RES1   0.0000
    92 N7       5.9016   2.5437  14.5341   N.4       2 RES2   1.0000
    93 C43      6.6309   3.8135  14.9418   C.3       2 RES2   0.0000
    94 H35      6.1627   4.5887  14.5418   H         2 RES2   0.0000
    95 H36      6.5751   3.9061  15.9257   H         2 RES2   0.0000
    96 C44      8.0929   3.8690  14.5331   C.3       2 RES2   0.0000
    97 H37      8.5129   4.6607  14.9290   H         2 RES2   0.0000
    98 H38      8.1569   3.9189  13.5555   H         2 RES2   0.0000
    99 H39      8.5518   3.0635  14.8501   H         2 RES2   0.0000
   100 C45      6.4430   1.3467  15.3046   C.3       2 RES2   0.0000
   101 H40      6.0773   0.5198  14.9027   H         2 RES2   0.0000
   102 H41      7.4275   1.3206  15.1987   H         2 RES2   0.0000
   103 C46      6.1154   1.3503  16.7866   C.3       2 RES2   0.0000
   104 H42      6.6346   0.6513  17.2379   H         2 RES2   0.0000
   105 H43      5.1590   1.1783  16.9103   H         2 RES2   0.0000
   106 H44      6.3417   2.2232  17.1695   H         2 RES2   0.0000
   107 C47      4.4291   2.7673  14.8277   C.3       2 RES2   0.0000
   108 H45      4.3258   2.9751  15.7909   H         2 RES2   0.0000
   109 H46      4.1201   3.5569  14.3158   H         2 RES2   0.0000
   110 C48      3.5384   1.5898  14.4872   C.3       2 RES2   0.0000
   111 H47      2.6178   1.7861  14.7608   H         2 RES2   0.0000
   112 H48      3.8560   0.7924  14.9605   H         2 RES2   0.0000
   113 H49      3.5644   1.4292  13.5205   H         2 RES2   0.0000
   114 C49      6.1331   2.2362  13.0668   C.3       2 RES2   0.0000
   115 H50      7.0992   2.0703  12.9249   H         2 RES2   0.0000
   116 H51      5.6472   1.4053  12.8338   H         2 RES2   0.0000
   117 C50      5.6840   3.3413  12.1315   C.3       2 RES2   0.0000
   118 H52      5.8605   3.0762  11.2046   H         2 RES2   0.0000
   119 H53      6.1781   4.1626  12.3363   H         2 RES2   0.0000
   120 H54      4.7238   3.4987  12.2487   H         2 RES2   0.0000
   121 O9      15.3973   6.2445  16.4220   O.3       3 RES3   0.0000
   122 H55     15.2120   6.1073  15.5544   H         3 RES3   0.0000
   123 H56     15.1977   5.6386  16.7561   H         3 RES3   0.0000
   124 O10      7.0128   6.5755  17.0355   O.3       4 RES4   0.0000
   125 H57      6.2850   6.5651  16.7053   H         4 RES4   0.0000
   126 H58      7.5565   6.6997  16.4355   H         4 RES4   0.0000
@<TRIPOS>BOND
     1     1    10    1
     2     2    16    2
     3     3    25    2
     4     4    26    2
     5     5    35    2
     6     6    45    1
     7     7    59    1
     8     8    73    1
     9     9    87    1
    10    10    16   am
    11    11     1    1
    12    12     1    1
    13    13     1    1
    14    14     1    1
    15    15     1    1
    16    16    17    1
    17    17    11   ar
    18    18    17   ar
    19    19    18    1
    20    20    18   ar
    21    21    20    1
    22    22    20   ar
    23    23    22    1
    24    24    11   ar
    25    25    12   am
    26    26    13   am
    27    27    14   ar
    28    28    27   ar
    29    29    28    1
    30    30    28   ar
    31    31    30    1
    32    32    30   ar
    33    33    32    1
    34    34    14   ar
    35    35    15   am
    36    36    15    1
    37    37    36   ar
    38    38    37    1
    39    39    37   ar
    40    40    39    1
    41    41    39   ar
    42    42    41    1
    43    43    41   ar
    44    44    43    1
    45    45    36   ar
    46    46     6    1
    47    47    46    1
    48    48    46    1
    49    49    46    1
    50    50    13    1
    51    51    50   ar
    52    52    51    1
    53    53    51   ar
    54    54    53    1
    55    55    53   ar
    56    56    55    1
    57    57    55   ar
    58    58    57    1
    59    59    50   ar
    60    60     7    1
    61    61    60    1
    62    62    60    1
    63    63    60    1
    64    64    12    1
    65    65    64   ar
    66    66    65    1
    67    67    65   ar
    68    68    67    1
    69    69    67   ar
    70    70    69    1
    71    71    69   ar
    72    72    71    1
    73    73    64   ar
    74    74     8    1
    75    75    74    1
    76    76    74    1
    77    77    74    1
    78    78    10    1
    79    79    78   ar
    80    80    79    1
    81    81    79   ar
    82    82    81    1
    83    83    81   ar
    84    84    83    1
    85    85    83   ar
    86    86    85    1
    87    87    78   ar
    88    88     9    1
    89    89    88    1
    90    90    88    1
    91    91    88    1
    92    22    24   ar
    93    24    25    1
    94    26    27    1
    95    32    34   ar
    96    34    35    1
    97    43    45   ar
    98    57    59   ar
    99    71    73   ar
   100    85    87   ar
   101    92    93    1
   102    93    94    1
   103    95    93    1
   104    96    93    1
   105    97    96    1
   106    98    96    1
   107    99    96    1
   108   100    92    1
   109   101   100    1
   110   102   100    1
   111   103   100    1
   112   104   103    1
   113   105   103    1
   114   106   103    1
   115   107    92    1
   116   108   107    1
   117   109   107    1
   118   110   107    1
   119   111   110    1
   120   112   110    1
   121   113   110    1
   122   114    92    1
   123   115   114    1
   124   116   114    1
   125   117   114    1
   126   118   117    1
   127   119   117    1
   128   120   117    1
   129   121   122    1
   130   123   121    1
   131   124   125    1
   132   126   124    1
@<TRIPOS>SUBSTRUCTURE
     1 RES1        1 GROUP             0 ****  ****    0  
     2 RES2       92 GROUP             0 ****  ****    0  
     3 RES3      121 GROUP             0 ****  ****    0  
     4 RES4      124 GROUP             0 ****  ****    0  
@<TRIPOS>CRYSIN
   11.0430   12.3769   17.9970   89.0390   76.9530   75.9300     2     1
