@<TRIPOS>MOLECULE
QAGWUQ
    97   102     1     0     0
SMALL
NO_CHARGES
****
Generated from the CSD

@<TRIPOS>ATOM
     1 Fe1     -1.3124  -2.4927   9.7801   Fe        1 RES1   0.0000
     2 O1      -1.2163  -1.7513   7.9434   O.3       1 RES1   0.0000
     3 N1       0.6049  -1.2199  10.2740   N.3       1 RES1   0.0000
     4 N2      -3.0182   0.7727   5.1208   N.3       1 RES1   0.0000
     5 N3       0.0128  -4.2200   9.1258   N.ar      1 RES1   0.0000
     6 C1      -0.4980  -0.7707   7.4084   C.ar      1 RES1   0.0000
     7 C2       0.7889  -0.4267   7.8906   C.ar      1 RES1   0.0000
     8 C3       1.5098   0.5904   7.2744   C.ar      1 RES1   0.0000
     9 H1       2.3678   0.8120   7.6157   H         1 RES1   0.0000
    10 C4       1.0278   1.2927   6.1849   C.ar      1 RES1   0.0000
    11 C5      -0.2390   0.9546   5.7184   C.ar      1 RES1   0.0000
    12 H2      -0.5918   1.4239   4.9722   H         1 RES1   0.0000
    13 C6      -1.0070  -0.0432   6.3013   C.ar      1 RES1   0.0000
    14 C7       1.4160  -1.1795   9.0280   C.3       1 RES1   0.0000
    15 H3       1.5885  -2.1090   8.7336   H         1 RES1   0.0000
    16 H4       2.2918  -0.7665   9.2353   H         1 RES1   0.0000
    17 C8       0.3500   0.1506  10.7277   C.3       1 RES1   0.0000
    18 H5      -0.1767   0.6255  10.0519   H         1 RES1   0.0000
    19 H6       1.2022   0.6142  10.8637   H         1 RES1   0.0000
    20 H7      -0.1477   0.1278  11.5727   H         1 RES1   0.0000
    21 C9       1.3928  -1.9090  11.2999   C.3       1 RES1   0.0000
    22 H8       1.5716  -2.8281  11.0114   H         1 RES1   0.0000
    23 H9       0.8910  -1.9231  12.1419   H         1 RES1   0.0000
    24 H10      2.2408  -1.4367  11.4329   H         1 RES1   0.0000
    25 C10     -2.3664  -0.3795   5.7350   C.3       1 RES1   0.0000
    26 H11     -2.2664  -1.0941   5.0563   H         1 RES1   0.0000
    27 H12     -2.9419  -0.7286   6.4607   H         1 RES1   0.0000
    28 C11     -3.4507   1.7200   6.1321   C.3       1 RES1   0.0000
    29 H13     -2.6804   2.0021   6.6680   H         1 RES1   0.0000
    30 H14     -4.1158   1.2962   6.7150   H         1 RES1   0.0000
    31 H15     -3.8500   2.5029   5.6979   H         1 RES1   0.0000
    32 C12     -4.1663   0.3581   4.3296   C.3       1 RES1   0.0000
    33 H16     -3.8781  -0.2815   3.6460   H         1 RES1   0.0000
    34 H17     -4.5642   1.1418   3.8964   H         1 RES1   0.0000
    35 H18     -4.8299  -0.0650   4.9135   H         1 RES1   0.0000
    36 C13      1.8079   2.4121   5.5453   C.3       1 RES1   0.0000
    37 H19      1.2967   2.7777   4.7932   H         1 RES1   0.0000
    38 H20      2.6664   2.0673   5.2206   H         1 RES1   0.0000
    39 H21      1.9676   3.1174   6.2064   H         1 RES1   0.0000
    40 C14      0.3950  -4.3670   7.8514   C.ar      1 RES1   0.0000
    41 H22      0.1209  -3.7164   7.2157   H         1 RES1   0.0000
    42 C15      1.1732  -5.4294   7.4231   C.ar      1 RES1   0.0000
    43 H23      1.4166  -5.5089   6.5086   H         1 RES1   0.0000
    44 C16      1.5899  -6.3719   8.3404   C.ar      1 RES1   0.0000
    45 H24      2.1216  -7.1108   8.0695   H         1 RES1   0.0000
    46 C17      1.2160  -6.2170   9.6647   C.ar      1 RES1   0.0000
    47 H25      1.4995  -6.8381  10.3238   H         1 RES1   0.0000
    48 C18      0.4233  -5.1427  10.0040   C.ar      1 RES1   0.0000
    49 H26      0.1544  -5.0523  10.9106   H         1 RES1   0.0000
    50 O1A     -1.4086  -3.2341  11.6168   O.3       1 RES1   0.0000
    51 C1A     -2.1269  -4.2147  12.1517   C.ar      1 RES1   0.0000
    52 C2A     -3.4137  -4.5587  11.6696   C.ar      1 RES1   0.0000
    53 C3A     -4.1347  -5.5758  12.2857   C.ar      1 RES1   0.0000
    54 H1A     -4.9926  -5.7974  11.9444   H         1 RES1   0.0000
    55 C4A     -3.6526  -6.2781  13.3752   C.ar      1 RES1   0.0000
    56 C5A     -2.3859  -5.9399  13.8417   C.ar      1 RES1   0.0000
    57 H2A     -2.0330  -6.4093  14.5879   H         1 RES1   0.0000
    58 C6A     -1.6178  -4.9422  13.2588   C.ar      1 RES1   0.0000
    59 C10A    -0.2585  -4.6058  13.8251   C.3       1 RES1   0.0000
    60 N2A      0.3933  -5.7581  14.4393   N.3       1 RES1   0.0000
    61 C11A     0.8258  -6.7053  13.4280   C.3       1 RES1   0.0000
    62 H13A     0.0555  -6.9875  12.8921   H         1 RES1   0.0000
    63 H14A     1.4909  -6.2816  12.8451   H         1 RES1   0.0000
    64 H15A     1.2251  -7.4883  13.8623   H         1 RES1   0.0000
    65 C12A     1.5414  -5.3434  15.2305   C.3       1 RES1   0.0000
    66 H16A     1.2533  -4.7038  15.9141   H         1 RES1   0.0000
    67 H17A     1.9393  -6.1272  15.6637   H         1 RES1   0.0000
    68 H18A     2.2051  -4.9204  14.6466   H         1 RES1   0.0000
    69 H11A    -0.3584  -3.8913  14.5038   H         1 RES1   0.0000
    70 H12A     0.3171  -4.2567  13.0994   H         1 RES1   0.0000
    71 C13A    -4.4327  -7.3975  14.0148   C.3       1 RES1   0.0000
    72 H19A    -3.9215  -7.7631  14.7669   H         1 RES1   0.0000
    73 H20A    -5.2912  -7.0527  14.3395   H         1 RES1   0.0000
    74 H21A    -4.5924  -8.1028  13.3537   H         1 RES1   0.0000
    75 C7A     -4.0409  -3.8059  10.5321   C.3       1 RES1   0.0000
    76 N1A     -3.2297  -3.7655   9.2862   N.3       1 RES1   0.0000
    77 N3A     -2.6377  -0.7654  10.4343   N.ar      1 RES1   0.0000
    78 C14A    -3.0199  -0.6184  11.7087   C.ar      1 RES1   0.0000
    79 H22A    -2.7457  -1.2689  12.3444   H         1 RES1   0.0000
    80 C15A    -3.7981   0.4440  12.1371   C.ar      1 RES1   0.0000
    81 H23A    -4.0414   0.5235  13.0515   H         1 RES1   0.0000
    82 C16A    -4.2147   1.3865  11.2197   C.ar      1 RES1   0.0000
    83 H24A    -4.7464   2.1254  11.4906   H         1 RES1   0.0000
    84 C17A    -3.8409   1.2316   9.8955   C.ar      1 RES1   0.0000
    85 H25A    -4.1243   1.8527   9.2363   H         1 RES1   0.0000
    86 C18A    -3.0482   0.1573   9.5561   C.ar      1 RES1   0.0000
    87 H26A    -2.7792   0.0669   8.6495   H         1 RES1   0.0000
    88 C8A     -2.9748  -5.1360   8.8324   C.3       1 RES1   0.0000
    89 H5A     -2.4482  -5.6109   9.5082   H         1 RES1   0.0000
    90 H6A     -3.8270  -5.5996   8.6964   H         1 RES1   0.0000
    91 H7A     -2.4772  -5.1132   7.9874   H         1 RES1   0.0000
    92 C9A     -4.0177  -3.0764   8.2602   C.3       1 RES1   0.0000
    93 H8A     -4.1965  -2.1572   8.5488   H         1 RES1   0.0000
    94 H9A     -3.5158  -3.0623   7.4182   H         1 RES1   0.0000
    95 H10A    -4.8657  -3.5487   8.1272   H         1 RES1   0.0000
    96 H3A     -4.2133  -2.8764  10.8265   H         1 RES1   0.0000
    97 H4A     -4.9166  -4.2189  10.3248   H         1 RES1   0.0000
@<TRIPOS>BOND
     1     1     2    1
     2     2     6    1
     3     3     1    1
     4     4    25    1
     5     5     1    1
     6     6     7   ar
     7     7     8   ar
     8     8     9    1
     9    10     8   ar
    10    11    10   ar
    11    12    11    1
    12    13     6   ar
    13    14     3    1
    14    15    14    1
    15    16    14    1
    16    17     3    1
    17    18    17    1
    18    19    17    1
    19    20    17    1
    20    21     3    1
    21    22    21    1
    22    23    21    1
    23    24    21    1
    24    25    13    1
    25    26    25    1
    26    27    25    1
    27    28     4    1
    28    29    28    1
    29    30    28    1
    30    31    28    1
    31    32     4    1
    32    33    32    1
    33    34    32    1
    34    35    32    1
    35    36    10    1
    36    37    36    1
    37    38    36    1
    38    39    36    1
    39    40     5   ar
    40    41    40    1
    41    42    40   ar
    42    43    42    1
    43    44    42   ar
    44    45    44    1
    45    46    44   ar
    46    47    46    1
    47    48     5   ar
    48    49    48    1
    49    50     1    1
    50    51    50    1
    51    52    51   ar
    52    53    52   ar
    53    54    53    1
    54    55    53   ar
    55    56    55   ar
    56    57    56    1
    57    58    51   ar
    58    59    58    1
    59    60    59    1
    60    61    60    1
    61    62    61    1
    62    63    61    1
    63    64    61    1
    64    65    60    1
    65    66    65    1
    66    67    65    1
    67    68    65    1
    68    69    59    1
    69    70    59    1
    70    71    55    1
    71    72    71    1
    72    73    71    1
    73    74    71    1
    74    75    52    1
    75    76     1    1
    76    77     1    1
    77    78    77   ar
    78    79    78    1
    79    80    78   ar
    80    81    80    1
    81    82    80   ar
    82    83    82    1
    83    84    82   ar
    84    85    84    1
    85    86    77   ar
    86    87    86    1
    87    88    76    1
    88    89    88    1
    89    90    88    1
    90    91    88    1
    91    92    76    1
    92    93    92    1
    93    94    92    1
    94    95    92    1
    95    96    75    1
    96    97    75    1
    97     7    14    1
    98    11    13   ar
    99    46    48   ar
   100    56    58   ar
   101    75    76    1
   102    84    86   ar
@<TRIPOS>SUBSTRUCTURE
     1 RES1        1 GROUP             0 ****  ****    0  
@<TRIPOS>CRYSIN
    9.0735   10.1035   10.1777  102.0290   97.4090  103.3870     2     1
