@<TRIPOS>MOLECULE
QAHGIQ
    93   100     3     0     0
SMALL
USER_CHARGES
****
Generated from the CSD

@<TRIPOS>ATOM
     1 Fe1      1.9887   0.4007  13.1233   Fe        1 RES1   2.0000
     2 N1       1.2514   0.7715  14.9849   N.ar      1 RES1   0.0000
     3 N2       3.4965   1.2416  13.8940   N.2       1 RES1   0.0000
     4 N3       3.1490   0.3908  11.4821   N.3       1 RES1   0.0000
     5 H1       2.7063   0.4038  10.7168   H         1 RES1   0.0000
     6 H2       3.5614  -0.2808  11.3512   H         1 RES1   0.0000
     7 N4       0.8368   1.8345  12.2670   N.ar      1 RES1   0.0000
     8 N5       0.7513  -0.7069  12.2041   N.2       1 RES1   0.0000
     9 N6       2.7127  -1.3648  13.7719   N.3       1 RES1   0.0000
    10 H3       2.9228  -1.3602  14.6614   H         1 RES1   0.0000
    11 H4       3.5073  -1.6704  13.4119   H         1 RES1   0.0000
    12 C1      -0.0173   0.6450  15.5203   C.ar      1 RES1   0.0000
    13 C2      -1.1063   0.2203  14.7191   C.ar      1 RES1   0.0000
    14 H5      -0.9418   0.0073  13.8213   H         1 RES1   0.0000
    15 C3      -2.3620   0.1322  15.2342   C.ar      1 RES1   0.0000
    16 H6      -3.1068  -0.1468  14.6537   H         1 RES1   0.0000
    17 C4      -2.6240   0.4626  16.5645   C.ar      1 RES1   0.0000
    18 H7      -3.4965   0.4222  16.9162   H         1 RES1   0.0000
    19 C5      -1.6043   0.8572  17.3680   C.ar      1 RES1   0.0000
    20 H8      -1.7212   1.1197  18.2503   H         1 RES1   0.0000
    21 C6      -0.2814   0.9734  16.8816   C.ar      1 RES1   0.0000
    22 C7       0.7686   1.3987  17.7005   C.ar      1 RES1   0.0000
    23 H9       0.6170   1.6153  18.6002   H         1 RES1   0.0000
    24 C8       1.9950   1.5368  17.1638   C.ar      1 RES1   0.0000
    25 H10      2.6088   1.8466  17.6544   H         1 RES1   0.0000
    26 C9       2.2137   1.2436  15.8109   C.ar      1 RES1   0.0000
    27 C10      3.4900   1.4387  15.1612   C.2       1 RES1   0.0000
    28 H11      4.2542   1.6777  15.5956   H         1 RES1   0.0000
    29 C11      4.6818   1.3857  13.0313   C.3       1 RES1   0.0000
    30 H12      5.0661   0.5287  13.1697   H         1 RES1   0.0000
    31 C12      5.6041   2.5625  13.3504   C.3       1 RES1   0.0000
    32 H13      4.9795   3.4014  13.2466   H         1 RES1   0.0000
    33 H14      5.9754   2.4781  14.1674   H         1 RES1   0.0000
    34 C13      6.7061   2.6304  12.3143   C.3       1 RES1   0.0000
    35 H15      7.1986   1.9274  12.4565   H         1 RES1   0.0000
    36 H16      7.3069   3.4509  12.4930   H         1 RES1   0.0000
    37 C14      6.1638   2.6855  10.8937   C.3       1 RES1   0.0000
    38 H17      5.6182   3.5427  10.8418   H         1 RES1   0.0000
    39 H18      6.8414   2.6818  10.2497   H         1 RES1   0.0000
    40 C15      5.2469   1.5217  10.6034   C.3       1 RES1   0.0000
    41 H19      4.8604   1.5162   9.7076   H         1 RES1   0.0000
    42 H20      5.8130   0.7140  10.7053   H         1 RES1   0.0000
    43 C16      4.1416   1.4813  11.6213   C.3       1 RES1   0.0000
    44 H21      3.5831   2.2174  11.5857   H         1 RES1   0.0000
    45 C17      0.8920   3.2123  12.3325   C.ar      1 RES1   0.0000
    46 C18      1.8803   3.8430  13.1043   C.ar      1 RES1   0.0000
    47 H22      2.5547   3.2729  13.6060   H         1 RES1   0.0000
    48 C19      1.9474   5.2241  13.1466   C.ar      1 RES1   0.0000
    49 H23      2.7387   5.5912  13.7079   H         1 RES1   0.0000
    50 C20      1.0327   5.9987  12.4488   C.ar      1 RES1   0.0000
    51 H24      1.0717   6.9386  12.4680   H         1 RES1   0.0000
    52 C21      0.0433   5.4260  11.7280   C.ar      1 RES1   0.0000
    53 H25     -0.6711   5.8813  11.2474   H         1 RES1   0.0000
    54 C22     -0.0498   4.0163  11.6414   C.ar      1 RES1   0.0000
    55 C23     -1.0446   3.3940  10.8572   C.ar      1 RES1   0.0000
    56 H26     -1.6346   3.8364  10.3747   H         1 RES1   0.0000
    57 C24     -1.0760   2.0338  10.7822   C.ar      1 RES1   0.0000
    58 H27     -1.8078   1.5713  10.3093   H         1 RES1   0.0000
    59 C25     -0.1234   1.2868  11.4857   C.ar      1 RES1   0.0000
    60 C26     -0.1202  -0.1707  11.4338   C.2       1 RES1   0.0000
    61 H28     -0.6495  -0.6241  10.8821   H         1 RES1   0.0000
    62 C27      1.0360  -2.1532  12.2393   C.3       1 RES1   0.0000
    63 H29      1.7104  -2.3312  11.5088   H         1 RES1   0.0000
    64 C28     -0.1299  -3.0948  11.9817   C.3       1 RES1   0.0000
    65 H30     -0.5629  -2.9553  11.1878   H         1 RES1   0.0000
    66 H31     -0.7577  -3.0104  12.6622   H         1 RES1   0.0000
    67 C29      0.3507  -4.5413  12.1182   C.3       1 RES1   0.0000
    68 H32     -0.3680  -5.1397  11.9183   H         1 RES1   0.0000
    69 H33      0.9418  -4.6624  11.4569   H         1 RES1   0.0000
    70 C30      1.0609  -4.8166  13.4080   C.3       1 RES1   0.0000
    71 H34      1.3964  -5.7454  13.4753   H         1 RES1   0.0000
    72 H35      0.4655  -4.6257  14.4749   H         1 RES1   0.0000
    73 C31      2.1867  -3.8364  13.6676   C.3       1 RES1   0.0000
    74 H36      2.6413  -3.9833  14.4557   H         1 RES1   0.0000
    75 H37      2.9552  -4.0016  13.0716   H         1 RES1   0.0000
    76 C32      1.6800  -2.4094  13.5714   C.3       1 RES1   0.0000
    77 H38      1.0500  -2.3147  14.2135   H         1 RES1   0.0000
    78 S1       3.6009  -1.8767  17.7428   S.o2      2 RES2   0.0000
    79 C33      5.0661  -2.2284  16.7259   C.3       2 RES2   0.0000
    80 O1       2.5850  -1.6843  16.7407   O.3       2 RES2  -1.0000
    81 O2       3.9587  -0.7012  18.4687   O.2       2 RES2   0.0000
    82 O3       3.4391  -3.0412  18.5669   O.2       2 RES2   0.0000
    83 F1       6.1627  -2.4254  17.4233   F         2 RES2   0.0000
    84 F2       5.2902  -1.1964  15.9065   F         2 RES2   0.0000
    85 F3       4.8864  -3.2635  15.9420   F         2 RES2   0.0000
    86 S2       6.3402  -2.2927  11.9500   S.o2      3 RES3   0.0000
    87 C34      6.4062  -4.0787  11.8279   C.3       3 RES3   0.0000
    88 O4       4.9719  -2.0256  11.6607   O.3       3 RES3  -1.0000
    89 O5       6.7050  -2.0522  13.2696   O.2       3 RES3   0.0000
    90 O6       7.2343  -1.8154  10.9763   O.2       3 RES3   0.0000
    91 F4       5.6095  -4.6900  12.5949   F         3 RES3   0.0000
    92 F5       7.6230  -4.5055  12.1297   F         3 RES3   0.0000
    93 F6       6.1324  -4.4697  10.6534   F         3 RES3   0.0000
@<TRIPOS>BOND
     1     1     2    1
     2     2    12   ar
     3     3     1    1
     4     4     1    1
     5     5     4    1
     6     6     4    1
     7     7     1    1
     8     8     1    1
     9     9     1    1
    10    10     9    1
    11    11     9    1
    12    12    13   ar
    13    13    14    1
    14    15    13   ar
    15    16    15    1
    16    17    15   ar
    17    18    17    1
    18    19    17   ar
    19    20    19    1
    20    21    12   ar
    21    22    21   ar
    22    23    22    1
    23    24    22   ar
    24    25    24    1
    25    26     2   ar
    26    27     3    2
    27    28    27    1
    28    29     3    1
    29    30    29    1
    30    31    29    1
    31    32    31    1
    32    33    31    1
    33    34    31    1
    34    35    34    1
    35    36    34    1
    36    37    34    1
    37    38    37    1
    38    39    37    1
    39    40    37    1
    40    41    40    1
    41    42    40    1
    42    43     4    1
    43    44    43    1
    44    45     7   ar
    45    46    45   ar
    46    47    46    1
    47    48    46   ar
    48    49    48    1
    49    50    48   ar
    50    51    50    1
    51    52    50   ar
    52    53    52    1
    53    54    45   ar
    54    55    54   ar
    55    56    55    1
    56    57    55   ar
    57    58    57    1
    58    59     7   ar
    59    60     8    2
    60    61    60    1
    61    62     8    1
    62    63    62    1
    63    64    62    1
    64    65    64    1
    65    66    64    1
    66    67    64    1
    67    68    67    1
    68    69    67    1
    69    70    67    1
    70    71    70    1
    71    72    70    1
    72    73    70    1
    73    74    73    1
    74    75    73    1
    75    76     9    1
    76    77    76    1
    77    19    21   ar
    78    24    26   ar
    79    26    27    1
    80    29    43    1
    81    40    43    1
    82    52    54   ar
    83    57    59   ar
    84    59    60    1
    85    62    76    1
    86    73    76    1
    87    78    79    1
    88    79    83    1
    89    80    78    1
    90    81    78    2
    91    82    78    2
    92    84    79    1
    93    85    79    1
    94    86    87    1
    95    87    91    1
    96    88    86    1
    97    89    86    2
    98    90    86    2
    99    92    87    1
   100    93    87    1
@<TRIPOS>SUBSTRUCTURE
     1 RES1        1 GROUP             0 ****  ****    0  
     2 RES2       78 GROUP             0 ****  ****    0  
     3 RES3       86 GROUP             0 ****  ****    0  
@<TRIPOS>CRYSIN
   10.8250   18.3560   19.2230   90.0000   90.0000   90.0000    19     1
