@<TRIPOS>MOLECULE
QALDOZ
   119   127     4     0     0
SMALL
USER_CHARGES
****
Generated from the CSD

@<TRIPOS>ATOM
     1 Fe1      2.3935   1.2746   4.6193   Fe        1 RES1   2.0000
     2 N1       1.1102  -0.1413   4.0944   N.ar      1 RES1   0.0000
     3 N2       2.1505   0.4591   6.3011   N.ar      1 RES1   0.0000
     4 N3       3.6624   2.3488   5.6855   N.ar      1 RES1   0.0000
     5 O1       0.4016   1.0428  13.5058   O.3       1 RES1   0.0000
     6 O2      -1.9359  -2.6097  11.7438   O.3       1 RES1   0.0000
     7 O3      -1.4012  -0.8557  13.7876   O.3       1 RES1   0.0000
     8 C1       4.4667   3.3431   5.2561   C.ar      1 RES1   0.0000
     9 H1       4.4577   3.5656   4.3528   H         1 RES1   0.0000
    10 C2       5.2982   4.0411   6.0965   C.ar      1 RES1   0.0000
    11 H2       5.8369   4.7222   5.7612   H         1 RES1   0.0000
    12 C3       5.3313   3.7278   7.4406   C.ar      1 RES1   0.0000
    13 H3       5.8952   4.1879   8.0196   H         1 RES1   0.0000
    14 C4       4.5095   2.7126   7.9125   C.ar      1 RES1   0.0000
    15 H4       4.5145   2.4833   8.8128   H         1 RES1   0.0000
    16 C5       3.6833   2.0475   7.0243   C.ar      1 RES1   0.0000
    17 C6       2.7334   0.9933   7.3955   C.ar      1 RES1   0.0000
    18 C7       2.3323   0.6283   8.6683   C.ar      1 RES1   0.0000
    19 H5       2.7616   0.9862   9.4118   H         1 RES1   0.0000
    20 C8       1.2808  -0.2795   8.8391   C.ar      1 RES1   0.0000
    21 C9       0.7472  -0.8734   7.6828   C.ar      1 RES1   0.0000
    22 H6       0.0857  -1.5235   7.7585   H         1 RES1   0.0000
    23 C10      1.1999  -0.4952   6.4355   C.ar      1 RES1   0.0000
    24 C11      0.6982  -0.9383   5.1264   C.ar      1 RES1   0.0000
    25 C12     -0.0804  -2.0594   4.9210   C.ar      1 RES1   0.0000
    26 H7      -0.3500  -2.5839   5.6398   H         1 RES1   0.0000
    27 C13     -0.4553  -2.3913   3.6287   C.ar      1 RES1   0.0000
    28 H8      -0.9705  -3.1484   3.4664   H         1 RES1   0.0000
    29 C14     -0.0494  -1.5796   2.5823   C.ar      1 RES1   0.0000
    30 H9      -0.2926  -1.7847   1.7079   H         1 RES1   0.0000
    31 C15      0.7179  -0.4660   2.8484   C.ar      1 RES1   0.0000
    32 H10      0.9742   0.0808   2.1410   H         1 RES1   0.0000
    33 C16      0.2390   0.2029  12.4369   C.ar      1 RES1   0.0000
    34 C17      0.9299   0.3433  11.2373   C.ar      1 RES1   0.0000
    35 H11      1.5639   1.0178  11.1440   H         1 RES1   0.0000
    36 C18      0.6749  -0.5247  10.1698   C.ar      1 RES1   0.0000
    37 C19     -0.2578  -1.5529  10.3382   C.ar      1 RES1   0.0000
    38 H12     -0.4157  -2.1530   9.6465   H         1 RES1   0.0000
    39 C20     -0.9536  -1.6800  11.5412   C.ar      1 RES1   0.0000
    40 C21     -0.6996  -0.8199  12.6071   C.ar      1 RES1   0.0000
    41 C22      1.4200   2.0404  13.4078   C.3       1 RES1   0.0000
    42 H13      2.2684   1.6180  13.2566   H         1 RES1   0.0000
    43 H14      1.4543   2.5444  14.2239   H         1 RES1   0.0000
    44 H15      1.2202   2.6307  12.6779   H         1 RES1   0.0000
    45 C23     -2.2266  -3.5176  10.6826   C.3       1 RES1   0.0000
    46 H16     -2.4468  -3.0237   9.8894   H         1 RES1   0.0000
    47 H17     -2.9703  -4.0727  10.9315   H         1 RES1   0.0000
    48 H18     -1.4594  -4.0685  10.5147   H         1 RES1   0.0000
    49 C24     -1.5418  -2.1335  14.4407   C.3       1 RES1   0.0000
    50 H19     -2.2840  -2.6076  14.0580   H         1 RES1   0.0000
    51 H20     -1.6971  -1.9988  15.3794   H         1 RES1   0.0000
    52 H21     -0.7385  -2.6454  14.3190   H         1 RES1   0.0000
    53 N4       3.8451   0.2144   3.8234   N.ar      1 RES1   0.0000
    54 N5       2.5594   2.1752   2.9844   N.ar      1 RES1   0.0000
    55 N6       0.9978   2.6649   4.8817   N.ar      1 RES1   0.0000
    56 O4       5.3546   4.6532  -3.5136   O.3       1 RES1   0.0000
    57 O5       1.0178   6.3389  -3.0216   O.3       1 RES1   0.0000
    58 O6       3.2646   6.0204  -4.4730   O.3       1 RES1   0.0000
    59 C25      4.4425  -0.8645   4.3611   C.ar      1 RES1   0.0000
    60 H22      4.1508  -1.1714   5.1885   H         1 RES1   0.0000
    61 C26      5.4736  -1.5345   3.7281   C.ar      1 RES1   0.0000
    62 H23      5.8668  -2.2783   4.1241   H         1 RES1   0.0000
    63 C27      5.9109  -1.0822   2.4949   C.ar      1 RES1   0.0000
    64 H24      6.6055  -1.5173   2.0560   H         1 RES1   0.0000
    65 C28      5.3068   0.0204   1.9247   C.ar      1 RES1   0.0000
    66 H25      5.5931   0.3407   1.0988   H         1 RES1   0.0000
    67 C29      4.2674   0.6438   2.5989   C.ar      1 RES1   0.0000
    68 C30      3.5231   1.8067   2.1068   C.ar      1 RES1   0.0000
    69 C31      3.7024   2.4826   0.9205   C.ar      1 RES1   0.0000
    70 H26      4.3768   2.2228   0.3359   H         1 RES1   0.0000
    71 C32      2.8682   3.5627   0.5929   C.ar      1 RES1   0.0000
    72 C33      1.8893   3.9297   1.5284   C.ar      1 RES1   0.0000
    73 H27      1.3286   4.6510   1.3518   H         1 RES1   0.0000
    74 C34      1.7544   3.2288   2.7045   C.ar      1 RES1   0.0000
    75 C35      0.8260   3.4986   3.8127   C.ar      1 RES1   0.0000
    76 C36     -0.0862   4.5334   3.8281   C.ar      1 RES1   0.0000
    77 H28     -0.2182   5.0528   3.0678   H         1 RES1   0.0000
    78 C37     -0.8024   4.7899   4.9813   C.ar      1 RES1   0.0000
    79 H29     -1.4021   5.4997   5.0206   H         1 RES1   0.0000
    80 C38     -0.6101   3.9733   6.0720   C.ar      1 RES1   0.0000
    81 H30     -1.0741   4.1339   6.8620   H         1 RES1   0.0000
    82 C39      0.2763   2.9130   5.9889   C.ar      1 RES1   0.0000
    83 H31      0.3766   2.3528   6.7244   H         1 RES1   0.0000
    84 C40      4.2576   4.7483  -2.7005   C.ar      1 RES1   0.0000
    85 C41      4.1891   4.1918  -1.4327   C.ar      1 RES1   0.0000
    86 H32      4.9319   3.7631  -1.0725   H         1 RES1   0.0000
    87 C42      2.9988   4.2745  -0.6943   C.ar      1 RES1   0.0000
    88 C43      1.9100   4.9813  -1.2113   C.ar      1 RES1   0.0000
    89 H33      1.1203   5.0426  -0.7245   H         1 RES1   0.0000
    90 C44      2.0134   5.5931  -2.4581   C.ar      1 RES1   0.0000
    91 C45      3.1705   5.4432  -3.2297   C.ar      1 RES1   0.0000
    92 C46      6.5348   4.0457  -2.9729   C.3       1 RES1   0.0000
    93 H34      6.7913   4.5054  -2.1693   H         1 RES1   0.0000
    94 H35      7.2460   4.1020  -3.6162   H         1 RES1   0.0000
    95 H36      6.3572   3.1247  -2.7723   H         1 RES1   0.0000
    96 C47     -0.1083   6.6430  -2.2065   C.3       1 RES1   0.0000
    97 H37     -0.5699   5.8328  -1.9831   H         1 RES1   0.0000
    98 H38     -0.7010   7.2271  -2.6853   H         1 RES1   0.0000
    99 H39      0.1866   7.0769  -1.4024   H         1 RES1   0.0000
   100 C48      2.4915   5.3414  -5.4854   C.3       1 RES1   0.0000
   101 H40      2.7693   4.4244  -5.5386   H         1 RES1   0.0000
   102 H41      2.6316   5.7677  -6.3339   H         1 RES1   0.0000
   103 H42      1.5604   5.3811  -5.2573   H         1 RES1   0.0000
   104 Cl1     -3.0557   7.4272   8.1930   Cl        2 RES2   0.0000
   105 O7      -3.5312   6.4931   9.1684   O.2       2 RES2   0.0000
   106 O8      -2.1709   8.3602   8.8339   O.2       2 RES2   0.0000
   107 O9      -4.2114   8.1482   7.7093   O.3       2 RES2  -1.0000
   108 O10     -2.4058   6.7580   7.1474   O.2       2 RES2   0.0000
   109 Cl2      7.8668   2.5664   0.6929   Cl        3 RES3   0.0000
   110 O11      7.2847   2.5770   1.9908   O.2       3 RES3   0.0000
   111 O12      8.2580   3.9100   0.3357   O.3       3 RES3  -1.0000
   112 O13      6.9224   2.0698  -0.2519   O.2       3 RES3   0.0000
   113 O14      9.0264   1.7578   0.6949   O.2       3 RES3   0.0000
   114 N7       1.2766   3.6819   9.0597   N.1       4 RES4   0.0000
   115 C49      2.0153   4.5314   9.1872   C.1       4 RES4   0.0000
   116 C50      2.9339   5.6005   9.3551   C.3       4 RES4   0.0000
   117 H43      3.2521   5.6093  10.2617   H         4 RES4   0.0000
   118 H44      2.4957   6.4316   9.1609   H         4 RES4   0.0000
   119 H45      3.6742   5.4827   8.7561   H         4 RES4   0.0000
@<TRIPOS>BOND
     1     1     2    1
     2     2    24   ar
     3     3     1    1
     4     4     1    1
     5     5    33    1
     6     6    39    1
     7     7    40    1
     8     8     4   ar
     9     9     8    1
    10    10     8   ar
    11    11    10    1
    12    12    10   ar
    13    13    12    1
    14    14    12   ar
    15    15    14    1
    16    16     4   ar
    17    17     3   ar
    18    18    17   ar
    19    19    18    1
    20    20    18   ar
    21    21    20   ar
    22    22    21    1
    23    23     3   ar
    24    24    23    1
    25    25    24   ar
    26    26    25    1
    27    27    25   ar
    28    28    27    1
    29    29    27   ar
    30    30    29    1
    31    31     2   ar
    32    32    31    1
    33    33    34   ar
    34    34    35    1
    35    36    20    1
    36    37    36   ar
    37    38    37    1
    38    39    37   ar
    39    40    33   ar
    40    41     5    1
    41    42    41    1
    42    43    41    1
    43    44    41    1
    44    45     6    1
    45    46    45    1
    46    47    45    1
    47    48    45    1
    48    49     7    1
    49    50    49    1
    50    51    49    1
    51    52    49    1
    52    53     1    1
    53    54     1    1
    54    55     1    1
    55    56    84    1
    56    57    90    1
    57    58    91    1
    58    59    53   ar
    59    60    59    1
    60    61    59   ar
    61    62    61    1
    62    63    61   ar
    63    64    63    1
    64    65    63   ar
    65    66    65    1
    66    67    53   ar
    67    68    54   ar
    68    69    68   ar
    69    70    69    1
    70    71    69   ar
    71    72    71   ar
    72    73    72    1
    73    74    54   ar
    74    75    55   ar
    75    76    75   ar
    76    77    76    1
    77    78    76   ar
    78    79    78    1
    79    80    78   ar
    80    81    80    1
    81    82    55   ar
    82    83    82    1
    83    84    85   ar
    84    85    86    1
    85    87    71    1
    86    88    87   ar
    87    89    88    1
    88    90    88   ar
    89    91    84   ar
    90    92    56    1
    91    93    92    1
    92    94    92    1
    93    95    92    1
    94    96    57    1
    95    97    96    1
    96    98    96    1
    97    99    96    1
    98   100    58    1
    99   101   100    1
   100   102   100    1
   101   103   100    1
   102    14    16   ar
   103    16    17    1
   104    21    23   ar
   105    29    31   ar
   106    34    36   ar
   107    39    40   ar
   108    65    67   ar
   109    67    68    1
   110    72    74   ar
   111    74    75    1
   112    80    82   ar
   113    85    87   ar
   114    90    91   ar
   115   104   105    2
   116   106   104    2
   117   107   104    1
   118   108   104    2
   119   109   110    2
   120   111   109    1
   121   112   109    2
   122   113   109    2
   123   114   115    3
   124   115   116    1
   125   116   117    1
   126   118   116    1
   127   119   116    1
@<TRIPOS>SUBSTRUCTURE
     1 RES1        1 GROUP             0 ****  ****    0  
     2 RES2      104 GROUP             0 ****  ****    0  
     3 RES3      109 GROUP             0 ****  ****    0  
     4 RES4      114 GROUP             0 ****  ****    0  
@<TRIPOS>CRYSIN
    9.5687   12.8164   20.6974   91.2280  101.1510  107.0520     2     1
