@<TRIPOS>MOLECULE
QANMUN
   144   152     2     0     0
SMALL
NO_CHARGES
****
Generated from the CSD

@<TRIPOS>ATOM
     1 Fe1      7.6459   7.8490   0.0000   Fe        1 RES1   0.0000
     2 N1       7.9509   6.1620   1.4426   N.ar      1 RES1   0.0000
     3 O1       8.8893   9.1938   1.1983   O.co2     1 RES1   0.0000
     4 O2       9.8188   7.8605  -0.2712   O.co2     1 RES1   0.0000
     5 C1       9.9195   8.7500   0.6217   C.2       1 RES1   0.0000
     6 C2      11.2665   9.2869   0.9932   C.ar      1 RES1   0.0000
     7 C3      12.1602   9.7034  -0.0135   C.ar      1 RES1   0.0000
     8 C4      13.4054  10.2110   0.3503   C.ar      1 RES1   0.0000
     9 H1      14.0010  10.5197  -0.3234   H         1 RES1   0.0000
    10 C5      13.7858  10.2727   1.6784   C.ar      1 RES1   0.0000
    11 H2      14.6468  10.6003   1.9113   H         1 RES1   0.0000
    12 C6      12.9095   9.8552   2.6696   C.ar      1 RES1   0.0000
    13 H3      13.1770   9.9002   3.5800   H         1 RES1   0.0000
    14 C7      11.6387   9.3696   2.3482   C.ar      1 RES1   0.0000
    15 C8      11.8107   9.6678  -1.4782   C.ar      1 RES1   0.0000
    16 C9      12.2441   8.5993  -2.2750   C.ar      1 RES1   0.0000
    17 C10     11.9849   8.6402  -3.6435   C.ar      1 RES1   0.0000
    18 H4      12.2639   7.9118  -4.1844   H         1 RES1   0.0000
    19 C11     11.3324   9.7066  -4.2402   C.ar      1 RES1   0.0000
    20 C12     10.9010  10.7353  -3.4299   C.ar      1 RES1   0.0000
    21 H5      10.4464  11.4700  -3.8244   H         1 RES1   0.0000
    22 C13     11.1122  10.7311  -2.0460   C.ar      1 RES1   0.0000
    23 C14     12.9370   7.4042  -1.6630   C.3       1 RES1   0.0000
    24 H6      12.3528   6.9971  -0.9912   H         1 RES1   0.0000
    25 H7      13.7722   7.6920  -1.2395   H         1 RES1   0.0000
    26 H8      13.1365   6.7480  -2.3636   H         1 RES1   0.0000
    27 C15     11.0715   9.7369  -5.7376   C.3       1 RES1   0.0000
    28 H9      11.0939  10.6641  -6.0533   H         1 RES1   0.0000
    29 H10     10.1904   9.3487  -5.9243   H         1 RES1   0.0000
    30 H11     11.7623   9.2178  -6.1996   H         1 RES1   0.0000
    31 C16     10.5742  11.8645  -1.2030   C.3       1 RES1   0.0000
    32 H12     11.3144  12.2999  -0.7295   H         1 RES1   0.0000
    33 H13      9.9335  11.5108  -0.5505   H         1 RES1   0.0000
    34 H14     10.1243  12.5175  -1.7804   H         1 RES1   0.0000
    35 C17     10.7749   8.8986   3.4799   C.ar      1 RES1   0.0000
    36 C18      9.9648   9.8112   4.1786   C.ar      1 RES1   0.0000
    37 C19      9.2661   9.3706   5.3026   C.ar      1 RES1   0.0000
    38 H15      8.7020   9.9808   5.7627   H         1 RES1   0.0000
    39 C20      9.3712   8.0729   5.7665   C.ar      1 RES1   0.0000
    40 C21     10.1630   7.1876   5.0563   C.ar      1 RES1   0.0000
    41 H16     10.2337   6.2907   5.3585   H         1 RES1   0.0000
    42 C22     10.8633   7.5716   3.9072   C.ar      1 RES1   0.0000
    43 C23      9.8303  11.2314   3.7186   C.3       1 RES1   0.0000
    44 H17      9.4924  11.2460   2.7986   H         1 RES1   0.0000
    45 H18     10.7075  11.6688   3.7494   H         1 RES1   0.0000
    46 H19      9.2068  11.7075   4.3037   H         1 RES1   0.0000
    47 C24      8.6435   7.6229   7.0137   C.3       1 RES1   0.0000
    48 H20      8.9946   8.1064   7.7913   H         1 RES1   0.0000
    49 H21      8.7748   6.6601   7.1408   H         1 RES1   0.0000
    50 H22      7.6836   7.8103   6.9194   H         1 RES1   0.0000
    51 C25     11.6700   6.5513   3.1508   C.3       1 RES1   0.0000
    52 H23     11.7017   5.7151   3.6608   H         1 RES1   0.0000
    53 H24     12.5807   6.8872   3.0199   H         1 RES1   0.0000
    54 H25     11.2562   6.3870   2.2770   H         1 RES1   0.0000
    55 C26      7.5888   6.3053   2.7408   C.ar      1 RES1   0.0000
    56 C27      7.8262   5.2902   3.6647   C.ar      1 RES1   0.0000
    57 H26      7.5632   5.4001   4.5693   H         1 RES1   0.0000
    58 C28      8.4374   4.1432   3.2663   C.ar      1 RES1   0.0000
    59 H27      8.6128   3.4546   3.8976   H         1 RES1   0.0000
    60 C29      8.7997   3.9800   1.9478   C.ar      1 RES1   0.0000
    61 H28      9.2119   3.1752   1.6572   H         1 RES1   0.0000
    62 C30      8.5509   5.0097   1.0528   C.ar      1 RES1   0.0000
    63 C31      6.9329   7.5811   3.1469   C.3       1 RES1   0.0000
    64 H29      6.7002   7.5402   4.0978   H         1 RES1   0.0000
    65 H30      6.1196   7.7140   2.6157   H         1 RES1   0.0000
    66 H31      7.5494   8.3283   2.9930   H         1 RES1   0.0000
    67 C32      8.9375   4.8643  -0.3926   C.3       1 RES1   0.0000
    68 H32      8.1426   4.9773  -0.9547   H         1 RES1   0.0000
    69 H33      9.3195   3.9737  -0.5409   H         1 RES1   0.0000
    70 H34      9.6010   5.5466  -0.6236   H         1 RES1   0.0000
    71 N1E      7.3410   9.5360  -1.4426   N.ar      1 RES1   0.0000
    72 C26E     7.7031   9.3926  -2.7408   C.ar      1 RES1   0.0000
    73 C27E     7.4657  10.4077  -3.6647   C.ar      1 RES1   0.0000
    74 H26E     7.7287  10.2979  -4.5693   H         1 RES1   0.0000
    75 C28E     6.8544  11.5547  -3.2663   C.ar      1 RES1   0.0000
    76 H27E     6.6791  12.2434  -3.8976   H         1 RES1   0.0000
    77 C29E     6.4922  11.7180  -1.9478   C.ar      1 RES1   0.0000
    78 H28E     6.0800  12.5228  -1.6572   H         1 RES1   0.0000
    79 C30E     6.7410  10.6882  -1.0528   C.ar      1 RES1   0.0000
    80 C32E     6.3543  10.8337   0.3926   C.3       1 RES1   0.0000
    81 H32E     7.1493  10.7207   0.9547   H         1 RES1   0.0000
    82 H33E     5.9723  11.7243   0.5409   H         1 RES1   0.0000
    83 H34E     5.6908  10.1513   0.6236   H         1 RES1   0.0000
    84 C31E     8.3589   8.1169  -3.1469   C.3       1 RES1   0.0000
    85 H29E     8.5916   8.1577  -4.0978   H         1 RES1   0.0000
    86 H30E     9.1722   7.9840  -2.6157   H         1 RES1   0.0000
    87 H31E     7.7425   7.3697  -2.9930   H         1 RES1   0.0000
    88 O1E      6.4025   6.5042  -1.1983   O.co2     1 RES1   0.0000
    89 C1E      5.3724   6.9479  -0.6217   C.2       1 RES1   0.0000
    90 O2E      5.4731   7.8375   0.2712   O.co2     1 RES1   0.0000
    91 C2E      4.0253   6.4110  -0.9932   C.ar      1 RES1   0.0000
    92 C3E      3.1316   5.9945   0.0135   C.ar      1 RES1   0.0000
    93 C4E      1.8865   5.4870  -0.3503   C.ar      1 RES1   0.0000
    94 H1E      1.2909   5.1782   0.3234   H         1 RES1   0.0000
    95 C5E      1.5060   5.4252  -1.6784   C.ar      1 RES1   0.0000
    96 H2E      0.6451   5.0976  -1.9113   H         1 RES1   0.0000
    97 C6E      2.3823   5.8428  -2.6696   C.ar      1 RES1   0.0000
    98 H3E      2.1148   5.7978  -3.5800   H         1 RES1   0.0000
    99 C7E      3.6531   6.3284  -2.3482   C.ar      1 RES1   0.0000
   100 C17E     4.5169   6.7993  -3.4799   C.ar      1 RES1   0.0000
   101 C18E     5.3271   5.8867  -4.1786   C.ar      1 RES1   0.0000
   102 C19E     6.0257   6.3273  -5.3026   C.ar      1 RES1   0.0000
   103 H15E     6.5899   5.7172  -5.7627   H         1 RES1   0.0000
   104 C20E     5.9207   7.6250  -5.7665   C.ar      1 RES1   0.0000
   105 C21E     5.1289   8.5104  -5.0563   C.ar      1 RES1   0.0000
   106 H16E     5.0582   9.4073  -5.3585   H         1 RES1   0.0000
   107 C22E     4.4286   8.1263  -3.9072   C.ar      1 RES1   0.0000
   108 C25E     3.6218   9.1467  -3.1508   C.3       1 RES1   0.0000
   109 H23E     3.5901   9.9828  -3.6608   H         1 RES1   0.0000
   110 H24E     2.7111   8.8107  -3.0199   H         1 RES1   0.0000
   111 H25E     4.0356   9.3110  -2.2770   H         1 RES1   0.0000
   112 C24E     6.6483   8.0750  -7.0137   C.3       1 RES1   0.0000
   113 H20E     6.2973   7.5915  -7.7913   H         1 RES1   0.0000
   114 H21E     6.5170   9.0378  -7.1408   H         1 RES1   0.0000
   115 H22E     7.6083   7.8877  -6.9194   H         1 RES1   0.0000
   116 C23E     5.4615   4.4666  -3.7186   C.3       1 RES1   0.0000
   117 H17E     5.7995   4.4519  -2.7986   H         1 RES1   0.0000
   118 H18E     4.5843   4.0291  -3.7494   H         1 RES1   0.0000
   119 H19E     6.0850   3.9904  -4.3037   H         1 RES1   0.0000
   120 C8E      3.4811   6.0301   1.4782   C.ar      1 RES1   0.0000
   121 C9E      3.0477   7.0986   2.2750   C.ar      1 RES1   0.0000
   122 C10E     3.3069   7.0578   3.6435   C.ar      1 RES1   0.0000
   123 H4E      3.0279   7.7862   4.1844   H         1 RES1   0.0000
   124 C11E     3.9594   5.9914   4.2402   C.ar      1 RES1   0.0000
   125 C12E     4.3908   4.9626   3.4299   C.ar      1 RES1   0.0000
   126 H5E      4.8454   4.2280   3.8244   H         1 RES1   0.0000
   127 C13E     4.1796   4.9668   2.0460   C.ar      1 RES1   0.0000
   128 C16E     4.7176   3.8334   1.2030   C.3       1 RES1   0.0000
   129 H12E     3.9775   3.3981   0.7295   H         1 RES1   0.0000
   130 H13E     5.3583   4.1872   0.5505   H         1 RES1   0.0000
   131 H14E     5.1676   3.1804   1.7804   H         1 RES1   0.0000
   132 C15E     4.2204   5.9610   5.7376   C.3       1 RES1   0.0000
   133 H9E      4.1980   5.0338   6.0533   H         1 RES1   0.0000
   134 H10E     5.1015   6.3493   5.9243   H         1 RES1   0.0000
   135 H11E     3.5295   6.4801   6.1996   H         1 RES1   0.0000
   136 C14E     2.3549   8.2938   1.6630   C.3       1 RES1   0.0000
   137 H6E      2.9390   8.7009   0.9912   H         1 RES1   0.0000
   138 H7E      1.5196   8.0060   1.2395   H         1 RES1   0.0000
   139 H8E      2.1553   8.9499   2.3636   H         1 RES1   0.0000
   140 C33     -2.4738   8.4727   2.1191   C.3       2 RES2   0.0000
   141 H35     -2.6213   7.5371   1.8285   H         2 RES2   0.0000
   142 H36     -3.3388   8.8243   2.4540   H         2 RES2   0.0000
   143 Cl1     -1.9779   9.3957   0.7913   Cl        2 RES2   0.0000
   144 Cl2     -1.3342   8.4905   3.3910   Cl        2 RES2   0.0000
@<TRIPOS>BOND
     1     1     2    1
     2     2    55   ar
     3     3     1    1
     4     4     1    1
     5     5     3   un
     6     6     5    1
     7     7     6   ar
     8     8     7   ar
     9     9     8    1
    10    10     8   ar
    11    11    10    1
    12    12    10   ar
    13    13    12    1
    14    14     6   ar
    15    15     7    1
    16    16    15   ar
    17    17    16   ar
    18    18    17    1
    19    19    17   ar
    20    20    19   ar
    21    21    20    1
    22    22    15   ar
    23    23    16    1
    24    24    23    1
    25    25    23    1
    26    26    23    1
    27    27    19    1
    28    28    27    1
    29    29    27    1
    30    30    27    1
    31    31    22    1
    32    32    31    1
    33    33    31    1
    34    34    31    1
    35    35    14    1
    36    36    35   ar
    37    37    36   ar
    38    38    37    1
    39    39    37   ar
    40    40    39   ar
    41    41    40    1
    42    42    35   ar
    43    43    36    1
    44    44    43    1
    45    45    43    1
    46    46    43    1
    47    47    39    1
    48    48    47    1
    49    49    47    1
    50    50    47    1
    51    51    42    1
    52    52    51    1
    53    53    51    1
    54    54    51    1
    55    55    56   ar
    56    56    57    1
    57    58    56   ar
    58    59    58    1
    59    60    58   ar
    60    61    60    1
    61    62     2   ar
    62    63    55    1
    63    64    63    1
    64    65    63    1
    65    66    63    1
    66    67    62    1
    67    68    67    1
    68    69    67    1
    69    70    67    1
    70    71     1    1
    71    72    71   ar
    72    73    72   ar
    73    74    73    1
    74    75    73   ar
    75    76    75    1
    76    77    75   ar
    77    78    77    1
    78    79    71   ar
    79    80    79    1
    80    81    80    1
    81    82    80    1
    82    83    80    1
    83    84    72    1
    84    85    84    1
    85    86    84    1
    86    87    84    1
    87    88     1    1
    88    89    88   un
    89    90     1    1
    90    91    89    1
    91    92    91   ar
    92    93    92   ar
    93    94    93    1
    94    95    93   ar
    95    96    95    1
    96    97    95   ar
    97    98    97    1
    98    99    91   ar
    99   100    99    1
   100   101   100   ar
   101   102   101   ar
   102   103   102    1
   103   104   102   ar
   104   105   104   ar
   105   106   105    1
   106   107   100   ar
   107   108   107    1
   108   109   108    1
   109   110   108    1
   110   111   108    1
   111   112   104    1
   112   113   112    1
   113   114   112    1
   114   115   112    1
   115   116   101    1
   116   117   116    1
   117   118   116    1
   118   119   116    1
   119   120    92    1
   120   121   120   ar
   121   122   121   ar
   122   123   122    1
   123   124   122   ar
   124   125   124   ar
   125   126   125    1
   126   127   120   ar
   127   128   127    1
   128   129   128    1
   129   130   128    1
   130   131   128    1
   131   132   124    1
   132   133   132    1
   133   134   132    1
   134   135   132    1
   135   136   121    1
   136   137   136    1
   137   138   136    1
   138   139   136    1
   139     4     5   un
   140    12    14   ar
   141    20    22   ar
   142    40    42   ar
   143    60    62   ar
   144    77    79   ar
   145    89    90   un
   146    97    99   ar
   147   105   107   ar
   148   125   127   ar
   149   140   141    1
   150   142   140    1
   151   143   140    1
   152   144   140    1
@<TRIPOS>SUBSTRUCTURE
     1 RES1        1 GROUP             0 ****  ****    0  
     2 RES2      140 GROUP             0 ****  ****    0  
@<TRIPOS>CRYSIN
   30.5837   10.4653   22.0172   90.0000  119.0500   90.0000    15     1
