@<TRIPOS>MOLECULE
QANMIB
   139   148     1     0     0
SMALL
NO_CHARGES
****
Generated from the CSD

@<TRIPOS>ATOM
     1 Fe1      2.8065   2.9706  17.5853   Fe        1 RES1   0.0000
     2 N1       3.7040   4.5090  16.3269   N.ar      1 RES1   0.0000
     3 O1       3.1102   1.3268  16.1004   O.co2     1 RES1   0.0000
     4 O2       1.3095   2.5960  16.1377   O.co2     1 RES1   0.0000
     5 C1       1.9732   1.6199  15.6638   C.2       1 RES1   0.0000
     6 C2       1.3704   0.7915  14.5639   C.ar      1 RES1   0.0000
     7 C3       2.0573   0.6514  13.3515   C.ar      1 RES1   0.0000
     8 C4       1.5053  -0.1542  12.3447   C.ar      1 RES1   0.0000
     9 H1       1.9506  -0.2410  11.5100   H         1 RES1   0.0000
    10 C5       0.3121  -0.8219  12.5653   C.ar      1 RES1   0.0000
    11 H2      -0.0467  -1.3843  11.8893   H         1 RES1   0.0000
    12 C6      -0.3556  -0.6742  13.7578   C.ar      1 RES1   0.0000
    13 H3      -1.1681  -1.1465  13.8962   H         1 RES1   0.0000
    14 C7       0.1337   0.1531  14.7700   C.ar      1 RES1   0.0000
    15 C8       3.3366   1.3865  13.1060   C.ar      1 RES1   0.0000
    16 C9       3.3026   2.7371  12.7250   C.ar      1 RES1   0.0000
    17 C10      4.5098   3.4103  12.5332   C.ar      1 RES1   0.0000
    18 H4       4.4924   4.3201  12.2621   H         1 RES1   0.0000
    19 C11      5.7322   2.7903  12.7259   C.ar      1 RES1   0.0000
    20 C12      5.7393   1.4592  13.0987   C.ar      1 RES1   0.0000
    21 H5       6.5723   1.0206  13.2272   H         1 RES1   0.0000
    22 C13      4.5644   0.7437  13.2910   C.ar      1 RES1   0.0000
    23 C14      1.9874   3.4700  12.5592   C.3       1 RES1   0.0000
    24 H6       1.5762   3.6068  13.4385   H         1 RES1   0.0000
    25 H7       1.3862   2.9369  11.9977   H         1 RES1   0.0000
    26 H8       2.1480   4.3375  12.1341   H         1 RES1   0.0000
    27 C15      7.0298   3.5503  12.5604   C.3       1 RES1   0.0000
    28 H9       7.7797   2.9195  12.5470   H         1 RES1   0.0000
    29 H10      7.1412   4.1735  13.3086   H         1 RES1   0.0000
    30 H11      7.0097   4.0519  11.7182   H         1 RES1   0.0000
    31 C16      4.6191  -0.6905  13.7513   C.3       1 RES1   0.0000
    32 H12      4.0002  -1.2301  13.2148   H         1 RES1   0.0000
    33 H13      4.3605  -0.7416  14.6955   H         1 RES1   0.0000
    34 H14      5.5294  -1.0347  13.6425   H         1 RES1   0.0000
    35 C17     -0.6904   0.3605  16.0144   C.ar      1 RES1   0.0000
    36 C18     -0.4527  -0.3659  17.1809   C.ar      1 RES1   0.0000
    37 C19     -1.2972  -0.1759  18.2801   C.ar      1 RES1   0.0000
    38 H15     -1.1346  -0.6677  19.0761   H         1 RES1   0.0000
    39 C20     -2.3587   0.7046  18.2444   C.ar      1 RES1   0.0000
    40 C21     -2.5523   1.4332  17.0883   C.ar      1 RES1   0.0000
    41 H16     -3.2679   2.0575  17.0585   H         1 RES1   0.0000
    42 C22     -1.7447   1.2920  15.9666   C.ar      1 RES1   0.0000
    43 C23      0.7195  -1.3170  17.3005   C.3       1 RES1   0.0000
    44 H17      0.6885  -1.7665  18.1708   H         1 RES1   0.0000
    45 H18      1.5563  -0.8143  17.2221   H         1 RES1   0.0000
    46 H19      0.6721  -1.9858  16.5858   H         1 RES1   0.0000
    47 C24     -3.2837   0.8773  19.4353   C.3       1 RES1   0.0000
    48 H20     -4.2159   0.8436  19.1305   H         1 RES1   0.0000
    49 H21     -3.1115   1.7426  19.8621   H         1 RES1   0.0000
    50 H22     -3.1259   0.1574  20.0801   H         1 RES1   0.0000
    51 C25     -1.9709   2.1541  14.7466   C.3       1 RES1   0.0000
    52 H23     -2.1727   1.5830  13.9759   H         1 RES1   0.0000
    53 H24     -1.1639   2.6785  14.5630   H         1 RES1   0.0000
    54 H25     -2.7238   2.7599  14.9098   H         1 RES1   0.0000
    55 C26      5.0100   4.6480  15.9907   C.ar      1 RES1   0.0000
    56 C27      5.4107   5.6947  15.1715   C.ar      1 RES1   0.0000
    57 H26      6.3313   5.8065  14.9658   H         1 RES1   0.0000
    58 C28      4.4837   6.5741  14.6542   C.ar      1 RES1   0.0000
    59 H27      4.7656   7.2852  14.0922   H         1 RES1   0.0000
    60 C29      3.1375   6.4199  14.9534   C.ar      1 RES1   0.0000
    61 C30      2.8205   5.3776  15.8038   C.ar      1 RES1   0.0000
    62 H28      1.9063   5.2658  16.0371   H         1 RES1   0.0000
    63 C31      5.9732   3.6350  16.5058   C.3       1 RES1   0.0000
    64 H29      6.8842   3.8858  16.2428   H         1 RES1   0.0000
    65 H30      5.7548   2.7567  16.1300   H         1 RES1   0.0000
    66 H31      5.9157   3.5959  17.4831   H         1 RES1   0.0000
    67 C32      2.0584   7.3070  14.3848   C.3       1 RES1   0.0000
    68 H32      2.0126   7.1832  13.4139   H         1 RES1   0.0000
    69 H33      2.2657   8.2439  14.5853   H         1 RES1   0.0000
    70 H34      1.1967   7.0703  14.7860   H         1 RES1   0.0000
    71 N1F      1.9090   4.5090  18.8437   N.ar      1 RES1   0.0000
    72 C26F     0.6030   4.6480  19.1800   C.ar      1 RES1   0.0000
    73 C27F     0.2023   5.6947  19.9992   C.ar      1 RES1   0.0000
    74 H26F    -0.7183   5.8065  20.2049   H         1 RES1   0.0000
    75 C28F     1.1293   6.5741  20.5165   C.ar      1 RES1   0.0000
    76 H27F     0.8475   7.2852  21.0785   H         1 RES1   0.0000
    77 C29F     2.4755   6.4199  20.2173   C.ar      1 RES1   0.0000
    78 C30F     2.7925   5.3776  19.3669   C.ar      1 RES1   0.0000
    79 H28F     3.7067   5.2658  19.1336   H         1 RES1   0.0000
    80 C32F     3.5546   7.3070  20.7859   C.3       1 RES1   0.0000
    81 H32F     3.6004   7.1832  21.7568   H         1 RES1   0.0000
    82 H33F     3.3473   8.2439  20.5854   H         1 RES1   0.0000
    83 H34F     4.4163   7.0703  20.3847   H         1 RES1   0.0000
    84 C31F    -0.3602   3.6350  18.6648   C.3       1 RES1   0.0000
    85 H29F    -1.2712   3.8858  18.9279   H         1 RES1   0.0000
    86 H30F    -0.1417   2.7567  19.0407   H         1 RES1   0.0000
    87 H31F    -0.3027   3.5959  17.6876   H         1 RES1   0.0000
    88 O1F      2.5029   1.3268  19.0702   O.co2     1 RES1   0.0000
    89 C1F      3.6398   1.6199  19.5068   C.2       1 RES1   0.0000
    90 O2F      4.3035   2.5960  19.0330   O.co2     1 RES1   0.0000
    91 C2F      4.2426   0.7915  20.6067   C.ar      1 RES1   0.0000
    92 C3F      3.5557   0.6514  21.8192   C.ar      1 RES1   0.0000
    93 C4F      4.1077  -0.1542  22.8260   C.ar      1 RES1   0.0000
    94 H1F      3.6624  -0.2410  23.6607   H         1 RES1   0.0000
    95 C5F      5.3009  -0.8219  22.6054   C.ar      1 RES1   0.0000
    96 H2F      5.6597  -1.3843  23.2813   H         1 RES1   0.0000
    97 C6F      5.9686  -0.6742  21.4128   C.ar      1 RES1   0.0000
    98 H3F      6.7811  -1.1465  21.2745   H         1 RES1   0.0000
    99 C7F      5.4793   0.1531  20.4006   C.ar      1 RES1   0.0000
   100 C17F     6.3034   0.3605  19.1563   C.ar      1 RES1   0.0000
   101 C18F     6.0657  -0.3659  17.9898   C.ar      1 RES1   0.0000
   102 C19F     6.9102  -0.1759  16.8906   C.ar      1 RES1   0.0000
   103 H15F     6.7476  -0.6677  16.0946   H         1 RES1   0.0000
   104 C20F     7.9717   0.7046  16.9262   C.ar      1 RES1   0.0000
   105 C21F     8.1653   1.4332  18.0824   C.ar      1 RES1   0.0000
   106 H16F     8.8809   2.0575  18.1122   H         1 RES1   0.0000
   107 C22F     7.3577   1.2920  19.2041   C.ar      1 RES1   0.0000
   108 C25F     7.5839   2.1541  20.4241   C.3       1 RES1   0.0000
   109 H23F     7.7857   1.5830  21.1948   H         1 RES1   0.0000
   110 H24F     6.7769   2.6785  20.6077   H         1 RES1   0.0000
   111 H25F     8.3368   2.7599  20.2609   H         1 RES1   0.0000
   112 C24F     8.8967   0.8773  15.7354   C.3       1 RES1   0.0000
   113 H20F     9.8289   0.8436  16.0402   H         1 RES1   0.0000
   114 H21F     8.7245   1.7426  15.3086   H         1 RES1   0.0000
   115 H22F     8.7389   0.1574  15.0906   H         1 RES1   0.0000
   116 C23F     4.8935  -1.3170  17.8702   C.3       1 RES1   0.0000
   117 H17F     4.9245  -1.7665  16.9999   H         1 RES1   0.0000
   118 H18F     4.0568  -0.8143  17.9485   H         1 RES1   0.0000
   119 H19F     4.9409  -1.9858  18.5849   H         1 RES1   0.0000
   120 C8F      2.2764   1.3865  22.0647   C.ar      1 RES1   0.0000
   121 C9F      2.3104   2.7371  22.4457   C.ar      1 RES1   0.0000
   122 C10F     1.1032   3.4103  22.6375   C.ar      1 RES1   0.0000
   123 H4F      1.1206   4.3201  22.9085   H         1 RES1   0.0000
   124 C11F    -0.1192   2.7903  22.4448   C.ar      1 RES1   0.0000
   125 C12F    -0.1263   1.4592  22.0719   C.ar      1 RES1   0.0000
   126 H5F     -0.9593   1.0206  21.9435   H         1 RES1   0.0000
   127 C13F     1.0486   0.7437  21.8797   C.ar      1 RES1   0.0000
   128 C16F     0.9939  -0.6905  21.4194   C.3       1 RES1   0.0000
   129 H12F     1.6128  -1.2301  21.9559   H         1 RES1   0.0000
   130 H13F     1.2525  -0.7416  20.4752   H         1 RES1   0.0000
   131 H14F     0.0837  -1.0347  21.5282   H         1 RES1   0.0000
   132 C15F    -1.4168   3.5503  22.6103   C.3       1 RES1   0.0000
   133 H9F     -2.1667   2.9195  22.6237   H         1 RES1   0.0000
   134 H10F    -1.5282   4.1735  21.8621   H         1 RES1   0.0000
   135 H11F    -1.3967   4.0519  23.4525   H         1 RES1   0.0000
   136 C14F     3.6256   3.4700  22.6115   C.3       1 RES1   0.0000
   137 H6F      4.0368   3.6068  21.7322   H         1 RES1   0.0000
   138 H7F      4.2269   2.9369  23.1730   H         1 RES1   0.0000
   139 H8F      3.4650   4.3375  23.0366   H         1 RES1   0.0000
@<TRIPOS>BOND
     1     1     2    1
     2     2    55   ar
     3     3     1    1
     4     4     1    1
     5     5     3   un
     6     6     5    1
     7     7     6   ar
     8     8     7   ar
     9     9     8    1
    10    10     8   ar
    11    11    10    1
    12    12    10   ar
    13    13    12    1
    14    14     6   ar
    15    15     7    1
    16    16    15   ar
    17    17    16   ar
    18    18    17    1
    19    19    17   ar
    20    20    19   ar
    21    21    20    1
    22    22    15   ar
    23    23    16    1
    24    24    23    1
    25    25    23    1
    26    26    23    1
    27    27    19    1
    28    28    27    1
    29    29    27    1
    30    30    27    1
    31    31    22    1
    32    32    31    1
    33    33    31    1
    34    34    31    1
    35    35    14    1
    36    36    35   ar
    37    37    36   ar
    38    38    37    1
    39    39    37   ar
    40    40    39   ar
    41    41    40    1
    42    42    35   ar
    43    43    36    1
    44    44    43    1
    45    45    43    1
    46    46    43    1
    47    47    39    1
    48    48    47    1
    49    49    47    1
    50    50    47    1
    51    51    42    1
    52    52    51    1
    53    53    51    1
    54    54    51    1
    55    55    56   ar
    56    56    57    1
    57    58    56   ar
    58    59    58    1
    59    60    58   ar
    60    61     2   ar
    61    62    61    1
    62    63    55    1
    63    64    63    1
    64    65    63    1
    65    66    63    1
    66    67    60    1
    67    68    67    1
    68    69    67    1
    69    70    67    1
    70    71     1    1
    71    72    71   ar
    72    73    72   ar
    73    74    73    1
    74    75    73   ar
    75    76    75    1
    76    77    75   ar
    77    78    71   ar
    78    79    78    1
    79    80    77    1
    80    81    80    1
    81    82    80    1
    82    83    80    1
    83    84    72    1
    84    85    84    1
    85    86    84    1
    86    87    84    1
    87    88     1    1
    88    89    88   un
    89    90     1    1
    90    91    89    1
    91    92    91   ar
    92    93    92   ar
    93    94    93    1
    94    95    93   ar
    95    96    95    1
    96    97    95   ar
    97    98    97    1
    98    99    91   ar
    99   100    99    1
   100   101   100   ar
   101   102   101   ar
   102   103   102    1
   103   104   102   ar
   104   105   104   ar
   105   106   105    1
   106   107   100   ar
   107   108   107    1
   108   109   108    1
   109   110   108    1
   110   111   108    1
   111   112   104    1
   112   113   112    1
   113   114   112    1
   114   115   112    1
   115   116   101    1
   116   117   116    1
   117   118   116    1
   118   119   116    1
   119   120    92    1
   120   121   120   ar
   121   122   121   ar
   122   123   122    1
   123   124   122   ar
   124   125   124   ar
   125   126   125    1
   126   127   120   ar
   127   128   127    1
   128   129   128    1
   129   130   128    1
   130   131   128    1
   131   132   124    1
   132   133   132    1
   133   134   132    1
   134   135   132    1
   135   136   121    1
   136   137   136    1
   137   138   136    1
   138   139   136    1
   139     4     5   un
   140    12    14   ar
   141    20    22   ar
   142    40    42   ar
   143    60    61   ar
   144    77    78   ar
   145    89    90   un
   146    97    99   ar
   147   105   107   ar
   148   125   127   ar
@<TRIPOS>SUBSTRUCTURE
     1 RES1        1 GROUP             0 ****  ****    0  
@<TRIPOS>CRYSIN
   21.3773   10.8573   25.6947   90.0000  114.1430   90.0000    15     1
