@<TRIPOS>MOLECULE
QATSAF
    99   108     1     0     0
SMALL
NO_CHARGES
****
Generated from the CSD

@<TRIPOS>ATOM
     1 Fe1      3.3332   1.9106  -1.3271   Fe        1 RES1   0.0000
     2 O1       0.7680   1.1347  -1.2190   O.2       1 RES1   0.0000
     3 N1       2.3392   3.2814  -0.2745   N.2       1 RES1   0.0000
     4 N2       2.4910   2.5362  -3.0239   N.2       1 RES1   0.0000
     5 N3       4.4427   0.6602  -2.3960   N.2       1 RES1   0.0000
     6 N4       4.3558   1.4973   0.3337   N.2       1 RES1   0.0000
     7 N5       1.9628   0.7080  -1.0877   N.2       1 RES1   0.0000
     8 N6       4.7891   3.4035  -1.6906   N.ar      1 RES1   0.0000
     9 C1       2.1241   3.3309   1.0561   C.2       1 RES1   0.0000
    10 C2       1.3317   4.4636   1.3858   C.2       1 RES1   0.0000
    11 H1       1.0154   4.6937   2.2515   H         1 RES1   0.0000
    12 C3       1.1071   5.1539   0.2417   C.2       1 RES1   0.0000
    13 H2       0.6247   5.9680   0.1589   H         1 RES1   0.0000
    14 C4       1.7319   4.4265  -0.8157   C.2       1 RES1   0.0000
    15 C5       1.6433   4.7132  -2.1845   C.2       1 RES1   0.0000
    16 C6       1.9707   3.8194  -3.2104   C.2       1 RES1   0.0000
    17 C7       1.7129   3.9875  -4.5963   C.2       1 RES1   0.0000
    18 H3       1.3792   4.7734  -5.0100   H         1 RES1   0.0000
    19 C8       2.0276   2.8212  -5.2307   C.2       1 RES1   0.0000
    20 H4       1.9232   2.6318  -6.1555   H         1 RES1   0.0000
    21 C9       2.5464   1.9433  -4.2350   C.2       1 RES1   0.0000
    22 C10      3.0193   0.5239  -4.4951   C.3       1 RES1   0.0000
    23 C11      4.2102   0.1699  -3.6163   C.2       1 RES1   0.0000
    24 C12      5.2589  -0.7274  -4.0170   C.2       1 RES1   0.0000
    25 H5       5.3031  -1.2230  -4.8248   H         1 RES1   0.0000
    26 C13      6.1714  -0.7257  -3.0134   C.2       1 RES1   0.0000
    27 H6       6.9860  -1.2141  -2.9989   H         1 RES1   0.0000
    28 C14      5.6970   0.1363  -1.9914   C.2       1 RES1   0.0000
    29 C15      6.3011   0.3593  -0.7448   C.2       1 RES1   0.0000
    30 C16      5.6796   1.0141   0.3258   C.2       1 RES1   0.0000
    31 C17      6.1936   1.1221   1.6591   C.2       1 RES1   0.0000
    32 H7       7.0714   0.8938   1.9441   H         1 RES1   0.0000
    33 C18      5.1893   1.6124   2.4433   C.2       1 RES1   0.0000
    34 H8       5.2288   1.7681   3.3799   H         1 RES1   0.0000
    35 C19      4.0584   1.8513   1.5868   C.2       1 RES1   0.0000
    36 C20      2.6872   2.3362   2.0426   C.3       1 RES1   0.0000
    37 C21      1.2084   6.1079  -2.5799   C.3       1 RES1   0.0000
    38 H9       0.5393   6.4406  -1.9310   H         1 RES1   0.0000
    39 H10      0.7829   6.0795  -3.4731   H         1 RES1   0.0000
    40 C22      2.4009   7.0547  -2.6127   C.3       1 RES1   0.0000
    41 H11      2.7852   7.1291  -1.7142   H         1 RES1   0.0000
    42 H12      2.1083   7.9397  -2.9175   H         1 RES1   0.0000
    43 H13      3.0778   6.7061  -3.2301   H         1 RES1   0.0000
    44 C23      1.8173  -0.4531  -4.2547   C.3       1 RES1   0.0000
    45 H14      1.3649  -0.1911  -3.4140   H         1 RES1   0.0000
    46 H15      1.1672  -0.3380  -4.9916   H         1 RES1   0.0000
    47 C24      2.1810  -1.9327  -4.1615   C.3       1 RES1   0.0000
    48 H16      2.7409  -2.1805  -4.9273   H         1 RES1   0.0000
    49 H17      1.3618  -2.4708  -4.1693   H         1 RES1   0.0000
    50 H18      2.6713  -2.0973  -3.3300   H         1 RES1   0.0000
    51 C25      3.4321   0.3734  -5.9887   C.3       1 RES1   0.0000
    52 H19      3.6804  -0.5717  -6.1515   H         1 RES1   0.0000
    53 H20      2.6445   0.5752  -6.5535   H         1 RES1   0.0000
    54 C26      4.6009   1.2690  -6.4432   C.3       1 RES1   0.0000
    55 H21      4.3320   2.2088  -6.3906   H         1 RES1   0.0000
    56 H22      4.8397   1.0495  -7.3679   H         1 RES1   0.0000
    57 H23      5.3743   1.1168  -5.8612   H         1 RES1   0.0000
    58 C27      7.6376  -0.2956  -0.4965   C.3       1 RES1   0.0000
    59 H24      8.1500   0.2354   0.1642   H         1 RES1   0.0000
    60 H25      8.1564  -0.3203  -1.3399   H         1 RES1   0.0000
    61 C28      7.4510  -1.7292   0.0328   C.3       1 RES1   0.0000
    62 H26      6.9306  -1.7044   0.8630   H         1 RES1   0.0000
    63 H27      8.3272  -2.1292   0.2089   H         1 RES1   0.0000
    64 H28      6.9749  -2.2637  -0.6358   H         1 RES1   0.0000
    65 C29      1.6781   1.1540   2.1911   C.3       1 RES1   0.0000
    66 H29      0.8493   1.5062   2.6022   H         1 RES1   0.0000
    67 H30      1.4440   0.8318   1.2847   H         1 RES1   0.0000
    68 C30      2.1478  -0.0425   3.0160   C.3       1 RES1   0.0000
    69 H31      2.8959  -0.4796   2.5602   H         1 RES1   0.0000
    70 H32      1.4092  -0.6796   3.1158   H         1 RES1   0.0000
    71 H33      2.4373   0.2637   3.9000   H         1 RES1   0.0000
    72 C31      2.7963   3.0035   3.4429   C.3       1 RES1   0.0000
    73 H34      1.8853   3.2513   3.7398   H         1 RES1   0.0000
    74 H35      3.1411   2.3292   4.0800   H         1 RES1   0.0000
    75 C32      3.6788   4.2442   3.5375   C.3       1 RES1   0.0000
    76 H36      4.6136   3.9928   3.3812   H         1 RES1   0.0000
    77 H37      3.5934   4.6389   4.4307   H         1 RES1   0.0000
    78 H38      3.4005   4.8973   2.8636   H         1 RES1   0.0000
    79 C33      2.0150  -0.7150  -0.7960   C.ar      1 RES1   0.0000
    80 C34      3.1869  -1.3079  -0.3087   C.ar      1 RES1   0.0000
    81 H39      3.9651  -0.7841  -0.1642   H         1 RES1   0.0000
    82 C35      3.1964  -2.6743  -0.0368   C.ar      1 RES1   0.0000
    83 H40      3.9904  -3.0761   0.2982   H         1 RES1   0.0000
    84 C36      2.0624  -3.4672  -0.2483   C.ar      1 RES1   0.0000
    85 H41      2.0814  -4.3982  -0.0591   H         1 RES1   0.0000
    86 C37      0.9047  -2.8707  -0.7409   C.ar      1 RES1   0.0000
    87 H42      0.1360  -3.4017  -0.9103   H         1 RES1   0.0000
    88 C38      0.8667  -1.4955  -0.9865   C.ar      1 RES1   0.0000
    89 H43      0.0617  -1.0885  -1.2860   H         1 RES1   0.0000
    90 C39      5.2620   3.6159  -2.9306   C.ar      1 RES1   0.0000
    91 H44      4.9631   3.0495  -3.6321   H         1 RES1   0.0000
    92 C40      6.1651   4.6212  -3.2301   C.ar      1 RES1   0.0000
    93 H45      6.4656   4.7450  -4.1234   H         1 RES1   0.0000
    94 C41      6.6222   5.4442  -2.2200   C.ar      1 RES1   0.0000
    95 H46      7.2548   6.1309  -2.4012   H         1 RES1   0.0000
    96 C42      6.1446   5.2477  -0.9497   C.ar      1 RES1   0.0000
    97 H47      6.4308   5.8087  -0.2391   H         1 RES1   0.0000
    98 C43      5.2335   4.2176  -0.7107   C.ar      1 RES1   0.0000
    99 H48      4.9156   4.0849   0.1747   H         1 RES1   0.0000
@<TRIPOS>BOND
     1     1     3    1
     2     2     7    2
     3     3     9    2
     4     4     1    1
     5     5     1    1
     6     6     1    1
     7     7     1    1
     8     8     1    1
     9     9    10    1
    10    10    11    1
    11    12    10    2
    12    13    12    1
    13    14     3    1
    14    15    14    2
    15    16     4    1
    16    17    16    2
    17    18    17    1
    18    19    17    1
    19    20    19    1
    20    21     4    1
    21    22    21    1
    22    23     5    2
    23    24    23    1
    24    25    24    1
    25    26    24    2
    26    27    26    1
    27    28     5    1
    28    29    28    2
    29    30     6    1
    30    31    30    2
    31    32    31    1
    32    33    31    1
    33    34    33    1
    34    35     6    1
    35    36     9    1
    36    37    15    1
    37    38    37    1
    38    39    37    1
    39    40    37    1
    40    41    40    1
    41    42    40    1
    42    43    40    1
    43    44    22    1
    44    45    44    1
    45    46    44    1
    46    47    44    1
    47    48    47    1
    48    49    47    1
    49    50    47    1
    50    51    22    1
    51    52    51    1
    52    53    51    1
    53    54    51    1
    54    55    54    1
    55    56    54    1
    56    57    54    1
    57    58    29    1
    58    59    58    1
    59    60    58    1
    60    61    58    1
    61    62    61    1
    62    63    61    1
    63    64    61    1
    64    65    36    1
    65    66    65    1
    66    67    65    1
    67    68    65    1
    68    69    68    1
    69    70    68    1
    70    71    68    1
    71    72    36    1
    72    73    72    1
    73    74    72    1
    74    75    72    1
    75    76    75    1
    76    77    75    1
    77    78    75    1
    78    79     7    1
    79    80    79   ar
    80    81    80    1
    81    82    80   ar
    82    83    82    1
    83    84    82   ar
    84    85    84    1
    85    86    84   ar
    86    87    86    1
    87    88    79   ar
    88    89    88    1
    89    90     8   ar
    90    91    90    1
    91    92    90   ar
    92    93    92    1
    93    94    92   ar
    94    95    94    1
    95    96    94   ar
    96    97    96    1
    97    98     8   ar
    98    99    98    1
    99    12    14    1
   100    15    16    1
   101    19    21    2
   102    22    23    1
   103    26    28    1
   104    29    30    1
   105    33    35    2
   106    35    36    1
   107    86    88   ar
   108    96    98   ar
@<TRIPOS>SUBSTRUCTURE
     1 RES1        1 GROUP             0 ****  ****    0  
@<TRIPOS>CRYSIN
   15.8161   17.6988   13.1359   90.0000   90.0000   90.0000    33     1
