@<TRIPOS>MOLECULE
QATXUI
    79    80     5     0     0
SMALL
NO_CHARGES
****
Generated from the CSD

@<TRIPOS>ATOM
     1 Dy1      8.5562   9.1327  10.6955   Dy        1 RES1   0.0000
     2 Fe1     10.8009   4.0997  10.9756   Fe        1 RES1   0.0000
     3 C1       9.9236   5.8032  10.6684   C.1       1 RES1   0.0000
     4 N1       9.3781   6.8105  10.5257   N.1       1 RES1   0.0000
     5 C2      11.7704   4.2354   9.2929   C.1       1 RES1   0.0000
     6 N2      12.3489   4.3469   8.2998   N.1       1 RES1   0.0000
     7 C3       9.3476   3.2056  10.0187   C.1       1 RES1   0.0000
     8 N3       8.5159   2.6985   9.4176   N.1       1 RES1   0.0000
     9 C4       9.8639   3.9581  12.6699   C.1       1 RES1   0.0000
    10 N4       9.3338   3.8870  13.6880   N.1       1 RES1   0.0000
    11 C5      12.2942   5.0015  11.8734   C.1       1 RES1   0.0000
    12 N5      13.1821   5.5208  12.3721   N.1       1 RES1   0.0000
    13 C6      11.6256   2.3863  11.3194   C.1       1 RES1   0.0000
    14 N6      12.0974   1.3570  11.5285   N.1       1 RES1   0.0000
    15 N7       6.2139   7.2793   9.2901   N.ar      1 RES1   0.0000
    16 C7       5.7065   7.8918   8.1820   C.ar      1 RES1   0.0000
    17 C8       5.3593   7.1305   7.0781   C.ar      1 RES1   0.0000
    18 H1       5.0079   7.5435   6.3232   H         1 RES1   0.0000
    19 C9       5.5300   5.7633   7.0947   C.ar      1 RES1   0.0000
    20 H2       5.2944   5.2497   6.3564   H         1 RES1   0.0000
    21 C10      6.0597   5.1621   8.2305   C.ar      1 RES1   0.0000
    22 H3       6.1869   4.2420   8.2554   H         1 RES1   0.0000
    23 C11      6.3946   5.9387   9.3192   C.ar      1 RES1   0.0000
    24 H4       6.7480   5.5379  10.0811   H         1 RES1   0.0000
    25 N8       6.5991  10.1396   8.4286   N.ar      1 RES1   0.0000
    26 C12      5.5022   9.3531   8.2527   C.ar      1 RES1   0.0000
    27 C13      4.2494   9.9316   8.1585   C.ar      1 RES1   0.0000
    28 H5       3.4999   9.3968   8.0213   H         1 RES1   0.0000
    29 C14      4.1095  11.2987   8.2679   C.ar      1 RES1   0.0000
    30 H6       3.2664  11.6891   8.2374   H         1 RES1   0.0000
    31 C15      5.2298  12.0789   8.4217   C.ar      1 RES1   0.0000
    32 H7       5.1482  13.0036   8.4909   H         1 RES1   0.0000
    33 C16      6.4704  11.4915   8.4743   C.ar      1 RES1   0.0000
    34 H8       7.2294  12.0247   8.5422   H         1 RES1   0.0000
    35 N9      11.3531   9.7602  12.0216   N.ar      1 RES1   0.0000
    36 C17     11.7545  11.0402  11.8208   C.ar      1 RES1   0.0000
    37 C18     13.0819  11.2762  11.5022   C.ar      1 RES1   0.0000
    38 H9      13.3819  12.1487  11.3859   H         1 RES1   0.0000
    39 C19     13.9640  10.2231  11.3568   C.ar      1 RES1   0.0000
    40 H10     14.8535  10.3809  11.1351   H         1 RES1   0.0000
    41 C20     13.5079   8.9294  11.5451   C.ar      1 RES1   0.0000
    42 H11     14.0840   8.2081  11.4302   H         1 RES1   0.0000
    43 C21     12.2077   8.7194  11.8997   C.ar      1 RES1   0.0000
    44 H12     11.9064   7.8546  12.0576   H         1 RES1   0.0000
    45 N10      9.7066  12.2509  11.2183   N.ar      1 RES1   0.0000
    46 C22     10.8032  12.1575  12.0133   C.ar      1 RES1   0.0000
    47 C23     11.0992  13.1774  12.8984   C.ar      1 RES1   0.0000
    48 H13     11.8554  13.1176  13.4359   H         1 RES1   0.0000
    49 C24     10.2675  14.2953  12.9885   C.ar      1 RES1   0.0000
    50 H14     10.4622  14.9885  13.5785   H         1 RES1   0.0000
    51 C25      9.1513  14.3458  12.1823   C.ar      1 RES1   0.0000
    52 H15      8.5696  15.0687  12.2405   H         1 RES1   0.0000
    53 C26      8.8969  13.3314  11.2917   C.ar      1 RES1   0.0000
    54 H16      8.1572  13.3883  10.7321   H         1 RES1   0.0000
    55 O1       6.4952   7.9998  10.3631   O.3       1 RES1   0.0000
    56 O2       7.7938   9.5946   8.5333   O.3       1 RES1   0.0000
    57 O3       9.4467  11.3234  10.3023   O.3       1 RES1   0.0000
    58 O4      10.0931   9.5150  12.3575   O.3       1 RES1   0.0000
    59 O5       7.0303  10.5819  11.7542   O.3       1 RES1   0.0000
    60 H17      6.6671  11.3629  11.6490   H         1 RES1   0.0000
    61 H18      6.5277  10.2484  12.3832   H         1 RES1   0.0000
    62 O6       7.8489   8.1194  12.7184   O.3       1 RES1   0.0000
    63 H19      7.1509   7.5786  12.7848   H         1 RES1   0.0000
    64 H20      8.4050   7.7810  13.3112   H         1 RES1   0.0000
    65 O7      10.4126   9.0226   9.2555   O.3       1 RES1   0.0000
    66 H21     10.5544   9.5737   8.6156   H         1 RES1   0.0000
    67 H22     10.8975   8.3154   9.1419   H         1 RES1   0.0000
    68 O8      10.6312  10.3220   6.8911   O.3       2 RES2   0.0000
    69 H23      9.9597  10.5781   6.3855   H         2 RES2   0.0000
    70 H24     10.9301   9.6987   6.3439   H         2 RES2   0.0000
    71 O9      12.3454   7.3862   8.3302   O.3       3 RES3   0.0000
    72 H25     12.3017   6.5431   8.5602   H         3 RES3   0.0000
    73 H26     12.4179   7.4086   7.4590   H         3 RES3   0.0000
    74 O10      8.3066  11.1783   5.6652   O.3       4 RES4   0.0000
    75 H27      8.5396  11.8272   5.0973   H         4 RES4   0.0000
    76 H28      7.5280  10.8848   5.4713   H         4 RES4   0.0000
    77 O11      5.3025   6.8595  13.3666   O.3       5 RES5   0.0000
    78 H29      5.0726   7.6525  13.6298   H         5 RES5   0.0000
    79 H30      4.6269   6.3934  13.0342   H         5 RES5   0.0000
@<TRIPOS>BOND
     1     1     4    1
     2     2     3    1
     3     3     4    3
     4     5     2    1
     5     6     5    3
     6     7     2    1
     7     8     7    3
     8     9     2    1
     9    10     9    3
    10    11     2    1
    11    12    11    3
    12    13     2    1
    13    14    13    3
    14    15    16   ar
    15    16    17   ar
    16    17    18    1
    17    19    17   ar
    18    20    19    1
    19    21    19   ar
    20    22    21    1
    21    23    15   ar
    22    24    23    1
    23    25    26   ar
    24    26    16    1
    25    27    26   ar
    26    28    27    1
    27    29    27   ar
    28    30    29    1
    29    31    29   ar
    30    32    31    1
    31    33    25   ar
    32    34    33    1
    33    35    36   ar
    34    36    37   ar
    35    37    38    1
    36    39    37   ar
    37    40    39    1
    38    41    39   ar
    39    42    41    1
    40    43    35   ar
    41    44    43    1
    42    45    46   ar
    43    46    36    1
    44    47    46   ar
    45    48    47    1
    46    49    47   ar
    47    50    49    1
    48    51    49   ar
    49    52    51    1
    50    53    45   ar
    51    54    53    1
    52    55     1    1
    53    56     1    1
    54    57     1    1
    55    58     1    1
    56    59     1    1
    57    60    59    1
    58    61    59    1
    59    62     1    1
    60    63    62    1
    61    64    62    1
    62    65     1    1
    63    66    65    1
    64    67    65    1
    65    15    55    1
    66    21    23   ar
    67    25    56    1
    68    31    33   ar
    69    35    58    1
    70    41    43   ar
    71    45    57    1
    72    51    53   ar
    73    68    69    1
    74    70    68    1
    75    71    72    1
    76    73    71    1
    77    74    75    1
    78    76    74    1
    79    77    78    1
    80    79    77    1
@<TRIPOS>SUBSTRUCTURE
     1 RES1        1 GROUP             0 ****  ****    0  
     2 RES2       68 GROUP             0 ****  ****    0  
     3 RES3       71 GROUP             0 ****  ****    0  
     4 RES4       74 GROUP             0 ****  ****    0  
     5 RES5       77 GROUP             0 ****  ****    0  
@<TRIPOS>CRYSIN
   10.2161   12.3312   13.8937   85.5290   88.4920   71.3780     2     1
