@<TRIPOS>MOLECULE
QAXQUD04
    76    84     2     0     0
SMALL
USER_CHARGES
****
Generated from the CSD

@<TRIPOS>ATOM
     1 Fe1      0.0000   0.0000  10.8540   Fe        1 RES1   2.0000
     2 N1      -0.4907   1.5424  12.1484   N.2       1 RES1   0.0000
     3 N2      -0.5186   1.2728  13.4935   N.pl3     1 RES1   0.0000
     4 C1       0.0000   0.0000  13.9409   C.3       1 RES1   0.0000
     5 H1       0.0000   0.0000  14.9199   H         1 RES1   0.0000
     6 C2      -0.8979   2.7941  12.0586   C.2       1 RES1   0.0000
     7 H2      -0.9809   3.2601  11.2578   H         1 RES1   0.0000
     8 C3      -1.1877   3.3329  13.3118   C.2       1 RES1   0.0000
     9 H3      -1.4781   4.1969  13.4959   H         1 RES1   0.0000
    10 C4      -0.9596   2.3320  14.2172   C.2       1 RES1   0.0000
    11 C5      -1.1575   2.3019  15.6938   C.3       1 RES1   0.0000
    12 H4      -1.4332   3.1698  15.9966   H         1 RES1   0.0000
    13 H5      -0.3346   2.0592  16.1225   H         1 RES1   0.0000
    14 H6      -1.8340   1.6563  15.9120   H         1 RES1   0.0000
    15 N1A     -1.0904  -1.1962  12.1484   N.2       1 RES1   0.0000
    16 N1B      1.5811  -0.3462  12.1484   N.2       1 RES1   0.0000
    17 N1I      0.4907  -1.5424   9.5596   N.2       1 RES1   0.0000
    18 N1J      1.0904   1.1962   9.5596   N.2       1 RES1   0.0000
    19 N1K     -1.5811   0.3462   9.5596   N.2       1 RES1   0.0000
    20 N2A     -0.8430  -1.0855  13.4935   N.pl3     1 RES1   0.0000
    21 N2B      1.3615  -0.1873  13.4935   N.pl3     1 RES1   0.0000
    22 N2I      0.5186  -1.2728   8.2145   N.pl3     1 RES1   0.0000
    23 N2J      0.8430   1.0855   8.2145   N.pl3     1 RES1   0.0000
    24 N2K     -1.3615   0.1873   8.2145   N.pl3     1 RES1   0.0000
    25 C1I      0.0000   0.0000   7.7671   C.3       1 RES1   0.0000
    26 H1I      0.0000   0.0000   6.7881   H         1 RES1   0.0000
    27 C2A     -1.9708  -2.1747  12.0586   C.2       1 RES1   0.0000
    28 C2B      2.8687  -0.6194  12.0586   C.2       1 RES1   0.0000
    29 C2I      0.8979  -2.7941   9.6494   C.2       1 RES1   0.0000
    30 C2J      1.9708   2.1747   9.6494   C.2       1 RES1   0.0000
    31 C2K     -2.8687   0.6194   9.6494   C.2       1 RES1   0.0000
    32 H2A     -2.3329  -2.4795  11.2578   H         1 RES1   0.0000
    33 H2B      3.3138  -0.7806  11.2578   H         1 RES1   0.0000
    34 H2I      0.9809  -3.2601  10.4502   H         1 RES1   0.0000
    35 H2J      2.3329   2.4795  10.4502   H         1 RES1   0.0000
    36 H2K     -3.3138   0.7806  10.4502   H         1 RES1   0.0000
    37 C3A     -2.2925  -2.6951  13.3118   C.2       1 RES1   0.0000
    38 C3B      3.4802  -0.6378  13.3118   C.2       1 RES1   0.0000
    39 C3I      1.1877  -3.3329   8.3962   C.2       1 RES1   0.0000
    40 C3J      2.2925   2.6951   8.3962   C.2       1 RES1   0.0000
    41 C3K     -3.4802   0.6378   8.3962   C.2       1 RES1   0.0000
    42 H3A     -2.8956  -3.3785  13.4959   H         1 RES1   0.0000
    43 H3B      4.3737  -0.8184  13.4959   H         1 RES1   0.0000
    44 H3I      1.4781  -4.1969   8.2121   H         1 RES1   0.0000
    45 H3J      2.8956   3.3785   8.2121   H         1 RES1   0.0000
    46 H3K     -4.3737   0.8184   8.2121   H         1 RES1   0.0000
    47 C4A     -1.5397  -1.9970  14.2172   C.2       1 RES1   0.0000
    48 C4B      2.4993  -0.3349  14.2172   C.2       1 RES1   0.0000
    49 C4I      0.9596  -2.3320   7.4908   C.2       1 RES1   0.0000
    50 C4J      1.5397   1.9970   7.4908   C.2       1 RES1   0.0000
    51 C4K     -2.4993   0.3349   7.4908   C.2       1 RES1   0.0000
    52 C5A     -1.4147  -2.1533  15.6938   C.3       1 RES1   0.0000
    53 C5B      2.5722  -0.1485  15.6938   C.3       1 RES1   0.0000
    54 C5I      1.1575  -2.3019   6.0142   C.3       1 RES1   0.0000
    55 C5J      1.4147   2.1533   6.0142   C.3       1 RES1   0.0000
    56 C5K     -2.5722   0.1485   6.0142   C.3       1 RES1   0.0000
    57 H4A     -2.0285  -2.8261  15.9966   H         1 RES1   0.0000
    58 H4B      3.4617  -0.3437  15.9966   H         1 RES1   0.0000
    59 H4I      1.4332  -3.1698   5.7114   H         1 RES1   0.0000
    60 H4J      2.0285   2.8261   5.7114   H         1 RES1   0.0000
    61 H4K     -3.4617   0.3437   5.7114   H         1 RES1   0.0000
    62 H5A     -1.6160  -1.3194  16.1225   H         1 RES1   0.0000
    63 H5B      1.9506  -0.7398  16.1225   H         1 RES1   0.0000
    64 H5I      0.3346  -2.0592   5.5855   H         1 RES1   0.0000
    65 H5J      1.6160   1.3194   5.5855   H         1 RES1   0.0000
    66 H5K     -1.9506   0.7398   5.5855   H         1 RES1   0.0000
    67 H6A     -0.5174  -2.4164  15.9120   H         1 RES1   0.0000
    68 H6B      2.3514   0.7602  15.9120   H         1 RES1   0.0000
    69 H6I      1.8340  -1.6563   5.7960   H         1 RES1   0.0000
    70 H6J      0.5174   2.4164   5.7960   H         1 RES1   0.0000
    71 H6K     -2.3514  -0.7602   5.7960   H         1 RES1   0.0000
    72 Cl1     -0.0006   6.4726  17.3588   Cl        2 RES2   0.0000
    73 O1      -0.0006   6.4726  15.9467   O.3       2 RES2  -1.0000
    74 O2      -0.8839   7.5095  17.7528   O.2       2 RES2   0.0000
    75 O2A     -0.4563   5.1882  17.7528   O.2       2 RES2   0.0000
    76 O2B      1.3402   6.7192  17.7528   O.2       2 RES2   0.0000
@<TRIPOS>BOND
     1     1     2    1
     2     2     3    1
     3     3     4    1
     4     4     5    1
     5     6     2    2
     6     7     6    1
     7     8     6    1
     8     9     8    1
     9    10     3    1
    10    11    10    1
    11    12    11    1
    12    13    11    1
    13    14    11    1
    14    15     1    1
    15    16     1    1
    16    17     1    1
    17    18     1    1
    18    19     1    1
    19    20     4    1
    20    21     4    1
    21    22    17    1
    22    23    18    1
    23    24    19    1
    24    25    22    1
    25    26    25    1
    26    27    15    2
    27    28    16    2
    28    29    17    2
    29    30    18    2
    30    31    19    2
    31    32    27    1
    32    33    28    1
    33    34    29    1
    34    35    30    1
    35    36    31    1
    36    37    27    1
    37    38    28    1
    38    39    29    1
    39    40    30    1
    40    41    31    1
    41    42    37    1
    42    43    38    1
    43    44    39    1
    44    45    40    1
    45    46    41    1
    46    47    20    1
    47    48    21    1
    48    49    22    1
    49    50    23    1
    50    51    24    1
    51    52    47    1
    52    53    48    1
    53    54    49    1
    54    55    50    1
    55    56    51    1
    56    57    52    1
    57    58    53    1
    58    59    54    1
    59    60    55    1
    60    61    56    1
    61    62    52    1
    62    63    53    1
    63    64    54    1
    64    65    55    1
    65    66    56    1
    66    67    52    1
    67    68    53    1
    68    69    54    1
    69    70    55    1
    70    71    56    1
    71     8    10    2
    72    15    20    1
    73    16    21    1
    74    23    25    1
    75    24    25    1
    76    37    47    2
    77    38    48    2
    78    39    49    2
    79    40    50    2
    80    41    51    2
    81    72    73    1
    82    74    72    2
    83    75    72    2
    84    76    72    2
@<TRIPOS>SUBSTRUCTURE
     1 RES1        1 GROUP             0 ****  ****    0  
     2 RES2       72 GROUP             0 ****  ****    0  
@<TRIPOS>CRYSIN
   11.2103   11.2103   21.7080   90.0000   90.0000  120.0000   233     1
