@<TRIPOS>MOLECULE
QAXQAJ
   113   123     3     0     0
SMALL
USER_CHARGES
****
Generated from the CSD

@<TRIPOS>ATOM
     1 Fe1     -3.7027   5.1179  10.5656   Fe        1 RES1   2.0000
     2 N1      -4.1347   6.7818  11.5231   N.2       1 RES1   0.0000
     3 N2      -3.7020   6.9082  12.8079   N.pl3     1 RES1   0.0000
     4 N3      -4.1236   4.1262  12.2094   N.2       1 RES1   0.0000
     5 N4      -3.6642   4.6187  13.3917   N.pl3     1 RES1   0.0000
     6 N5      -1.8758   5.2851  11.2566   N.2       1 RES1   0.0000
     7 N6      -1.7134   5.6569  12.5608   N.pl3     1 RES1   0.0000
     8 C1      -2.9098   5.8452  13.3556   C.3       1 RES1   0.0000
     9 H1      -2.6486   6.0831  14.2699   H         1 RES1   0.0000
    10 C2      -4.7927   7.9068  11.2788   C.2       1 RES1   0.0000
    11 H2      -5.1996   8.1169  10.4684   H         1 RES1   0.0000
    12 C3      -4.7914   8.7286  12.3981   C.2       1 RES1   0.0000
    13 H3      -5.1913   9.5653  12.4696   H         1 RES1   0.0000
    14 C4      -4.0935   8.0766  13.3733   C.2       1 RES1   0.0000
    15 C5      -4.7444   3.0049  12.5334   C.2       1 RES1   0.0000
    16 H4      -5.1644   2.4402  11.9265   H         1 RES1   0.0000
    17 C6      -4.6848   2.7834  13.9065   C.2       1 RES1   0.0000
    18 H5      -5.0489   2.0625  14.3693   H         1 RES1   0.0000
    19 C7      -3.9931   3.8236  14.4407   C.2       1 RES1   0.0000
    20 C8      -0.6503   5.1224  10.7949   C.2       1 RES1   0.0000
    21 H6      -0.4445   4.8671   9.9253   H         1 RES1   0.0000
    22 C9       0.2906   5.3819  11.7815   C.2       1 RES1   0.0000
    23 H7       1.2151   5.3338  11.6919   H         1 RES1   0.0000
    24 C10     -0.4001   5.7218  12.9074   C.2       1 RES1   0.0000
    25 C11     -3.7865   8.4015  14.8060   C.3       1 RES1   0.0000
    26 H8      -2.8348   8.4434  14.9271   H         1 RES1   0.0000
    27 H9      -4.1517   7.7198  15.3751   H         1 RES1   0.0000
    28 H10     -4.1760   9.2490  15.0328   H         1 RES1   0.0000
    29 C12     -3.6167   4.1710  15.8440   C.3       1 RES1   0.0000
    30 H11     -4.0171   3.5405  16.4486   H         1 RES1   0.0000
    31 H12     -3.9309   5.0544  16.0513   H         1 RES1   0.0000
    32 H13     -2.6610   4.1403  15.9351   H         1 RES1   0.0000
    33 C13      0.0366   6.1189  14.2911   C.3       1 RES1   0.0000
    34 H14     -0.3537   5.5211  14.9335   H         1 RES1   0.0000
    35 H15     -0.2511   7.0166  14.4728   H         1 RES1   0.0000
    36 H16      0.9930   6.0718  14.3502   H         1 RES1   0.0000
    37 N1B     -3.2708   3.4539   9.6082   N.2       1 RES1   0.0000
    38 N2B     -3.7034   3.3275   8.3234   N.pl3     1 RES1   0.0000
    39 N3B     -3.2818   6.1095   8.9218   N.2       1 RES1   0.0000
    40 N4B     -3.7413   5.6170   7.7395   N.pl3     1 RES1   0.0000
    41 N5B     -5.5296   4.9506   9.8746   N.2       1 RES1   0.0000
    42 N6B     -5.6920   4.5788   8.5704   N.pl3     1 RES1   0.0000
    43 C1B     -4.4957   4.3905   7.7757   C.3       1 RES1   0.0000
    44 H1B     -4.7568   4.1526   6.8613   H         1 RES1   0.0000
    45 C2B     -2.6127   2.3289   9.8524   C.2       1 RES1   0.0000
    46 H2B     -2.2059   2.1188  10.6628   H         1 RES1   0.0000
    47 C3B     -2.6141   1.5071   8.7331   C.2       1 RES1   0.0000
    48 H3B     -2.2141   0.6704   8.6617   H         1 RES1   0.0000
    49 C4B     -3.3120   2.1591   7.7579   C.2       1 RES1   0.0000
    50 C5B     -2.6610   7.2308   8.5979   C.2       1 RES1   0.0000
    51 H4B     -2.2410   7.7955   9.2048   H         1 RES1   0.0000
    52 C6B     -2.7206   7.4523   7.2248   C.2       1 RES1   0.0000
    53 H5B     -2.3565   8.1732   6.7620   H         1 RES1   0.0000
    54 C7B     -3.4124   6.4121   6.6906   C.2       1 RES1   0.0000
    55 C8B     -6.7551   5.1133  10.3364   C.2       1 RES1   0.0000
    56 H6B     -6.9609   5.3686  11.2059   H         1 RES1   0.0000
    57 C9B     -7.6961   4.8538   9.3497   C.2       1 RES1   0.0000
    58 H7B     -8.6205   4.9019   9.4393   H         1 RES1   0.0000
    59 C10B    -7.0053   4.5139   8.2239   C.2       1 RES1   0.0000
    60 C11B    -3.6189   1.8342   6.3252   C.3       1 RES1   0.0000
    61 H8B     -4.5707   1.7923   6.2041   H         1 RES1   0.0000
    62 H9B     -3.2537   2.5159   5.7562   H         1 RES1   0.0000
    63 H10B    -3.2294   0.9867   6.0985   H         1 RES1   0.0000
    64 C12B    -3.7888   6.0647   5.2873   C.3       1 RES1   0.0000
    65 H11B    -3.3883   6.6952   4.6827   H         1 RES1   0.0000
    66 H12B    -3.4746   5.1813   5.0800   H         1 RES1   0.0000
    67 H13B    -4.7444   6.0954   5.1962   H         1 RES1   0.0000
    68 C13B    -7.4420   4.1168   6.8402   C.3       1 RES1   0.0000
    69 H14B    -7.0518   4.7146   6.1978   H         1 RES1   0.0000
    70 H15B    -7.1543   3.2191   6.6585   H         1 RES1   0.0000
    71 H16B    -8.3984   4.1639   6.7810   H         1 RES1   0.0000
    72 N7      -1.0839   4.1780   6.3844   N.1       2 RES2   0.0000
    73 C14      0.0259   4.2828   6.6576   C.1       2 RES2   0.0000
    74 C15      1.8841   6.0331   7.1969   C.ar      2 RES2   0.0000
    75 C16      0.9426   6.8869   7.7651   C.ar      2 RES2   0.0000
    76 H17      0.1299   6.5304   8.0426   H         2 RES2   0.0000
    77 C17      1.1624   8.2356   7.9346   C.ar      2 RES2   0.0000
    78 H18      0.4996   8.7669   8.3151   H         2 RES2   0.0000
    79 C18      2.3439   8.7996   7.5498   C.ar      2 RES2   0.0000
    80 H19      2.4934   9.7106   7.6622   H         2 RES2   0.0000
    81 C19      3.3054   7.9992   6.9953   C.ar      2 RES2   0.0000
    82 H20      4.1182   8.3677   6.7345   H         2 RES2   0.0000
    83 C20      3.0787   6.6460   6.8188   C.ar      2 RES2   0.0000
    84 H21      3.7465   6.1271   6.4345   H         2 RES2   0.0000
    85 C21      1.8530   3.6259   8.4242   C.ar      2 RES2   0.0000
    86 C22      2.9312   3.9131   9.2546   C.ar      2 RES2   0.0000
    87 H22      3.4737   4.6378   9.0442   H         2 RES2   0.0000
    88 C23      3.2305   3.1669  10.3807   C.ar      2 RES2   0.0000
    89 H23      3.9695   3.3860  10.9016   H         2 RES2   0.0000
    90 C24      2.4433   2.1106  10.7243   C.ar      2 RES2   0.0000
    91 H24      2.6375   1.6060  11.4806   H         2 RES2   0.0000
    92 C25      1.3544   1.7984   9.9376   C.ar      2 RES2   0.0000
    93 H25      0.8077   1.0809  10.1662   H         2 RES2   0.0000
    94 C26      1.0746   2.5456   8.8172   C.ar      2 RES2   0.0000
    95 H26      0.3347   2.3184   8.3025   H         2 RES2   0.0000
    96 C27      2.4593   3.7555   5.8179   C.ar      2 RES2   0.0000
    97 C28      3.5568   2.9479   6.0490   C.ar      2 RES2   0.0000
    98 H27      3.8058   2.7739   6.9289   H         2 RES2   0.0000
    99 C29      4.2991   2.3890   5.0231   C.ar      2 RES2   0.0000
   100 H28      5.0393   1.8639   5.2236   H         2 RES2   0.0000
   101 C30      3.9586   2.5999   3.7333   C.ar      2 RES2   0.0000
   102 H29      4.4610   2.2252   3.0471   H         2 RES2   0.0000
   103 C31      2.8703   3.3675   3.4488   C.ar      2 RES2   0.0000
   104 H30      2.6221   3.5129   2.5653   H         2 RES2   0.0000
   105 C32      2.1280   3.9367   4.4874   C.ar      2 RES2   0.0000
   106 H31      1.3848   4.4546   4.2770   H         2 RES2   0.0000
   107 B1       1.5957   4.4321   7.0371   B         2 RES2  -1.0000
   108 N8      -1.0678   9.0064  11.3302   N.1       3 RES3   0.0000
   109 C33     -0.0561   9.0422  11.7866   C.1       3 RES3   0.0000
   110 C34      1.2504   9.1251  12.3850   C.3       3 RES3   0.0000
   111 H32      1.5382  10.0412  12.3998   H         3 RES3   0.0000
   112 H33      1.8720   8.6041  11.8715   H         3 RES3   0.0000
   113 H34      1.2146   8.7853  13.2810   H         3 RES3   0.0000
@<TRIPOS>BOND
     1     1     2    1
     2     2     3    1
     3     3     8    1
     4     4     1    1
     5     5     4    1
     6     6     1    1
     7     7     6    1
     8     8     5    1
     9     9     8    1
    10    10     2    2
    11    11    10    1
    12    12    10    1
    13    13    12    1
    14    14     3    1
    15    15     4    2
    16    16    15    1
    17    17    15    1
    18    18    17    1
    19    19     5    1
    20    20     6    2
    21    21    20    1
    22    22    20    1
    23    23    22    1
    24    24     7    1
    25    25    14    1
    26    26    25    1
    27    27    25    1
    28    28    25    1
    29    29    19    1
    30    30    29    1
    31    31    29    1
    32    32    29    1
    33    33    24    1
    34    34    33    1
    35    35    33    1
    36    36    33    1
    37    37     1    1
    38    38    37    1
    39    39     1    1
    40    40    39    1
    41    41     1    1
    42    42    41    1
    43    43    38    1
    44    44    43    1
    45    45    37    2
    46    46    45    1
    47    47    45    1
    48    48    47    1
    49    49    38    1
    50    50    39    2
    51    51    50    1
    52    52    50    1
    53    53    52    1
    54    54    40    1
    55    55    41    2
    56    56    55    1
    57    57    55    1
    58    58    57    1
    59    59    42    1
    60    60    49    1
    61    61    60    1
    62    62    60    1
    63    63    60    1
    64    64    54    1
    65    65    64    1
    66    66    64    1
    67    67    64    1
    68    68    59    1
    69    69    68    1
    70    70    68    1
    71    71    68    1
    72     7     8    1
    73    12    14    2
    74    17    19    2
    75    22    24    2
    76    40    43    1
    77    42    43    1
    78    47    49    2
    79    52    54    2
    80    57    59    2
    81    72    73    3
    82    73   107    1
    83    74    75   ar
    84    75    76    1
    85    77    75   ar
    86    78    77    1
    87    79    77   ar
    88    80    79    1
    89    81    79   ar
    90    82    81    1
    91    83    74   ar
    92    84    83    1
    93    85    86   ar
    94    86    87    1
    95    88    86   ar
    96    89    88    1
    97    90    88   ar
    98    91    90    1
    99    92    90   ar
   100    93    92    1
   101    94    85   ar
   102    95    94    1
   103    96    97   ar
   104    97    98    1
   105    99    97   ar
   106   100    99    1
   107   101    99   ar
   108   102   101    1
   109   103   101   ar
   110   104   103    1
   111   105    96   ar
   112   106   105    1
   113   107    74    1
   114    81    83   ar
   115    85   107    1
   116    92    94   ar
   117    96   107    1
   118   103   105   ar
   119   108   109    3
   120   109   110    1
   121   110   111    1
   122   112   110    1
   123   113   110    1
@<TRIPOS>SUBSTRUCTURE
     1 RES1        1 GROUP             0 ****  ****    0  
     2 RES2       72 GROUP             0 ****  ****    0  
     3 RES3      108 GROUP             0 ****  ****    0  
@<TRIPOS>CRYSIN
   14.7202   10.2357   22.3913   90.0000  109.3130   90.0000    14     1
