@<TRIPOS>MOLECULE
QAXQUD03
    76    84     2     0     0
SMALL
USER_CHARGES
****
Generated from the CSD

@<TRIPOS>ATOM
     1 Fe1      0.0000   0.0000  10.8065   Fe        1 RES1   2.0000
     2 N1      -0.5008   1.5187  12.0626   N.2       1 RES1   0.0000
     3 N2      -0.5288   1.2652  13.4128   N.pl3     1 RES1   0.0000
     4 C1       0.0000   0.0000  13.8682   C.3       1 RES1   0.0000
     5 H1       0.0000   0.0000  14.8481   H         1 RES1   0.0000
     6 C2      -0.9029   2.7737  11.9550   C.2       1 RES1   0.0000
     7 H2      -0.9812   3.2313  11.1501   H         1 RES1   0.0000
     8 C3      -1.1928   3.3225  13.2053   C.2       1 RES1   0.0000
     9 H3      -1.4850   4.1873  13.3784   H         1 RES1   0.0000
    10 C4      -0.9611   2.3375  14.1215   C.2       1 RES1   0.0000
    11 C5      -1.1592   2.3239  15.5972   C.3       1 RES1   0.0000
    12 H4      -1.4038   3.2032  15.8942   H         1 RES1   0.0000
    13 H5      -0.3448   2.0553  16.0282   H         1 RES1   0.0000
    14 H6      -1.8589   1.7053  15.8207   H         1 RES1   0.0000
    15 N1A     -1.0648  -1.1931  12.0626   N.2       1 RES1   0.0000
    16 N1B      1.5656  -0.3257  12.0626   N.2       1 RES1   0.0000
    17 N1I      0.5008  -1.5187   9.5504   N.2       1 RES1   0.0000
    18 N1J      1.0648   1.1931   9.5504   N.2       1 RES1   0.0000
    19 N1K     -1.5656   0.3257   9.5504   N.2       1 RES1   0.0000
    20 N2A     -0.8313  -1.0906  13.4128   N.pl3     1 RES1   0.0000
    21 N2B      1.3601  -0.1746  13.4128   N.pl3     1 RES1   0.0000
    22 N2I      0.5288  -1.2652   8.2002   N.pl3     1 RES1   0.0000
    23 N2J      0.8313   1.0906   8.2002   N.pl3     1 RES1   0.0000
    24 N2K     -1.3601   0.1746   8.2002   N.pl3     1 RES1   0.0000
    25 C1I      0.0000   0.0000   7.7448   C.3       1 RES1   0.0000
    26 H1I      0.0000   0.0000   6.7649   H         1 RES1   0.0000
    27 C2A     -1.9507  -2.1688  11.9550   C.2       1 RES1   0.0000
    28 C2B      2.8536  -0.6050  11.9550   C.2       1 RES1   0.0000
    29 C2I      0.9029  -2.7737   9.6580   C.2       1 RES1   0.0000
    30 C2J      1.9507   2.1688   9.6580   C.2       1 RES1   0.0000
    31 C2K     -2.8536   0.6050   9.6580   C.2       1 RES1   0.0000
    32 H2A     -2.3078  -2.4654  11.1501   H         1 RES1   0.0000
    33 H2B      3.2890  -0.7659  11.1501   H         1 RES1   0.0000
    34 H2I      0.9812  -3.2313  10.4629   H         1 RES1   0.0000
    35 H2J      2.3078   2.4654  10.4629   H         1 RES1   0.0000
    36 H2K     -3.2890   0.7659  10.4629   H         1 RES1   0.0000
    37 C3A     -2.2809  -2.6942  13.2053   C.2       1 RES1   0.0000
    38 C3B      3.4737  -0.6282  13.2053   C.2       1 RES1   0.0000
    39 C3I      1.1928  -3.3225   8.4077   C.2       1 RES1   0.0000
    40 C3J      2.2809   2.6942   8.4077   C.2       1 RES1   0.0000
    41 C3K     -3.4737   0.6282   8.4077   C.2       1 RES1   0.0000
    42 H3A     -2.8838  -3.3797  13.3784   H         1 RES1   0.0000
    43 H3B      4.3688  -0.8076  13.3784   H         1 RES1   0.0000
    44 H3I      1.4850  -4.1873   8.2346   H         1 RES1   0.0000
    45 H3J      2.8838   3.3797   8.2346   H         1 RES1   0.0000
    46 H3K     -4.3688   0.8076   8.2346   H         1 RES1   0.0000
    47 C4A     -1.5438  -2.0010  14.1215   C.2       1 RES1   0.0000
    48 C4B      2.5048  -0.3364  14.1215   C.2       1 RES1   0.0000
    49 C4I      0.9611  -2.3375   7.4915   C.2       1 RES1   0.0000
    50 C4J      1.5438   2.0010   7.4915   C.2       1 RES1   0.0000
    51 C4K     -2.5048   0.3364   7.4915   C.2       1 RES1   0.0000
    52 C5A     -1.4329  -2.1659  15.5972   C.3       1 RES1   0.0000
    53 C5B      2.5922  -0.1580  15.5972   C.3       1 RES1   0.0000
    54 C5I      1.1592  -2.3239   6.0158   C.3       1 RES1   0.0000
    55 C5J      1.4329   2.1659   6.0158   C.3       1 RES1   0.0000
    56 C5K     -2.5922   0.1580   6.0158   C.3       1 RES1   0.0000
    57 H4A     -2.0722  -2.8174  15.8942   H         1 RES1   0.0000
    58 H4B      3.4760  -0.3859  15.8942   H         1 RES1   0.0000
    59 H4I      1.4038  -3.2032   5.7188   H         1 RES1   0.0000
    60 H4J      2.0722   2.8174   5.7188   H         1 RES1   0.0000
    61 H4K     -3.4760   0.3859   5.7188   H         1 RES1   0.0000
    62 H5A     -1.6076  -1.3263  16.0282   H         1 RES1   0.0000
    63 H5B      1.9524  -0.7291  16.0282   H         1 RES1   0.0000
    64 H5I      0.3448  -2.0553   5.5848   H         1 RES1   0.0000
    65 H5J      1.6076   1.3263   5.5848   H         1 RES1   0.0000
    66 H5K     -1.9524   0.7291   5.5848   H         1 RES1   0.0000
    67 H6A     -0.5474  -2.4625  15.8207   H         1 RES1   0.0000
    68 H6B      2.4063   0.7572  15.8207   H         1 RES1   0.0000
    69 H6I      1.8589  -1.7053   5.7923   H         1 RES1   0.0000
    70 H6J      0.5474   2.4625   5.7923   H         1 RES1   0.0000
    71 H6K     -2.4063  -0.7572   5.7923   H         1 RES1   0.0000
    72 Cl1     -0.0006   6.4636  17.3127   Cl        2 RES2   0.0000
    73 O1      -0.0006   6.4636  15.9072   O.3       2 RES2  -1.0000
    74 O2      -0.8670   7.5068  17.7097   O.2       2 RES2   0.0000
    75 O2A     -0.4702   5.1907  17.7097   O.2       2 RES2   0.0000
    76 O2B      1.3372   6.6924  17.7097   O.2       2 RES2   0.0000
@<TRIPOS>BOND
     1     1     2    1
     2     2     3    1
     3     3     4    1
     4     4     5    1
     5     6     2    2
     6     7     6    1
     7     8     6    1
     8     9     8    1
     9    10     3    1
    10    11    10    1
    11    12    11    1
    12    13    11    1
    13    14    11    1
    14    15     1    1
    15    16     1    1
    16    17     1    1
    17    18     1    1
    18    19     1    1
    19    20     4    1
    20    21     4    1
    21    22    17    1
    22    23    18    1
    23    24    19    1
    24    25    22    1
    25    26    25    1
    26    27    15    2
    27    28    16    2
    28    29    17    2
    29    30    18    2
    30    31    19    2
    31    32    27    1
    32    33    28    1
    33    34    29    1
    34    35    30    1
    35    36    31    1
    36    37    27    1
    37    38    28    1
    38    39    29    1
    39    40    30    1
    40    41    31    1
    41    42    37    1
    42    43    38    1
    43    44    39    1
    44    45    40    1
    45    46    41    1
    46    47    20    1
    47    48    21    1
    48    49    22    1
    49    50    23    1
    50    51    24    1
    51    52    47    1
    52    53    48    1
    53    54    49    1
    54    55    50    1
    55    56    51    1
    56    57    52    1
    57    58    53    1
    58    59    54    1
    59    60    55    1
    60    61    56    1
    61    62    52    1
    62    63    53    1
    63    64    54    1
    64    65    55    1
    65    66    56    1
    66    67    52    1
    67    68    53    1
    68    69    54    1
    69    70    55    1
    70    71    56    1
    71     8    10    2
    72    15    20    1
    73    16    21    1
    74    23    25    1
    75    24    25    1
    76    37    47    2
    77    38    48    2
    78    39    49    2
    79    40    50    2
    80    41    51    2
    81    72    73    1
    82    74    72    2
    83    75    72    2
    84    76    72    2
@<TRIPOS>SUBSTRUCTURE
     1 RES1        1 GROUP             0 ****  ****    0  
     2 RES2       72 GROUP             0 ****  ****    0  
@<TRIPOS>CRYSIN
   11.1948   11.1948   21.6130   90.0000   90.0000  120.0000   233     1
