@<TRIPOS>MOLECULE
QAXQUD
    76    84     2     0     0
SMALL
USER_CHARGES
****
Generated from the CSD

@<TRIPOS>ATOM
     1 Fe1      0.0000   0.0000  10.7100   Fe        1 RES1   2.0000
     2 N1      -0.5210   1.4818  11.9091   N.2       1 RES1   0.0000
     3 N2      -0.5528   1.2476  13.2611   N.pl3     1 RES1   0.0000
     4 C1       0.0000   0.0000  13.7317   C.3       1 RES1   0.0000
     5 H1       0.0000   0.0000  14.7327   H         1 RES1   0.0000
     6 C2      -0.9254   2.7388  11.7724   C.2       1 RES1   0.0000
     7 H2      -1.0135   3.1870  10.9392   H         1 RES1   0.0000
     8 C3      -1.2064   3.3188  13.0199   C.2       1 RES1   0.0000
     9 H3      -1.5009   4.2075  13.1819   H         1 RES1   0.0000
    10 C4      -0.9705   2.3429  13.9581   C.2       1 RES1   0.0000
    11 C5      -1.1747   2.3415  15.4378   C.3       1 RES1   0.0000
    12 H4      -0.3480   2.0592  15.8808   H         1 RES1   0.0000
    13 H5      -1.8970   1.7200  15.6666   H         1 RES1   0.0000
    14 H6      -1.4140   3.2445  15.7351   H         1 RES1   0.0000
    15 N1A     -1.0227  -1.1921  11.9091   N.2       1 RES1   0.0000
    16 N1B      1.5438  -0.2897  11.9091   N.2       1 RES1   0.0000
    17 N1I      0.5210  -1.4818   9.5109   N.2       1 RES1   0.0000
    18 N1J      1.0227   1.1921   9.5109   N.2       1 RES1   0.0000
    19 N1K     -1.5438   0.2897   9.5109   N.2       1 RES1   0.0000
    20 N2A     -0.8040  -1.1025  13.2611   N.pl3     1 RES1   0.0000
    21 N2B      1.3568  -0.1451  13.2611   N.pl3     1 RES1   0.0000
    22 N2I      0.5528  -1.2476   8.1589   N.pl3     1 RES1   0.0000
    23 N2J      0.8040   1.1025   8.1589   N.pl3     1 RES1   0.0000
    24 N2K     -1.3568   0.1451   8.1589   N.pl3     1 RES1   0.0000
    25 C1I      0.0000   0.0000   7.6883   C.3       1 RES1   0.0000
    26 H1I      0.0000   0.0000   6.6873   H         1 RES1   0.0000
    27 C2A     -1.9092  -2.1708  11.7724   C.2       1 RES1   0.0000
    28 C2B      2.8346  -0.5680  11.7724   C.2       1 RES1   0.0000
    29 C2I      0.9254  -2.7388   9.6476   C.2       1 RES1   0.0000
    30 C2J      1.9092   2.1708   9.6476   C.2       1 RES1   0.0000
    31 C2K     -2.8346   0.5680   9.6476   C.2       1 RES1   0.0000
    32 H2A     -2.2533  -2.4712  10.9392   H         1 RES1   0.0000
    33 H2B      3.2668  -0.7158  10.9392   H         1 RES1   0.0000
    34 H2I      1.0135  -3.1870  10.4808   H         1 RES1   0.0000
    35 H2J      2.2533   2.4712  10.4808   H         1 RES1   0.0000
    36 H2K     -3.2668   0.7158  10.4808   H         1 RES1   0.0000
    37 C3A     -2.2710  -2.7042  13.0199   C.2       1 RES1   0.0000
    38 C3B      3.4774  -0.6147  13.0199   C.2       1 RES1   0.0000
    39 C3I      1.2064  -3.3188   8.4001   C.2       1 RES1   0.0000
    40 C3J      2.2710   2.7042   8.4001   C.2       1 RES1   0.0000
    41 C3K     -3.4774   0.6147   8.4001   C.2       1 RES1   0.0000
    42 H3A     -2.8933  -3.4035  13.1819   H         1 RES1   0.0000
    43 H3B      4.3942  -0.8039  13.1819   H         1 RES1   0.0000
    44 H3I      1.5009  -4.2075   8.2381   H         1 RES1   0.0000
    45 H3J      2.8933   3.4035   8.2381   H         1 RES1   0.0000
    46 H3K     -4.3942   0.8039   8.2381   H         1 RES1   0.0000
    47 C4A     -1.5438  -2.0119  13.9581   C.2       1 RES1   0.0000
    48 C4B      2.5143  -0.3310  13.9581   C.2       1 RES1   0.0000
    49 C4I      0.9705  -2.3429   7.4619   C.2       1 RES1   0.0000
    50 C4J      1.5438   2.0119   7.4619   C.2       1 RES1   0.0000
    51 C4K     -2.5143   0.3310   7.4619   C.2       1 RES1   0.0000
    52 C5A     -1.4404  -2.1881  15.4378   C.3       1 RES1   0.0000
    53 C5B      2.6151  -0.1534  15.4378   C.3       1 RES1   0.0000
    54 C5I      1.1747  -2.3415   5.9822   C.3       1 RES1   0.0000
    55 C5J      1.4404   2.1881   5.9822   C.3       1 RES1   0.0000
    56 C5K     -2.6151   0.1534   5.9822   C.3       1 RES1   0.0000
    57 H4A     -1.6093  -1.3309  15.8808   H         1 RES1   0.0000
    58 H4B      1.9573  -0.7282  15.8808   H         1 RES1   0.0000
    59 H4I      0.3480  -2.0592   5.5392   H         1 RES1   0.0000
    60 H4J      1.6093   1.3309   5.5392   H         1 RES1   0.0000
    61 H4K     -1.9573   0.7282   5.5392   H         1 RES1   0.0000
    62 H5A     -0.5410  -2.5028  15.6666   H         1 RES1   0.0000
    63 H5B      2.4380   0.7829  15.6666   H         1 RES1   0.0000
    64 H5I      1.8970  -1.7200   5.7534   H         1 RES1   0.0000
    65 H5J      0.5410   2.5028   5.7534   H         1 RES1   0.0000
    66 H5K     -2.4380  -0.7829   5.7534   H         1 RES1   0.0000
    67 H6A     -2.1028  -2.8468  15.7351   H         1 RES1   0.0000
    68 H6B      3.5168  -0.3977  15.7351   H         1 RES1   0.0000
    69 H6I      1.4140  -3.2445   5.6849   H         1 RES1   0.0000
    70 H6J      2.1028   2.8468   5.6849   H         1 RES1   0.0000
    71 H6K     -3.5168   0.3977   5.6849   H         1 RES1   0.0000
    72 Cl1     -0.0006   6.3884  17.1925   Cl        2 RES2   0.0000
    73 O1      -0.0006   6.3884  15.7623   O.3       2 RES2  -1.0000
    74 O2       1.3464   6.5800  17.6531   O.2       2 RES2   0.0000
    75 O2A     -0.8395   7.4581  17.6531   O.2       2 RES2   0.0000
    76 O2B     -0.5070   5.1260  17.6531   O.2       2 RES2   0.0000
@<TRIPOS>BOND
     1     1     2    1
     2     2     3    1
     3     3     4    1
     4     4     5    1
     5     6     2    2
     6     7     6    1
     7     8     6    1
     8     9     8    1
     9    10     3    1
    10    11    10    1
    11    12    11    1
    12    13    11    1
    13    14    11    1
    14    15     1    1
    15    16     1    1
    16    17     1    1
    17    18     1    1
    18    19     1    1
    19    20     4    1
    20    21     4    1
    21    22    17    1
    22    23    18    1
    23    24    19    1
    24    25    22    1
    25    26    25    1
    26    27    15    2
    27    28    16    2
    28    29    17    2
    29    30    18    2
    30    31    19    2
    31    32    27    1
    32    33    28    1
    33    34    29    1
    34    35    30    1
    35    36    31    1
    36    37    27    1
    37    38    28    1
    38    39    29    1
    39    40    30    1
    40    41    31    1
    41    42    37    1
    42    43    38    1
    43    44    39    1
    44    45    40    1
    45    46    41    1
    46    47    20    1
    47    48    21    1
    48    49    22    1
    49    50    23    1
    50    51    24    1
    51    52    47    1
    52    53    48    1
    53    54    49    1
    54    55    50    1
    55    56    51    1
    56    57    52    1
    57    58    53    1
    58    59    54    1
    59    60    55    1
    60    61    56    1
    61    62    52    1
    62    63    53    1
    63    64    54    1
    64    65    55    1
    65    66    56    1
    66    67    52    1
    67    68    53    1
    68    69    54    1
    69    70    55    1
    70    71    56    1
    71     8    10    2
    72    15    20    1
    73    16    21    1
    74    23    25    1
    75    24    25    1
    76    37    47    2
    77    38    48    2
    78    39    49    2
    79    40    50    2
    80    41    51    2
    81    72    73    1
    82    74    72    2
    83    75    72    2
    84    76    72    2
@<TRIPOS>SUBSTRUCTURE
     1 RES1        1 GROUP             0 ****  ****    0  
     2 RES2       72 GROUP             0 ****  ****    0  
@<TRIPOS>CRYSIN
   11.0644   11.0644   21.4200   90.0000   90.0000  120.0000   233     1
