@<TRIPOS>MOLECULE
QAXQUD01
    76    84     2     0     0
SMALL
USER_CHARGES
****
Generated from the CSD

@<TRIPOS>ATOM
     1 Fe1      0.0000   0.0000  10.7460   Fe        1 RES1   2.0000
     2 N1      -0.5145   1.4873  11.9536   N.2       1 RES1   0.0000
     3 N2      -0.5431   1.2534  13.3076   N.pl3     1 RES1   0.0000
     4 C1       0.0000   0.0000  13.7751   C.3       1 RES1   0.0000
     5 H1       0.0000   0.0000  14.7650   H         1 RES1   0.0000
     6 C2      -0.9128   2.7439  11.8210   C.2       1 RES1   0.0000
     7 H2      -0.9937   3.1930  10.9996   H         1 RES1   0.0000
     8 C3      -1.1950   3.3137  13.0701   C.2       1 RES1   0.0000
     9 H3      -1.4871   4.1926  13.2326   H         1 RES1   0.0000
    10 C4      -0.9658   2.3450  14.0023   C.2       1 RES1   0.0000
    11 C5      -1.1654   2.3450  15.4871   C.3       1 RES1   0.0000
    12 H4      -1.4186   3.2355  15.7794   H         1 RES1   0.0000
    13 H5      -0.3407   2.0832  15.9256   H         1 RES1   0.0000
    14 H6      -1.8686   1.7182  15.7192   H         1 RES1   0.0000
    15 N1A     -1.0309  -1.1892  11.9536   N.2       1 RES1   0.0000
    16 N1B      1.5453  -0.2981  11.9536   N.2       1 RES1   0.0000
    17 N1I      0.5145  -1.4873   9.5384   N.2       1 RES1   0.0000
    18 N1J      1.0309   1.1892   9.5384   N.2       1 RES1   0.0000
    19 N1K     -1.5453   0.2981   9.5384   N.2       1 RES1   0.0000
    20 N2A     -0.8139  -1.0971  13.3076   N.pl3     1 RES1   0.0000
    21 N2B      1.3571  -0.1564  13.3076   N.pl3     1 RES1   0.0000
    22 N2I      0.5431  -1.2534   8.1844   N.pl3     1 RES1   0.0000
    23 N2J      0.8139   1.0971   8.1844   N.pl3     1 RES1   0.0000
    24 N2K     -1.3571   0.1564   8.1844   N.pl3     1 RES1   0.0000
    25 C1I      0.0000   0.0000   7.7169   C.3       1 RES1   0.0000
    26 H1I      0.0000   0.0000   6.7270   H         1 RES1   0.0000
    27 C2A     -1.9199  -2.1624  11.8210   C.2       1 RES1   0.0000
    28 C2B      2.8327  -0.5814  11.8210   C.2       1 RES1   0.0000
    29 C2I      0.9128  -2.7439   9.6710   C.2       1 RES1   0.0000
    30 C2J      1.9199   2.1624   9.6710   C.2       1 RES1   0.0000
    31 C2K     -2.8327   0.5814   9.6710   C.2       1 RES1   0.0000
    32 H2A     -2.2684  -2.4570  10.9996   H         1 RES1   0.0000
    33 H2B      3.2620  -0.7359  10.9996   H         1 RES1   0.0000
    34 H2I      0.9937  -3.1930  10.4924   H         1 RES1   0.0000
    35 H2J      2.2684   2.4570  10.4924   H         1 RES1   0.0000
    36 H2K     -3.2620   0.7359  10.4924   H         1 RES1   0.0000
    37 C3A     -2.2723  -2.6917  13.0701   C.2       1 RES1   0.0000
    38 C3B      3.4672  -0.6220  13.0701   C.2       1 RES1   0.0000
    39 C3I      1.1950  -3.3137   8.4219   C.2       1 RES1   0.0000
    40 C3J      2.2723   2.6917   8.4219   C.2       1 RES1   0.0000
    41 C3K     -3.4672   0.6220   8.4219   C.2       1 RES1   0.0000
    42 H3A     -2.8873  -3.3842  13.2326   H         1 RES1   0.0000
    43 H3B      4.3745  -0.8084  13.2326   H         1 RES1   0.0000
    44 H3I      1.4871  -4.1926   8.2594   H         1 RES1   0.0000
    45 H3J      2.8873   3.3842   8.2594   H         1 RES1   0.0000
    46 H3K     -4.3745   0.8084   8.2594   H         1 RES1   0.0000
    47 C4A     -1.5479  -2.0089  14.0023   C.2       1 RES1   0.0000
    48 C4B      2.5137  -0.3361  14.0023   C.2       1 RES1   0.0000
    49 C4I      0.9658  -2.3450   7.4897   C.2       1 RES1   0.0000
    50 C4J      1.5479   2.0089   7.4897   C.2       1 RES1   0.0000
    51 C4K     -2.5137   0.3361   7.4897   C.2       1 RES1   0.0000
    52 C5A     -1.4481  -2.1818  15.4871   C.3       1 RES1   0.0000
    53 C5B      2.6135  -0.1632  15.4871   C.3       1 RES1   0.0000
    54 C5I      1.1654  -2.3450   6.0049   C.3       1 RES1   0.0000
    55 C5J      1.4481   2.1818   6.0049   C.3       1 RES1   0.0000
    56 C5K     -2.6135   0.1632   6.0049   C.3       1 RES1   0.0000
    57 H4A     -2.0927  -2.8462  15.7794   H         1 RES1   0.0000
    58 H4B      3.5113  -0.3892  15.7794   H         1 RES1   0.0000
    59 H4I      1.4186  -3.2355   5.7126   H         1 RES1   0.0000
    60 H4J      2.0927   2.8462   5.7126   H         1 RES1   0.0000
    61 H4K     -3.5113   0.3892   5.7126   H         1 RES1   0.0000
    62 H5A     -1.6338  -1.3367  15.9256   H         1 RES1   0.0000
    63 H5B      1.9745  -0.7466  15.9256   H         1 RES1   0.0000
    64 H5I      0.3407  -2.0832   5.5664   H         1 RES1   0.0000
    65 H5J      1.6338   1.3367   5.5664   H         1 RES1   0.0000
    66 H5K     -1.9745   0.7466   5.5664   H         1 RES1   0.0000
    67 H6A     -0.5537  -2.4773  15.7192   H         1 RES1   0.0000
    68 H6B      2.4223   0.7591  15.7192   H         1 RES1   0.0000
    69 H6I      1.8686  -1.7182   5.7728   H         1 RES1   0.0000
    70 H6J      0.5537   2.4773   5.7728   H         1 RES1   0.0000
    71 H6K     -2.4223  -0.7591   5.7728   H         1 RES1   0.0000
    72 Cl1     -0.0006   6.4390  17.2516   Cl        2 RES2   0.0000
    73 O1      -0.0006   6.4390  15.8224   O.3       2 RES2  -1.0000
    74 O2      -0.8487   7.4966  17.6716   O.2       2 RES2   0.0000
    75 O2A     -0.4918   5.1748  17.6716   O.2       2 RES2   0.0000
    76 O2B      1.3405   6.6448  17.6716   O.2       2 RES2   0.0000
@<TRIPOS>BOND
     1     1     2    1
     2     2     3    1
     3     3     4    1
     4     4     5    1
     5     6     2    2
     6     7     6    1
     7     8     6    1
     8     9     8    1
     9    10     3    1
    10    11    10    1
    11    12    11    1
    12    13    11    1
    13    14    11    1
    14    15     1    1
    15    16     1    1
    16    17     1    1
    17    18     1    1
    18    19     1    1
    19    20     4    1
    20    21     4    1
    21    22    17    1
    22    23    18    1
    23    24    19    1
    24    25    22    1
    25    26    25    1
    26    27    15    2
    27    28    16    2
    28    29    17    2
    29    30    18    2
    30    31    19    2
    31    32    27    1
    32    33    28    1
    33    34    29    1
    34    35    30    1
    35    36    31    1
    36    37    27    1
    37    38    28    1
    38    39    29    1
    39    40    30    1
    40    41    31    1
    41    42    37    1
    42    43    38    1
    43    44    39    1
    44    45    40    1
    45    46    41    1
    46    47    20    1
    47    48    21    1
    48    49    22    1
    49    50    23    1
    50    51    24    1
    51    52    47    1
    52    53    48    1
    53    54    49    1
    54    55    50    1
    55    56    51    1
    56    57    52    1
    57    58    53    1
    58    59    54    1
    59    60    55    1
    60    61    56    1
    61    62    52    1
    62    63    53    1
    63    64    54    1
    64    65    55    1
    65    66    56    1
    66    67    52    1
    67    68    53    1
    68    69    54    1
    69    70    55    1
    70    71    56    1
    71     8    10    2
    72    15    20    1
    73    16    21    1
    74    23    25    1
    75    24    25    1
    76    37    47    2
    77    38    48    2
    78    39    49    2
    79    40    50    2
    80    41    51    2
    81    72    73    1
    82    74    72    2
    83    75    72    2
    84    76    72    2
@<TRIPOS>SUBSTRUCTURE
     1 RES1        1 GROUP             0 ****  ****    0  
     2 RES2       72 GROUP             0 ****  ****    0  
@<TRIPOS>CRYSIN
   11.1522   11.1522   21.4920   90.0000   90.0000  120.0000   233     1
