@<TRIPOS>MOLECULE
QEBWAY
    87    96     1     0     0
SMALL
NO_CHARGES
****
Generated from the CSD

@<TRIPOS>ATOM
     1 C1       5.6922   5.6671   4.4224   C.ar      1 RES1   0.0000
     2 H1       6.1317   5.8411   3.6214   H         1 RES1   0.0000
     3 C2       4.7220   6.5434   4.8414   C.ar      1 RES1   0.0000
     4 H2       4.5217   7.3016   4.3403   H         1 RES1   0.0000
     5 C3       4.0541   6.2849   6.0061   C.ar      1 RES1   0.0000
     6 H3       3.3905   6.8628   6.3067   H         1 RES1   0.0000
     7 C4       4.3806   5.1550   6.7275   C.ar      1 RES1   0.0000
     8 H4       3.9341   4.9549   7.5176   H         1 RES1   0.0000
     9 C5       5.3781   4.3265   6.2591   C.ar      1 RES1   0.0000
    10 C6       5.8111   3.0912   6.9954   C.3       1 RES1   0.0000
    11 H5       6.6523   3.2642   7.4473   H         1 RES1   0.0000
    12 H6       5.1492   2.8698   7.6694   H         1 RES1   0.0000
    13 C7       6.6828   0.8425   6.7804   C.3       1 RES1   0.0000
    14 H7       7.4910   1.2014   7.1805   H         1 RES1   0.0000
    15 H8       6.9507   0.1775   6.1262   H         1 RES1   0.0000
    16 C8       5.8821   0.1609   7.8527   C.ar      1 RES1   0.0000
    17 C9       6.1460   0.3977   9.1980   C.ar      1 RES1   0.0000
    18 H9       6.7883   1.0268   9.4377   H         1 RES1   0.0000
    19 C10      5.4658  -0.2893  10.1789   C.ar      1 RES1   0.0000
    20 H10      5.6458  -0.1169  11.0751   H         1 RES1   0.0000
    21 C11      4.5252  -1.2278   9.8403   C.ar      1 RES1   0.0000
    22 H11      4.0730  -1.6934  10.5064   H         1 RES1   0.0000
    23 C12      4.2478  -1.4789   8.5162   C.ar      1 RES1   0.0000
    24 H12      3.6169  -2.1250   8.2940   H         1 RES1   0.0000
    25 C13      4.9041  -0.7747   7.5011   C.ar      1 RES1   0.0000
    26 C14      4.5989  -1.0093   6.0706   C.ar      1 RES1   0.0000
    27 C15      4.3998  -2.3004   5.5898   C.ar      1 RES1   0.0000
    28 H13      4.4466  -3.0188   6.1773   H         1 RES1   0.0000
    29 C16      4.1367  -2.5313   4.2633   C.ar      1 RES1   0.0000
    30 H14      4.0271  -3.4031   3.9569   H         1 RES1   0.0000
    31 C17      4.0329  -1.4794   3.3860   C.ar      1 RES1   0.0000
    32 H15      3.8448  -1.6367   2.4888   H         1 RES1   0.0000
    33 C18      4.2112  -0.1912   3.8407   C.ar      1 RES1   0.0000
    34 H16      4.1307   0.5175   3.2444   H         1 RES1   0.0000
    35 C19      4.5064   0.0718   5.1711   C.ar      1 RES1   0.0000
    36 C20      4.6027   1.4901   5.6545   C.3       1 RES1   0.0000
    37 H17      4.0031   1.5971   6.4090   H         1 RES1   0.0000
    38 H18      4.2894   2.0760   4.9473   H         1 RES1   0.0000
    39 C21      7.6428   0.0022   3.1805   C.ar      1 RES1   0.0000
    40 H19      6.8763  -0.1735   3.6773   H         1 RES1   0.0000
    41 C22      8.0926  -0.9608   2.3109   C.ar      1 RES1   0.0000
    42 H20      7.6437  -1.7707   2.2268   H         1 RES1   0.0000
    43 C23      9.2163  -0.7036   1.5695   C.ar      1 RES1   0.0000
    44 H21      9.5440  -1.3381   0.9744   H         1 RES1   0.0000
    45 C24      9.8528   0.5086   1.7193   C.ar      1 RES1   0.0000
    46 H22     10.6146   0.7049   1.2220   H         1 RES1   0.0000
    47 C25      9.3471   1.4290   2.6158   C.ar      1 RES1   0.0000
    48 C26      9.9989   2.7554   2.8550   C.3       1 RES1   0.0000
    49 H23     10.5164   2.7134   3.6741   H         1 RES1   0.0000
    50 H24     10.6091   2.9475   2.1262   H         1 RES1   0.0000
    51 C27      8.3867   4.1310   1.6313   C.3       1 RES1   0.0000
    52 H25      7.5489   4.5967   1.7796   H         1 RES1   0.0000
    53 H26      8.1751   3.2821   1.2125   H         1 RES1   0.0000
    54 C28      9.2094   4.9406   0.6652   C.ar      1 RES1   0.0000
    55 C29      9.7865   4.3510  -0.4458   C.ar      1 RES1   0.0000
    56 H27      9.7585   3.4270  -0.5431   H         1 RES1   0.0000
    57 C30     10.4034   5.1230  -1.4126   C.ar      1 RES1   0.0000
    58 H28     10.8043   4.7194  -2.1486   H         1 RES1   0.0000
    59 C31     10.4221   6.4856  -1.2804   C.ar      1 RES1   0.0000
    60 H29     10.8060   7.0057  -1.9489   H         1 RES1   0.0000
    61 C32      9.8815   7.0927  -0.1741   C.ar      1 RES1   0.0000
    62 H30      9.9078   8.0188  -0.0974   H         1 RES1   0.0000
    63 C33      9.2909   6.3304   0.8379   C.ar      1 RES1   0.0000
    64 C34      8.8045   6.9643   2.0837   C.ar      1 RES1   0.0000
    65 C35      8.1719   8.2104   2.0631   C.ar      1 RES1   0.0000
    66 H31      8.0079   8.6272   1.2476   H         1 RES1   0.0000
    67 C36      7.7902   8.8295   3.2268   C.ar      1 RES1   0.0000
    68 H32      7.3685   9.6586   3.1901   H         1 RES1   0.0000
    69 C37      8.0244   8.2396   4.4401   C.ar      1 RES1   0.0000
    70 H33      7.7766   8.6717   5.2253   H         1 RES1   0.0000
    71 C38      8.6285   7.0044   4.4895   C.ar      1 RES1   0.0000
    72 H34      8.7780   6.6013   5.3147   H         1 RES1   0.0000
    73 C39      9.0175   6.3491   3.3302   C.ar      1 RES1   0.0000
    74 C40      9.7608   5.0484   3.4356   C.3       1 RES1   0.0000
    75 H35     10.5808   5.1192   2.9217   H         1 RES1   0.0000
    76 H36     10.0077   4.9087   4.3626   H         1 RES1   0.0000
    77 C41      9.4508   2.9494   6.7764   C.1       1 RES1   0.0000
    78 C42      5.3988   2.5936   1.8374   C.1       1 RES1   0.0000
    79 Fe1      7.3239   2.9221   4.3749   Fe        1 RES1   0.0000
    80 N1       8.8117   3.0962   5.8519   N.2       1 RES1   0.0000
    81 N2       5.8852   2.7752   2.8599   N.2       1 RES1   0.0000
    82 N3       6.0343   4.5752   5.1128   N.ar      1 RES1   0.0000
    83 N4       8.2499   1.1786   3.3473   N.ar      1 RES1   0.0000
    84 N5       5.9760   1.9448   6.0724   N.3       1 RES1   0.0000
    85 N6       9.0063   3.8515   2.9610   N.3       1 RES1   0.0000
    86 S1       4.7127   2.3432   0.3955   S.2       1 RES1   0.0000
    87 S2      10.3255   2.7111   8.1280   S.2       1 RES1   0.0000
@<TRIPOS>BOND
     1     1     2    1
     2     3     1   ar
     3     4     3    1
     4     5     3   ar
     5     6     5    1
     6     7     5   ar
     7     8     7    1
     8     9     7   ar
     9    10     9    1
    10    11    10    1
    11    12    10    1
    12    13    14    1
    13    15    13    1
    14    16    13    1
    15    17    16   ar
    16    18    17    1
    17    19    17   ar
    18    20    19    1
    19    21    19   ar
    20    22    21    1
    21    23    21   ar
    22    24    23    1
    23    25    16   ar
    24    26    25    1
    25    27    26   ar
    26    28    27    1
    27    29    27   ar
    28    30    29    1
    29    31    29   ar
    30    32    31    1
    31    33    31   ar
    32    34    33    1
    33    35    26   ar
    34    36    35    1
    35    37    36    1
    36    38    36    1
    37    39    40    1
    38    41    39   ar
    39    42    41    1
    40    43    41   ar
    41    44    43    1
    42    45    43   ar
    43    46    45    1
    44    47    45   ar
    45    48    47    1
    46    49    48    1
    47    50    48    1
    48    51    52    1
    49    53    51    1
    50    54    51    1
    51    55    54   ar
    52    56    55    1
    53    57    55   ar
    54    58    57    1
    55    59    57   ar
    56    60    59    1
    57    61    59   ar
    58    62    61    1
    59    63    54   ar
    60    64    63    1
    61    65    64   ar
    62    66    65    1
    63    67    65   ar
    64    68    67    1
    65    69    67   ar
    66    70    69    1
    67    71    69   ar
    68    72    71    1
    69    73    64   ar
    70    74    73    1
    71    75    74    1
    72    76    74    1
    73    77    80    2
    74    78    81    2
    75    79    80    1
    76    81    79    1
    77    82     1   ar
    78    83    39   ar
    79    84    10    1
    80    85    48    1
    81    86    78    2
    82    87    77    2
    83     9    82   ar
    84    13    84    1
    85    23    25   ar
    86    33    35   ar
    87    36    84    1
    88    47    83   ar
    89    51    85    1
    90    61    63   ar
    91    71    73   ar
    92    74    85    1
    93    79    82    1
    94    79    83    1
    95    79    84    1
    96    79    85    1
@<TRIPOS>SUBSTRUCTURE
     1 RES1        1 GROUP             0 ****  ****    0  
@<TRIPOS>CRYSIN
    8.4714   13.6801   16.5073   97.5985  101.0285   98.9703     2     1
