@<TRIPOS>MOLECULE
QEBWIG
    87    96     1     0     0
SMALL
NO_CHARGES
****
Generated from the CSD

@<TRIPOS>ATOM
     1 C1       1.9214   7.0876  13.9064   C.3       1 RES1   0.0000
     2 H1       1.3256   7.2282  14.6578   H         1 RES1   0.0000
     3 H2       1.6236   7.6645  13.1863   H         1 RES1   0.0000
     4 C2       1.7902   5.6576  13.4568   C.ar      1 RES1   0.0000
     5 C3       1.4824   5.3739  12.1348   C.ar      1 RES1   0.0000
     6 H3       1.4120   6.0716  11.5240   H         1 RES1   0.0000
     7 C4       1.2793   4.0777  11.7083   C.ar      1 RES1   0.0000
     8 H4       1.0833   3.9071  10.8143   H         1 RES1   0.0000
     9 C5       1.3666   3.0427  12.6023   C.ar      1 RES1   0.0000
    10 H5       1.2431   2.1685  12.3136   H         1 RES1   0.0000
    11 C6       1.6359   3.2981  13.9254   C.ar      1 RES1   0.0000
    12 H6       1.6677   2.5908  14.5290   H         1 RES1   0.0000
    13 C7       1.8639   4.5954  14.3794   C.ar      1 RES1   0.0000
    14 C8       2.1721   4.8547  15.8004   C.ar      1 RES1   0.0000
    15 C9       1.5034   4.1888  16.8276   C.ar      1 RES1   0.0000
    16 H7       0.8614   3.5498  16.6204   H         1 RES1   0.0000
    17 C10      1.7823   4.4685  18.1490   C.ar      1 RES1   0.0000
    18 H8       1.3178   4.0274  18.8243   H         1 RES1   0.0000
    19 C11      2.7438   5.3950  18.4723   C.ar      1 RES1   0.0000
    20 H9       2.9253   5.5860  19.3643   H         1 RES1   0.0000
    21 C12      3.4371   6.0390  17.4744   C.ar      1 RES1   0.0000
    22 H10      4.0943   6.6580  17.6987   H         1 RES1   0.0000
    23 C13      3.1712   5.7793  16.1391   C.ar      1 RES1   0.0000
    24 C14      3.9909   6.4129  15.0494   C.3       1 RES1   0.0000
    25 H11      4.8077   6.7614  15.4409   H         1 RES1   0.0000
    26 H12      4.2421   5.7251  14.4131   H         1 RES1   0.0000
    27 C15      3.1718   8.6886  15.2174   C.3       1 RES1   0.0000
    28 H13      4.0175   8.8584  15.6611   H         1 RES1   0.0000
    29 H14      2.5082   8.4946  15.8977   H         1 RES1   0.0000
    30 C16      2.7586   9.9069  14.4510   C.ar      1 RES1   0.0000
    31 C17      1.7743  10.7649  14.8973   C.ar      1 RES1   0.0000
    32 H15      1.3209  10.5896  15.6905   H         1 RES1   0.0000
    33 C18      1.4718  11.8799  14.1554   C.ar      1 RES1   0.0000
    34 H16      0.8256  12.4801  14.4507   H         1 RES1   0.0000
    35 C19      2.1304  12.0988  12.9787   C.ar      1 RES1   0.0000
    36 H17      1.9368  12.8442  12.4588   H         1 RES1   0.0000
    37 C20      3.0862  11.1947  12.5788   C.ar      1 RES1   0.0000
    38 H18      3.5239  11.3389  11.7703   H         1 RES1   0.0000
    39 C21      7.1462  10.4677  11.6303   C.3       1 RES1   0.0000
    40 H19      7.9640  10.5183  11.1112   H         1 RES1   0.0000
    41 H20      7.3967  10.3282  12.5566   H         1 RES1   0.0000
    42 C22      6.4307  11.7807  11.5220   C.ar      1 RES1   0.0000
    43 C23      6.0480  12.4337  12.6855   C.ar      1 RES1   0.0000
    44 H21      6.1903  12.0251  13.5077   H         1 RES1   0.0000
    45 C24      5.4597  13.6798  12.6398   C.ar      1 RES1   0.0000
    46 H22      5.2129  14.1091  13.4262   H         1 RES1   0.0000
    47 C25      5.2416  14.2799  11.4294   C.ar      1 RES1   0.0000
    48 H23      4.8343  15.1145  11.3967   H         1 RES1   0.0000
    49 C26      5.6187  13.6573  10.2597   C.ar      1 RES1   0.0000
    50 H24      5.4655  14.0807   9.4456   H         1 RES1   0.0000
    51 C27      6.2296  12.3994  10.2771   C.ar      1 RES1   0.0000
    52 C28      6.6993  11.7516   9.0353   C.ar      1 RES1   0.0000
    53 C29      7.3140  12.4955   8.0231   C.ar      1 RES1   0.0000
    54 H25      7.3672  13.4211   8.0965   H         1 RES1   0.0000
    55 C30      7.8414  11.8673   6.9170   C.ar      1 RES1   0.0000
    56 H26      8.2361  12.3759   6.2465   H         1 RES1   0.0000
    57 C31      7.7932  10.5053   6.7914   C.ar      1 RES1   0.0000
    58 H27      8.1874  10.0879   6.0589   H         1 RES1   0.0000
    59 C32      7.1535   9.7544   7.7617   C.ar      1 RES1   0.0000
    60 H28      7.1028   8.8304   7.6691   H         1 RES1   0.0000
    61 C33      6.5876  10.3651   8.8686   C.ar      1 RES1   0.0000
    62 C34      5.7501   9.5749   9.8332   C.3       1 RES1   0.0000
    63 H29      4.9203  10.0559   9.9791   H         1 RES1   0.0000
    64 H30      5.5240   8.7285   9.4146   H         1 RES1   0.0000
    65 C35      7.3224   8.1636  11.0667   C.3       1 RES1   0.0000
    66 H31      7.8481   8.1197  11.8812   H         1 RES1   0.0000
    67 H32      7.9297   8.3288  10.3282   H         1 RES1   0.0000
    68 C36      6.6343   6.8531  10.8543   C.ar      1 RES1   0.0000
    69 C37      7.0933   5.9126   9.9543   C.ar      1 RES1   0.0000
    70 H33      7.8480   6.0845   9.4391   H         1 RES1   0.0000
    71 C38      6.4245   4.7181   9.8274   C.ar      1 RES1   0.0000
    72 H34      6.7255   4.0680   9.2352   H         1 RES1   0.0000
    73 C39      5.3079   4.5008  10.5882   C.ar      1 RES1   0.0000
    74 H35      4.8323   3.7048  10.5158   H         1 RES1   0.0000
    75 C40      4.9016   5.4790  11.4610   C.ar      1 RES1   0.0000
    76 H36      4.1437   5.3231  11.9759   H         1 RES1   0.0000
    77 C41      6.7887   8.5003  15.0185   C.1       1 RES1   0.0000
    78 C42      2.7540   8.0221  10.0584   C.1       1 RES1   0.0000
    79 Fe1      4.6670   8.4258  12.5968   Fe        1 RES1   0.0000
    80 N1       3.3123   7.5138  14.3143   N.3       1 RES1   0.0000
    81 N2       3.4148  10.1188  13.2963   N.ar      1 RES1   0.0000
    82 N3       6.3622   9.2873  11.1675   N.3       1 RES1   0.0000
    83 N4       5.5405   6.6424  11.6080   N.ar      1 RES1   0.0000
    84 N5       6.1638   8.5979  14.0683   N.2       1 RES1   0.0000
    85 N6       3.2281   8.2812  11.0765   N.2       1 RES1   0.0000
    86 Se1      2.0446   7.5880   8.4944   Se        1 RES1   0.0000
    87 Se2      7.7075   8.3038  16.5292   Se        1 RES1   0.0000
@<TRIPOS>BOND
     1     1     2    1
     2     3     1    1
     3     4     1    1
     4     5     4   ar
     5     6     5    1
     6     7     5   ar
     7     8     7    1
     8     9     7   ar
     9    10     9    1
    10    11     9   ar
    11    12    11    1
    12    13     4   ar
    13    14    13    1
    14    15    14   ar
    15    16    15    1
    16    17    15   ar
    17    18    17    1
    18    19    17   ar
    19    20    19    1
    20    21    19   ar
    21    22    21    1
    22    23    14   ar
    23    24    23    1
    24    25    24    1
    25    26    24    1
    26    27    28    1
    27    29    27    1
    28    30    27    1
    29    31    30   ar
    30    32    31    1
    31    33    31   ar
    32    34    33    1
    33    35    33   ar
    34    36    35    1
    35    37    35   ar
    36    38    37    1
    37    39    40    1
    38    41    39    1
    39    42    39    1
    40    43    42   ar
    41    44    43    1
    42    45    43   ar
    43    46    45    1
    44    47    45   ar
    45    48    47    1
    46    49    47   ar
    47    50    49    1
    48    51    42   ar
    49    52    51    1
    50    53    52   ar
    51    54    53    1
    52    55    53   ar
    53    56    55    1
    54    57    55   ar
    55    58    57    1
    56    59    57   ar
    57    60    59    1
    58    61    52   ar
    59    62    61    1
    60    63    62    1
    61    64    62    1
    62    65    66    1
    63    67    65    1
    64    68    65    1
    65    69    68   ar
    66    70    69    1
    67    71    69   ar
    68    72    71    1
    69    73    71   ar
    70    74    73    1
    71    75    73   ar
    72    76    75    1
    73    77    84    2
    74    78    85    2
    75    79    80    1
    76    80     1    1
    77    81    30   ar
    78    82    39    1
    79    83    68   ar
    80    84    79    1
    81    85    79    1
    82    86    78    2
    83    87    77    2
    84    11    13   ar
    85    21    23   ar
    86    24    80    1
    87    27    80    1
    88    37    81   ar
    89    49    51   ar
    90    59    61   ar
    91    62    82    1
    92    65    82    1
    93    75    83   ar
    94    79    81    1
    95    79    82    1
    96    79    83    1
@<TRIPOS>SUBSTRUCTURE
     1 RES1        1 GROUP             0 ****  ****    0  
@<TRIPOS>CRYSIN
    8.5032   13.5270   16.8450   96.6710  101.6030   98.3910     2     1
