@<TRIPOS>MOLECULE
QEGVON
    87    96     3     0     0
SMALL
USER_CHARGES
****
Generated from the CSD

@<TRIPOS>ATOM
     1 Fe1      7.5766   5.7955   5.2038   Fe        1 RES1   2.0000
     2 N1       9.3219   6.2495   6.4537   N.ar      1 RES1   0.0000
     3 N2       7.0319   5.3122   7.1691   N.ar      1 RES1   0.0000
     4 N3       5.5195   5.0320   5.0841   N.ar      1 RES1   0.0000
     5 N4       6.3440   4.3431   2.2416   N.ar      1 RES1   0.0000
     6 N5       8.3157   3.5858   5.2259   N.ar      1 RES1   0.0000
     7 N6       8.8528   5.5224   3.5165   N.ar      1 RES1   0.0000
     8 N7       7.3689   7.6301   3.9442   N.ar      1 RES1   0.0000
     9 N8       6.1733   7.9475   6.3634   N.ar      1 RES1   0.0000
    10 C1      10.5062   6.6689   6.0007   C.ar      1 RES1   0.0000
    11 H1      10.5949   6.7921   5.0849   H         1 RES1   0.0000
    12 C2      11.6105   6.9349   6.7879   C.ar      1 RES1   0.0000
    13 H2      12.4018   7.2594   6.4264   H         1 RES1   0.0000
    14 C3      11.4798   6.6955   8.1455   C.ar      1 RES1   0.0000
    15 H3      12.1954   6.8498   8.7199   H         1 RES1   0.0000
    16 C4      10.2904   6.2282   8.6395   C.ar      1 RES1   0.0000
    17 H4      10.1893   6.0553   9.5513   H         1 RES1   0.0000
    18 C5       9.2445   6.0198   7.7599   C.ar      1 RES1   0.0000
    19 C6       7.8896   5.4922   8.1816   C.ar      1 RES1   0.0000
    20 C7       7.5684   5.2147   9.4669   C.ar      1 RES1   0.0000
    21 H5       8.1869   5.3574  10.1457   H         1 RES1   0.0000
    22 C8       6.3060   4.7155   9.7601   C.ar      1 RES1   0.0000
    23 H6       6.0687   4.4929  10.6317   H         1 RES1   0.0000
    24 C9       5.4309   4.5612   8.7359   C.ar      1 RES1   0.0000
    25 H7       4.5713   4.2526   8.9127   H         1 RES1   0.0000
    26 C10      5.7793   4.8440   7.4828   C.ar      1 RES1   0.0000
    27 C11      4.9351   4.7252   6.2537   C.ar      1 RES1   0.0000
    28 C12      3.6021   4.3094   6.3300   C.ar      1 RES1   0.0000
    29 H8       3.2121   4.1196   7.1534   H         1 RES1   0.0000
    30 C13      2.8788   4.1870   5.1733   C.ar      1 RES1   0.0000
    31 H9       2.0033   3.8749   5.1934   H         1 RES1   0.0000
    32 C14      3.4703   4.5346   3.9643   C.ar      1 RES1   0.0000
    33 H10      2.9772   4.5151   3.1730   H         1 RES1   0.0000
    34 C15      4.7937   4.9088   3.9442   C.ar      1 RES1   0.0000
    35 C16      5.4113   5.1961   2.6469   C.ar      1 RES1   0.0000
    36 C17      5.0341   6.3284   1.9199   C.ar      1 RES1   0.0000
    37 H11      4.4076   6.9269   2.2573   H         1 RES1   0.0000
    38 C18      5.6125   6.5341   0.6949   C.ar      1 RES1   0.0000
    39 H12      5.3528   7.2612   0.1767   H         1 RES1   0.0000
    40 C19      6.5715   5.6740   0.2289   C.ar      1 RES1   0.0000
    41 H13      7.0017   5.8079  -0.5824   H         1 RES1   0.0000
    42 C20      6.8584   4.6020   1.0403   C.ar      1 RES1   0.0000
    43 H14      7.4784   3.9910   0.7149   H         1 RES1   0.0000
    44 C21      8.0384   2.6787   6.1172   C.ar      1 RES1   0.0000
    45 H15      7.4023   2.8844   6.7638   H         1 RES1   0.0000
    46 C22      8.6482   1.3895   6.1694   C.ar      1 RES1   0.0000
    47 H16      8.3821   0.7342   6.7718   H         1 RES1   0.0000
    48 C23      9.6416   1.1917   5.2737   C.ar      1 RES1   0.0000
    49 H17     10.1231   0.3972   5.3018   H         1 RES1   0.0000
    50 C24      9.9543   2.1130   4.3338   C.ar      1 RES1   0.0000
    51 H18     10.6037   1.9295   3.6952   H         1 RES1   0.0000
    52 C25      9.2892   3.3544   4.3338   C.ar      1 RES1   0.0000
    53 C26      9.5568   4.3821   3.3699   C.ar      1 RES1   0.0000
    54 C27     10.5159   4.2712   2.3456   C.ar      1 RES1   0.0000
    55 H19     11.0179   3.4927   2.2573   H         1 RES1   0.0000
    56 C28     10.7062   5.3113   1.4861   C.ar      1 RES1   0.0000
    57 H20     11.3459   5.2431   0.8154   H         1 RES1   0.0000
    58 C29      9.9646   6.4499   1.5986   C.ar      1 RES1   0.0000
    59 H21     10.0767   7.1539   1.0041   H         1 RES1   0.0000
    60 C30      9.0246   6.5341   2.6469   C.ar      1 RES1   0.0000
    61 C31      8.1634   7.7107   2.8477   C.ar      1 RES1   0.0000
    62 C32      8.1311   8.7331   1.9520   C.ar      1 RES1   0.0000
    63 H22      8.7080   8.7437   1.2210   H         1 RES1   0.0000
    64 C33      7.2411   9.7386   2.1448   C.ar      1 RES1   0.0000
    65 H23      7.1676  10.4338   1.5303   H         1 RES1   0.0000
    66 C34      6.4693   9.7023   3.2413   C.ar      1 RES1   0.0000
    67 H24      5.8855  10.4072   3.4060   H         1 RES1   0.0000
    68 C35      6.5173   8.6515   4.1330   C.ar      1 RES1   0.0000
    69 C36      5.7101   8.6391   5.3661   C.ar      1 RES1   0.0000
    70 C37      4.5358   9.3981   5.4504   C.ar      1 RES1   0.0000
    71 H25      4.2119   9.8592   4.7114   H         1 RES1   0.0000
    72 C38      3.8782   9.4442   6.6433   C.ar      1 RES1   0.0000
    73 H26      3.0909   9.9337   6.7116   H         1 RES1   0.0000
    74 C39      4.3624   8.7721   7.7599   C.ar      1 RES1   0.0000
    75 H27      3.9452   8.8191   8.5913   H         1 RES1   0.0000
    76 C40      5.5169   8.0229   7.5470   C.ar      1 RES1   0.0000
    77 H28      5.8600   7.5414   8.2660   H         1 RES1   0.0000
    78 Cl1      0.9108   2.6167   8.5905   Cl        2 RES2   0.0000
    79 O1       0.9985   1.1900   8.5311   O.3       2 RES2  -1.0000
    80 O2      -0.2695   2.9403   9.3059   O.2       2 RES2   0.0000
    81 O3       0.8353   3.1141   7.2904   O.2       2 RES2   0.0000
    82 O4       2.0220   3.2347   9.2203   O.2       2 RES2   0.0000
    83 Cl2     12.5406   9.1924   2.0737   Cl        3 RES3   0.0000
    84 O5      11.4545   9.7413   1.3953   O.3       3 RES3  -1.0000
    85 O6      13.2721  10.2636   2.5505   O.2       3 RES3   0.0000
    86 O7      12.1667   8.4600   3.2216   O.2       3 RES3   0.0000
    87 O8      13.2447   8.4636   1.1969   O.2       3 RES3   0.0000
@<TRIPOS>BOND
     1     1     2    1
     2     2    10   ar
     3     3     1    1
     4     4     1    1
     5     5    35   ar
     6     6     1    1
     7     7     1    1
     8     8     1    1
     9     9    69   ar
    10    10    11    1
    11    12    10   ar
    12    13    12    1
    13    14    12   ar
    14    15    14    1
    15    16    14   ar
    16    17    16    1
    17    18     2   ar
    18    19     3   ar
    19    20    19   ar
    20    21    20    1
    21    22    20   ar
    22    23    22    1
    23    24    22   ar
    24    25    24    1
    25    26     3   ar
    26    27     4   ar
    27    28    27   ar
    28    29    28    1
    29    30    28   ar
    30    31    30    1
    31    32    30   ar
    32    33    32    1
    33    34     4   ar
    34    35    34    1
    35    36    35   ar
    36    37    36    1
    37    38    36   ar
    38    39    38    1
    39    40    38   ar
    40    41    40    1
    41    42     5   ar
    42    43    42    1
    43    44     6   ar
    44    45    44    1
    45    46    44   ar
    46    47    46    1
    47    48    46   ar
    48    49    48    1
    49    50    48   ar
    50    51    50    1
    51    52     6   ar
    52    53     7   ar
    53    54    53   ar
    54    55    54    1
    55    56    54   ar
    56    57    56    1
    57    58    56   ar
    58    59    58    1
    59    60     7   ar
    60    61     8   ar
    61    62    61   ar
    62    63    62    1
    63    64    62   ar
    64    65    64    1
    65    66    64   ar
    66    67    66    1
    67    68     8   ar
    68    69    68    1
    69    70    69   ar
    70    71    70    1
    71    72    70   ar
    72    73    72    1
    73    74    72   ar
    74    75    74    1
    75    76     9   ar
    76    77    76    1
    77    16    18   ar
    78    18    19    1
    79    24    26   ar
    80    26    27    1
    81    32    34   ar
    82    40    42   ar
    83    50    52   ar
    84    52    53    1
    85    58    60   ar
    86    60    61    1
    87    66    68   ar
    88    74    76   ar
    89    78    79    1
    90    80    78    2
    91    81    78    2
    92    82    78    2
    93    83    84    1
    94    85    83    2
    95    86    83    2
    96    87    83    2
@<TRIPOS>SUBSTRUCTURE
     1 RES1        1 GROUP             0 ****  ****    0  
     2 RES2       78 GROUP             0 ****  ****    0  
     3 RES3       83 GROUP             0 ****  ****    0  
@<TRIPOS>CRYSIN
   10.3920    8.8670   40.1770   90.0000   91.3900   90.0000   231     1
