@<TRIPOS>MOLECULE
QEHZIN
    86    87     4     0     0
SMALL
USER_CHARGES
****
Generated from the CSD

@<TRIPOS>ATOM
     1 Fe1      5.8993  12.0663   8.3847   Fe        1 RES1   2.0000
     2 P1       4.5204  10.4391   9.1810   P.3       1 RES1   0.0000
     3 P2       4.1780  13.5710   8.7336   P.3       1 RES1   0.0000
     4 P3       7.4898  13.7108   8.2103   P.3       1 RES1   0.0000
     5 P4       5.6143  11.7894   6.1851   P.3       1 RES1   0.0000
     6 N1       6.6605  11.8723  10.2490   N.ar      1 RES1   0.0000
     7 O1       6.9551  12.2566   5.4349   O.3       1 RES1   0.0000
     8 C1       5.9890  12.0549  11.4228   C.ar      1 RES1   0.0000
     9 C2       6.6540  11.8978  12.6288   C.ar      1 RES1   0.0000
    10 H1       6.2040  12.0699  13.4458   H         1 RES1   0.0000
    11 C3       7.9886  11.5171  12.6557   C.ar      1 RES1   0.0000
    12 H2       8.3883  11.4077  13.4517   H         1 RES1   0.0000
    13 C4       8.6376  11.2750  11.4626   C.ar      1 RES1   0.0000
    14 H3       9.4702  11.0667  11.4262   H         1 RES1   0.0000
    15 C5       7.9689  11.4787  10.2692   C.ar      1 RES1   0.0000
    16 C6       4.4845  12.3650  11.3462   C.3       1 RES1   0.0000
    17 C7       3.7536  11.1513  10.7119   C.3       1 RES1   0.0000
    18 H4       2.7978  11.4003  10.4593   H         1 RES1   0.0000
    19 H5       3.6396  10.3776  11.3668   H         1 RES1   0.0000
    20 C8       4.2166  13.6910  10.5686   C.3       1 RES1   0.0000
    21 H6       4.7963  14.3256  10.8101   H         1 RES1   0.0000
    22 H7       3.3733  14.0396  10.7947   H         1 RES1   0.0000
    23 C9       3.8986  12.5570  12.7520   C.3       1 RES1   0.0000
    24 H8       4.2860  13.3236  13.2103   H         1 RES1   0.0000
    25 H9       4.0801  11.7913  13.3102   H         1 RES1   0.0000
    26 H10      2.9456  12.6919  12.6525   H         1 RES1   0.0000
    27 C10      9.0191  12.7169   8.3813   C.3       1 RES1   0.0000
    28 H11      9.5877  13.0646   8.9714   H         1 RES1   0.0000
    29 H12      9.4538  12.6589   7.4906   H         1 RES1   0.0000
    30 C11      7.4923  10.8003   7.9596   C.3       1 RES1   0.0000
    31 H13      7.8416  10.7686   7.0387   H         1 RES1   0.0000
    32 H14      7.2785   9.9487   8.1698   H         1 RES1   0.0000
    33 C12      8.5971  11.3186   8.8962   C.3       1 RES1   0.0000
    34 C13      9.8109  10.3785   8.9087   C.3       1 RES1   0.0000
    35 H15     10.1225  10.3006   8.0044   H         1 RES1   0.0000
    36 H16     10.5073  10.7271   9.4650   H         1 RES1   0.0000
    37 H17      9.5932   9.4453   9.2449   H         1 RES1   0.0000
    38 C14      5.3741   8.9637   9.8382   C.3       1 RES1   0.0000
    39 H18      6.1432   9.2681  10.5140   H         1 RES1   0.0000
    40 H19      5.7816   8.4922   9.1343   H         1 RES1   0.0000
    41 H20      4.7251   8.4433  10.3118   H         1 RES1   0.0000
    42 C15      3.1201   9.6531   8.3119   C.3       1 RES1   0.0000
    43 H21      2.5109   9.2205   8.9916   H         1 RES1   0.0000
    44 H22      3.4579   8.8588   7.7951   H         1 RES1   0.0000
    45 H23      2.6032  10.2884   7.7594   H         1 RES1   0.0000
    46 C16      4.2467  15.3121   8.1951   C.3       1 RES1   0.0000
    47 H24      4.2337  15.3116   7.2670   H         1 RES1   0.0000
    48 H25      5.0487  15.7259   8.4493   H         1 RES1   0.0000
    49 H26      3.4639  15.7845   8.5575   H         1 RES1   0.0000
    50 C17      2.4224  13.2323   8.3479   C.3       1 RES1   0.0000
    51 H27      1.8985  13.8686   8.7858   H         1 RES1   0.0000
    52 H28      2.2746  13.3639   7.3860   H         1 RES1   0.0000
    53 H29      2.1618  12.3656   8.5587   H         1 RES1   0.0000
    54 C18      7.5932  14.8678   9.6253   C.3       1 RES1   0.0000
    55 H30      8.4243  15.2701   9.6041   H         1 RES1   0.0000
    56 H31      7.5476  14.3708  10.4070   H         1 RES1   0.0000
    57 H32      6.8096  15.4986   9.6208   H         1 RES1   0.0000
    58 C19      7.7470  14.8378   6.8034   C.3       1 RES1   0.0000
    59 H33      6.9744  15.3104   6.6045   H         1 RES1   0.0000
    60 H34      8.4395  15.4607   7.0244   H         1 RES1   0.0000
    61 H35      8.0311  14.3793   6.0896   H         1 RES1   0.0000
    62 C20      5.3070  10.1061   5.5793   C.3       1 RES1   0.0000
    63 H36      5.8137   9.4819   6.0182   H         1 RES1   0.0000
    64 H37      4.3497   9.9585   5.7684   H         1 RES1   0.0000
    65 H38      5.3426  10.0318   4.5910   H         1 RES1   0.0000
    66 C21      4.3016  12.7139   5.3803   C.3       1 RES1   0.0000
    67 H39      4.5036  13.6364   5.4354   H         1 RES1   0.0000
    68 H40      3.4856  12.3656   5.8160   H         1 RES1   0.0000
    69 H41      4.3068  12.5367   4.4720   H         1 RES1   0.0000
    70 C22      7.0591  12.4206   3.9971   C.3       1 RES1   0.0000
    71 H42      6.5122  13.1232   3.7108   H         1 RES1   0.0000
    72 H43      6.6984  11.5958   3.5205   H         1 RES1   0.0000
    73 H44      8.0180  12.6589   3.8179   H         1 RES1   0.0000
    74 B1       0.4331  12.2365   4.7383   B         2 RES2  -1.0000
    75 F1       0.7929  11.4626   5.8386   F         2 RES2   0.0000
    76 F2       1.5740  12.5716   4.0079   F         2 RES2   0.0000
    77 F3      -0.4000  11.5010   3.8959   F         2 RES2   0.0000
    78 F4      -0.2413  13.3844   5.1337   F         2 RES2   0.0000
    79 B2       4.7388   1.6736   0.2978   B         3 RES3  -1.0000
    80 F5       4.7854   1.0792   1.5631   F         3 RES3   0.0000
    81 F6       5.1558   0.7438  -0.6512   F         3 RES3   0.0000
    82 F7       5.6116   2.7626   0.2782   F         3 RES3   0.0000
    83 F8       3.4554   2.0868   0.0255   F         3 RES3   0.0000
    84 O2       4.9022  10.4661   2.0769   O.3       4 RES4   0.0000
    85 H45      5.1711  10.0562   1.2512   H         4 RES4   0.0000
    86 H46      4.8585  11.3783   1.8435   H         4 RES4   0.0000
@<TRIPOS>BOND
     1     1     2    1
     2     2    17    1
     3     3     1    1
     4     4     1    1
     5     5     1    1
     6     6     1    1
     7     7     5    1
     8     8     6   ar
     9     9     8   ar
    10    10     9    1
    11    11     9   ar
    12    12    11    1
    13    13    11   ar
    14    14    13    1
    15    15     6   ar
    16    16     8    1
    17    17    16    1
    18    18    17    1
    19    19    17    1
    20    20     3    1
    21    21    20    1
    22    22    20    1
    23    23    16    1
    24    24    23    1
    25    25    23    1
    26    26    23    1
    27    27     4    1
    28    28    27    1
    29    29    27    1
    30    30     1    1
    31    31    30    1
    32    32    30    1
    33    33    15    1
    34    34    33    1
    35    35    34    1
    36    36    34    1
    37    37    34    1
    38    38     2    1
    39    39    38    1
    40    40    38    1
    41    41    38    1
    42    42     2    1
    43    43    42    1
    44    44    42    1
    45    45    42    1
    46    46     3    1
    47    47    46    1
    48    48    46    1
    49    49    46    1
    50    50     3    1
    51    51    50    1
    52    52    50    1
    53    53    50    1
    54    54     4    1
    55    55    54    1
    56    56    54    1
    57    57    54    1
    58    58     4    1
    59    59    58    1
    60    60    58    1
    61    61    58    1
    62    62     5    1
    63    63    62    1
    64    64    62    1
    65    65    62    1
    66    66     5    1
    67    67    66    1
    68    68    66    1
    69    69    66    1
    70    70     7    1
    71    71    70    1
    72    72    70    1
    73    73    70    1
    74    13    15   ar
    75    16    20    1
    76    27    33    1
    77    30    33    1
    78    74    75    1
    79    76    74    1
    80    77    74    1
    81    78    74    1
    82    79    80    1
    83    81    79    1
    84    82    79    1
    85    83    79    1
    86    84    85    1
    87    86    84    1
@<TRIPOS>SUBSTRUCTURE
     1 RES1        1 GROUP             0 ****  ****    0  
     2 RES2       74 GROUP             0 ****  ****    0  
     3 RES3       79 GROUP             0 ****  ****    0  
     4 RES4       84 GROUP             0 ****  ****    0  
@<TRIPOS>CRYSIN
   10.5830   12.2190   12.6690   90.0000  110.1490   90.0000     4     1
