@<TRIPOS>MOLECULE
QELJOJ
   127   150     5     0     0
SMALL
USER_CHARGES
****
Generated from the CSD

@<TRIPOS>ATOM
     1 Fe1      5.5223  11.2802  11.0894   Fe        1 RES1   2.0000
     2 N1       5.5415   9.3278  11.2357   N.ar      1 RES1   0.0000
     3 N2       6.9121  11.1125  12.4900   N.ar      1 RES1   0.0000
     4 C1       4.7507   8.4589  10.5865   C.ar      1 RES1   0.0000
     5 H1       4.0999   8.8014   9.9850   H         1 RES1   0.0000
     6 C2       4.8364   7.1003  10.7497   C.ar      1 RES1   0.0000
     7 H2       4.2527   6.5200  10.2766   H         1 RES1   0.0000
     8 C3       5.7792   6.5922  11.6135   C.ar      1 RES1   0.0000
     9 H3       5.8649   5.6525  11.7308   H         1 RES1   0.0000
    10 C4       6.6015   7.4541  12.3030   C.ar      1 RES1   0.0000
    11 H4       7.2593   7.1215  12.9045   H         1 RES1   0.0000
    12 C5       6.4532   8.8169  12.1031   C.ar      1 RES1   0.0000
    13 C6       7.2709   9.8402  12.7798   C.ar      1 RES1   0.0000
    14 C7       8.3086   9.5430  13.6490   C.ar      1 RES1   0.0000
    15 H5       8.5402   8.6415  13.8324   H         1 RES1   0.0000
    16 C8       8.9942  10.5775  14.2431   C.ar      1 RES1   0.0000
    17 H6       9.7076  10.3978  14.8446   H         1 RES1   0.0000
    18 C9       8.6329  11.8781  13.9534   C.ar      1 RES1   0.0000
    19 H7       9.0892  12.6070  14.3568   H         1 RES1   0.0000
    20 C10      7.5998  12.1003  13.0732   C.ar      1 RES1   0.0000
    21 H8       7.3658  12.9976  12.8678   H         1 RES1   0.0000
    22 N3       4.0582  11.3814   9.7632   N.ar      1 RES1   0.0000
    23 N4       3.9921  11.3488  12.3140   N.ar      1 RES1   0.0000
    24 C11      4.1740  11.3927   8.4208   C.ar      1 RES1   0.0000
    25 H9       5.0333  11.2483   8.0430   H         1 RES1   0.0000
    26 C12      3.1131  11.5993   7.5681   C.ar      1 RES1   0.0000
    27 H10      3.2359  11.5781   6.6255   H         1 RES1   0.0000
    28 C13      1.8693  11.8399   8.1127   C.ar      1 RES1   0.0000
    29 H11      1.1211  12.0097   7.5479   H         1 RES1   0.0000
    30 C14      1.7187  11.8314   9.4844   C.ar      1 RES1   0.0000
    31 H12      0.8663  11.9843   9.8768   H         1 RES1   0.0000
    32 C15      2.8189  11.5979  10.2840   C.ar      1 RES1   0.0000
    33 C16      2.7726  11.5271  11.7565   C.ar      1 RES1   0.0000
    34 C17      1.6145  11.6106  12.5120   C.ar      1 RES1   0.0000
    35 H13      0.7736  11.7564  12.0939   H         1 RES1   0.0000
    36 C18      1.6978  11.4776  13.8782   C.ar      1 RES1   0.0000
    37 H14      0.9196  11.5455  14.4173   H         1 RES1   0.0000
    38 C19      2.9232  11.2483  14.4540   C.ar      1 RES1   0.0000
    39 H15      2.9973  11.1224  15.3929   H         1 RES1   0.0000
    40 C20      4.0419  11.2016  13.6600   C.ar      1 RES1   0.0000
    41 H16      4.8851  11.0615  14.0707   H         1 RES1   0.0000
    42 N5       6.9906  11.3460   9.7797   N.ar      1 RES1   0.0000
    43 N6       5.7264  13.2268  10.9771   N.ar      1 RES1   0.0000
    44 C21      7.6646  10.2959   9.2424   C.ar      1 RES1   0.0000
    45 H17      7.3612   9.4156   9.4349   H         1 RES1   0.0000
    46 C22      8.7672  10.4530   8.4318   C.ar      1 RES1   0.0000
    47 H18      9.2166   9.6930   8.0816   H         1 RES1   0.0000
    48 C23      9.2096  11.7125   8.1366   C.ar      1 RES1   0.0000
    49 H19      9.9578  11.8357   7.5644   H         1 RES1   0.0000
    50 C24      8.5610  12.8008   8.6757   C.ar      1 RES1   0.0000
    51 H20      8.8645  13.6825   8.4887   H         1 RES1   0.0000
    52 C25      7.4562  12.5956   9.4936   C.ar      1 RES1   0.0000
    53 C26      6.7103  13.6783  10.1372   C.ar      1 RES1   0.0000
    54 C27      6.9790  15.0185   9.9832   C.ar      1 RES1   0.0000
    55 H21      7.6762  15.3016   9.4037   H         1 RES1   0.0000
    56 C28      6.2401  15.9398  10.6672   C.ar      1 RES1   0.0000
    57 H22      6.4069  16.8682  10.5517   H         1 RES1   0.0000
    58 C29      5.2580  15.5124  11.5218   C.ar      1 RES1   0.0000
    59 H23      4.7438  16.1380  12.0187   H         1 RES1   0.0000
    60 C30      5.0287  14.1482  11.6501   C.ar      1 RES1   0.0000
    61 H24      4.3454  13.8566  12.2406   H         1 RES1   0.0000
    62 Cl1     22.2550   0.4080  13.9433   Cl        2 RES2  -1.0000
    63 Cl2     19.6452   2.8485  12.9076   Cl        2 RES2   0.0000
    64 Cl3     21.1559  -0.3228  10.4754   Cl        2 RES2   0.0000
    65 Cl4     25.0390   0.7549  11.4365   Cl        2 RES2   0.0000
    66 Cl5     23.6188   3.8462  13.9448   Cl        2 RES2   0.0000
    67 Cl6     19.6788   2.7982   9.2801   Cl        2 RES2   0.0000
    68 Cl7     23.4027   1.3237   8.2664   Cl        2 RES2   0.0000
    69 Cl8     25.2609   4.2831  10.8174   Cl        2 RES2   0.0000
    70 Cl9     21.4501   5.7579  11.7715   Cl        2 RES2   0.0000
    71 Cl10    22.5093   4.9481   8.2875   Cl        2 RES2  -1.0000
    72 B1      22.3384   1.5115  12.5487   B         2 RES2   0.0000
    73 B2      21.1965   2.6437  12.0169   B         2 RES2   0.0000
    74 B3      21.8358   1.2794  10.9515   B         2 RES2   0.0000
    75 B4      23.5475   1.7351  11.3952   B         2 RES2   0.0000
    76 B5      22.9198   3.0838  12.4717   B         2 RES2   0.0000
    77 B6      21.2150   2.8418  10.2033   B         2 RES2   0.0000
    78 B7      22.8711   2.1979   9.7540   B         2 RES2   0.0000
    79 B8      23.6471   3.4772  10.8323   B         2 RES2   0.0000
    80 B9      22.0002   4.1198  11.2742   B         2 RES2   0.0000
    81 B10     22.4704   3.8311   9.6898   B         2 RES2   0.0000
    82 N7       5.5058   9.5387  15.9229   N.ar      3 RES3   0.0000
    83 N8       5.6749   5.9964  15.3306   N.ar      3 RES3   0.0000
    84 C31      6.2100  10.5039  16.5134   C.ar      3 RES3   0.0000
    85 H25      5.9158  11.4012  16.4088   H         3 RES3   0.0000
    86 C32      7.3380  10.2775  17.2634   C.ar      3 RES3   0.0000
    87 H26      7.7943  10.9978  17.6833   H         3 RES3   0.0000
    88 C33      7.7943   8.9854  17.3954   C.ar      3 RES3   0.0000
    89 H27      8.5657   8.7985  17.9162   H         3 RES3   0.0000
    90 C34      7.1134   7.9621  16.7573   C.ar      3 RES3   0.0000
    91 H28      7.4261   7.0663  16.8104   H         3 RES3   0.0000
    92 C35      5.9575   8.2763  16.0347   C.ar      3 RES3   0.0000
    93 C36      5.1399   7.2290  15.3562   C.ar      3 RES3   0.0000
    94 C37      3.9308   7.5149  14.7969   C.ar      3 RES3   0.0000
    95 H29      3.5741   8.3938  14.8446   H         3 RES3   0.0000
    96 C38      3.2150   6.4860  14.1459   C.ar      3 RES3   0.0000
    97 H30      2.3719   6.6559  13.7388   H         3 RES3   0.0000
    98 C39      3.7686   5.2520  14.1184   C.ar      3 RES3   0.0000
    99 H31      3.3169   4.5358  13.6856   H         3 RES3   0.0000
   100 C40      4.9777   5.0368  14.7144   C.ar      3 RES3   0.0000
   101 H32      5.3414   4.1608  14.6906   H         3 RES3   0.0000
   102 N9      18.2316  12.6961   5.6004   N.ar      4 RES4   0.0000
   103 N10     15.7694  14.3718   7.6158   N.ar      4 RES4   0.0000
   104 C41     19.5612  12.6791   5.4189   C.ar      4 RES4   0.0000
   105 H33     19.9155  12.0989   4.7550   H         4 RES4   0.0000
   106 C42     20.4460  13.4490   6.1396   C.ar      4 RES4   0.0000
   107 H34     21.3771  13.4377   5.9488   H         4 RES4   0.0000
   108 C43     19.9364  14.2331   7.1390   C.ar      4 RES4   0.0000
   109 H35     20.5178  14.7680   7.6690   H         4 RES4   0.0000
   110 C44     18.5744  14.2416   7.3719   C.ar      4 RES4   0.0000
   111 H36     18.2084  14.7539   8.0852   H         4 RES4   0.0000
   112 C45     17.7521  13.4929   6.5503   C.ar      4 RES4   0.0000
   113 C46     16.2674  13.5184   6.6952   C.ar      4 RES4   0.0000
   114 C47     15.4729  12.7329   5.9140   C.ar      4 RES4   0.0000
   115 H37     15.8574  12.1640   5.2593   H         4 RES4   0.0000
   116 C48     14.0947  12.7725   6.0864   C.ar      4 RES4   0.0000
   117 H38     13.5272  12.2220   5.5601   H         4 RES4   0.0000
   118 C49     13.5619  13.6203   7.0290   C.ar      4 RES4   0.0000
   119 H39     12.6238  13.6740   7.1738   H         4 RES4   0.0000
   120 C50     14.4444  14.3859   7.7551   C.ar      4 RES4   0.0000
   121 H40     14.0785  14.9704   8.4098   H         4 RES4   0.0000
   122 N11     -0.9983   9.7326  11.1972   N.1       5 RES5   0.0000
   123 C51     -0.2085   8.9528  11.0285   C.1       5 RES5   0.0000
   124 C52      0.7574   8.0655  10.7772   C.3       5 RES5   0.0000
   125 H41      0.3868   7.3140  10.2693   H         5 RES5   0.0000
   126 H42      1.1280   7.7371  11.6226   H         5 RES5   0.0000
   127 H43      1.4685   8.4943  10.2546   H         5 RES5   0.0000
@<TRIPOS>BOND
     1     1     2    1
     2     2     4   ar
     3     3     1    1
     4     4     5    1
     5     6     4   ar
     6     7     6    1
     7     8     6   ar
     8     9     8    1
     9    10     8   ar
    10    11    10    1
    11    12     2   ar
    12    13     3   ar
    13    14    13   ar
    14    15    14    1
    15    16    14   ar
    16    17    16    1
    17    18    16   ar
    18    19    18    1
    19    20     3   ar
    20    21    20    1
    21    22     1    1
    22    23     1    1
    23    24    22   ar
    24    25    24    1
    25    26    24   ar
    26    27    26    1
    27    28    26   ar
    28    29    28    1
    29    30    28   ar
    30    31    30    1
    31    32    22   ar
    32    33    23   ar
    33    34    33   ar
    34    35    34    1
    35    36    34   ar
    36    37    36    1
    37    38    36   ar
    38    39    38    1
    39    40    23   ar
    40    41    40    1
    41    42     1    1
    42    43     1    1
    43    44    42   ar
    44    45    44    1
    45    46    44   ar
    46    47    46    1
    47    48    46   ar
    48    49    48    1
    49    50    48   ar
    50    51    50    1
    51    52    42   ar
    52    53    43   ar
    53    54    53   ar
    54    55    54    1
    55    56    54   ar
    56    57    56    1
    57    58    56   ar
    58    59    58    1
    59    60    43   ar
    60    61    60    1
    61    10    12   ar
    62    12    13    1
    63    18    20   ar
    64    30    32   ar
    65    32    33    1
    66    38    40   ar
    67    50    52   ar
    68    52    53    1
    69    58    60   ar
    70    62    72    1
    71    63    73    1
    72    64    74    1
    73    65    75    1
    74    66    76    1
    75    67    77    1
    76    68    78    1
    77    69    79    1
    78    70    80    1
    79    71    81    1
    80    72    73    1
    81    73    74    1
    82    74    72    1
    83    75    72    1
    84    76    72    1
    85    77    73    1
    86    78    74    1
    87    79    75    1
    88    80    73    1
    89    81    77    1
    90    73    76    1
    91    74    75    1
    92    74    77    1
    93    75    76    1
    94    75    78    1
    95    76    79    1
    96    76    80    1
    97    77    78    1
    98    77    80    1
    99    78    79    1
   100    78    81    1
   101    79    80    1
   102    79    81    1
   103    80    81    1
   104    82    84   ar
   105    83    93   ar
   106    84    85    1
   107    86    84   ar
   108    87    86    1
   109    88    86   ar
   110    89    88    1
   111    90    88   ar
   112    91    90    1
   113    92    82   ar
   114    93    92    1
   115    94    93   ar
   116    95    94    1
   117    96    94   ar
   118    97    96    1
   119    98    96   ar
   120    99    98    1
   121   100    83   ar
   122   101   100    1
   123    90    92   ar
   124    98   100   ar
   125   102   104   ar
   126   103   113   ar
   127   104   105    1
   128   106   104   ar
   129   107   106    1
   130   108   106   ar
   131   109   108    1
   132   110   108   ar
   133   111   110    1
   134   112   102   ar
   135   113   112    1
   136   114   113   ar
   137   115   114    1
   138   116   114   ar
   139   117   116    1
   140   118   116   ar
   141   119   118    1
   142   120   103   ar
   143   121   120    1
   144   110   112   ar
   145   118   120   ar
   146   122   123    3
   147   123   124    1
   148   124   125    1
   149   126   124    1
   150   127   124    1
@<TRIPOS>SUBSTRUCTURE
     1 RES1        1 GROUP             0 ****  ****    0  
     2 RES2       62 GROUP             0 ****  ****    0  
     3 RES3       82 GROUP             0 ****  ****    0  
     4 RES4      102 GROUP             0 ****  ****    0  
     5 RES5      122 GROUP             0 ****  ****    0  
@<TRIPOS>CRYSIN
   23.1630   14.1524   18.3380   90.0000   90.0000   90.0000    33     1
