@<TRIPOS>MOLECULE
QENCEV
    80    80     2     0     0
SMALL
USER_CHARGES
****
Generated from the CSD

@<TRIPOS>ATOM
     1 Fe1      9.9793   9.1752   3.4207   Fe        1 RES1   1.0000
     2 P1       7.8290   9.6951   3.6703   P.3       1 RES1   0.0000
     3 P2      12.1641   9.3676   3.7722   P.3       1 RES1   0.0000
     4 P3       9.9294   7.0540   2.5939   P.3       1 RES1   0.0000
     5 O1      10.1662  10.2825   0.7590   O.2       1 RES1   0.0000
     6 N1       9.8819   8.5615   5.4300   N.3       1 RES1   0.0000
     7 C1      10.0793   9.8437   1.8313   C.1       1 RES1   0.0000
     8 C2       7.4394   9.0116   5.3352   C.3       1 RES1   0.0000
     9 H1       6.7190   9.5431   5.7572   H         1 RES1   0.0000
    10 H2       7.1265   8.0756   5.2500   H         1 RES1   0.0000
    11 C3       8.6901   9.0630   6.1933   C.3       1 RES1   0.0000
    12 H3       8.8524   9.9950   6.4848   H         1 RES1   0.0000
    13 H4       8.5584   8.5081   7.0019   H         1 RES1   0.0000
    14 C4      11.1036   8.8671   6.2398   C.3       1 RES1   0.0000
    15 H5      11.1087   8.3053   7.0541   H         1 RES1   0.0000
    16 H6      11.0843   9.8160   6.5215   H         1 RES1   0.0000
    17 C5      12.3682   8.6022   5.4311   C.3       1 RES1   0.0000
    18 H7      12.5140   7.6267   5.3390   H         1 RES1   0.0000
    19 H8      13.1529   8.9928   5.8914   H         1 RES1   0.0000
    20 C6       6.4672   8.9619   2.6436   C.3       1 RES1   0.0000
    21 H9       6.4637   7.9846   2.8581   H         1 RES1   0.0000
    22 C7       6.7062   9.0533   1.1328   C.3       1 RES1   0.0000
    23 H10      6.5338   9.9696   0.8293   H         1 RES1   0.0000
    24 H11      6.1032   8.4365   0.6683   H         1 RES1   0.0000
    25 H12      7.6354   8.8138   0.9339   H         1 RES1   0.0000
    26 C8       5.0569   9.4655   2.9909   C.3       1 RES1   0.0000
    27 H13      4.9247   9.4223   3.9615   H         1 RES1   0.0000
    28 H14      4.3899   8.9033   2.5445   H         1 RES1   0.0000
    29 H15      4.9579  10.3931   2.6886   H         1 RES1   0.0000
    30 C9       7.4001  11.5003   3.7527   C.3       1 RES1   0.0000
    31 H16      6.4076  11.5594   3.8556   H         1 RES1   0.0000
    32 C10      7.7590  12.2315   2.4593   C.3       1 RES1   0.0000
    33 H17      8.7300  12.2007   2.3255   H         1 RES1   0.0000
    34 H18      7.4672  13.1655   2.5204   H         1 RES1   0.0000
    35 H19      7.3104  11.7980   1.7038   H         1 RES1   0.0000
    36 C11      8.0154  12.2124   4.9505   C.3       1 RES1   0.0000
    37 H20      7.6817  11.8069   5.7784   H         1 RES1   0.0000
    38 H21      7.7683  13.1611   4.9279   H         1 RES1   0.0000
    39 H22      8.9908  12.1276   4.9152   H         1 RES1   0.0000
    40 C12     13.4452   8.4974   2.7390   C.3       1 RES1   0.0000
    41 H23     13.1040   7.5700   2.5869   H         1 RES1   0.0000
    42 C13     14.8153   8.3493   3.4204   C.3       1 RES1   0.0000
    43 H24     15.2100   9.2359   3.5574   H         1 RES1   0.0000
    44 H25     15.4061   7.8131   2.8525   H         1 RES1   0.0000
    45 H26     14.7031   7.9041   4.2879   H         1 RES1   0.0000
    46 C14     13.6085   9.1292   1.3557   C.3       1 RES1   0.0000
    47 H27     12.7247   9.2776   0.9579   H         1 RES1   0.0000
    48 H28     14.1289   8.5290   0.7813   H         1 RES1   0.0000
    49 H29     14.0765   9.9860   1.4411   H         1 RES1   0.0000
    50 C15     12.8520  11.0948   3.8879   C.3       1 RES1   0.0000
    51 H30     13.8428  11.0314   3.7651   H         1 RES1   0.0000
    52 C16     12.6008  11.7601   5.2394   C.3       1 RES1   0.0000
    53 H31     11.6353  11.8040   5.4082   H         1 RES1   0.0000
    54 H32     12.9714  12.6674   5.2316   H         1 RES1   0.0000
    55 H33     13.0316  11.2372   5.9465   H         1 RES1   0.0000
    56 C17     12.3072  11.9875   2.7649   C.3       1 RES1   0.0000
    57 H34     12.4828  11.5653   1.8974   H         1 RES1   0.0000
    58 H35     12.7498  12.8613   2.7988   H         1 RES1   0.0000
    59 H36     11.3410  12.1052   2.8807   H         1 RES1   0.0000
    60 C18     10.5167   6.8900   0.8672   C.3       1 RES1   0.0000
    61 H37      9.9336   7.4075   0.2727   H         1 RES1   0.0000
    62 H38     10.4977   5.9460   0.6033   H         1 RES1   0.0000
    63 H39     11.4341   7.2285   0.8011   H         1 RES1   0.0000
    64 C19     10.9344   5.7894   3.4489   C.3       1 RES1   0.0000
    65 H40     11.8702   6.0802   3.4783   H         1 RES1   0.0000
    66 H41     10.8719   4.9393   2.9641   H         1 RES1   0.0000
    67 H42     10.6002   5.6701   4.3627   H         1 RES1   0.0000
    68 C20      8.3743   6.0963   2.4936   C.3       1 RES1   0.0000
    69 H43      7.9699   6.0355   3.3837   H         1 RES1   0.0000
    70 H44      8.5663   5.1943   2.1602   H         1 RES1   0.0000
    71 H45      7.7531   6.5455   1.8833   H         1 RES1   0.0000
    72 H46      9.8101   7.6953   5.4393   H         1 RES1   0.0000
    73 H47     10.0742  10.5438   3.9982   H         1 RES1   0.0000
    74 P4       9.3659   5.0215   7.2187   P.3       2 RES2  -1.0000
    75 F1       8.9469   6.2574   8.1358   F         2 RES2   0.0000
    76 F2       8.6571   5.7373   5.9537   F         2 RES2   0.0000
    77 F3       7.9924   4.2812   7.5722   F         2 RES2   0.0000
    78 F4      10.0822   4.3246   8.4660   F         2 RES2   0.0000
    79 F5      10.7409   5.7867   6.8483   F         2 RES2   0.0000
    80 F6       9.7979   3.8077   6.2852   F         2 RES2   0.0000
@<TRIPOS>BOND
     1     1     2    1
     2     2     8    1
     3     3     1    1
     4     4     1    1
     5     5     7    3
     6     6     1    1
     7     7     1    1
     8     8     9    1
     9    10     8    1
    10    11     6    1
    11    12    11    1
    12    13    11    1
    13    14     6    1
    14    15    14    1
    15    16    14    1
    16    17     3    1
    17    18    17    1
    18    19    17    1
    19    20     2    1
    20    21    20    1
    21    22    20    1
    22    23    22    1
    23    24    22    1
    24    25    22    1
    25    26    20    1
    26    27    26    1
    27    28    26    1
    28    29    26    1
    29    30     2    1
    30    31    30    1
    31    32    30    1
    32    33    32    1
    33    34    32    1
    34    35    32    1
    35    36    30    1
    36    37    36    1
    37    38    36    1
    38    39    36    1
    39    40     3    1
    40    41    40    1
    41    42    40    1
    42    43    42    1
    43    44    42    1
    44    45    42    1
    45    46    40    1
    46    47    46    1
    47    48    46    1
    48    49    46    1
    49    50     3    1
    50    51    50    1
    51    52    50    1
    52    53    52    1
    53    54    52    1
    54    55    52    1
    55    56    50    1
    56    57    56    1
    57    58    56    1
    58    59    56    1
    59    60     4    1
    60    61    60    1
    61    62    60    1
    62    63    60    1
    63    64     4    1
    64    65    64    1
    65    66    64    1
    66    67    64    1
    67    68     4    1
    68    69    68    1
    69    70    68    1
    70    71    68    1
    71    72     6    1
    72    73     1    1
    73     8    11    1
    74    14    17    1
    75    74    75    1
    76    76    74    1
    77    77    74    1
    78    78    74    1
    79    79    74    1
    80    80    74    1
@<TRIPOS>SUBSTRUCTURE
     1 RES1        1 GROUP             0 ****  ****    0  
     2 RES2       74 GROUP             0 ****  ****    0  
@<TRIPOS>CRYSIN
   13.6020   14.9134   14.1726   90.0000   94.5430   90.0000    14     1
