@<TRIPOS>MOLECULE
QENWUC
    98    98     2     0     0
SMALL
USER_CHARGES
****
Generated from the CSD

@<TRIPOS>ATOM
     1 Fe1      0.0000   0.0000   0.0000   Fe        1 RES1   2.0000
     2 P1       1.7830   0.9955   1.0653   P.3       1 RES1   0.0000
     3 P2      -0.7100   2.1560  -0.3110   P.3       1 RES1   0.0000
     4 N1       0.9813   0.0426  -1.6331   N.1       1 RES1   0.0000
     5 C1       1.5565   0.0816  -2.6211   C.1       1 RES1   0.0000
     6 C2       2.2807   0.1573  -3.8878   C.3       1 RES1   0.0000
     7 H1       2.0369   0.9842  -4.3555   H         1 RES1   0.0000
     8 H2       2.0456  -0.6139  -4.4448   H         1 RES1   0.0000
     9 H3       3.2454   0.1526  -3.7140   H         1 RES1   0.0000
    10 C3       1.7250   2.8023   0.6642   C.3       1 RES1   0.0000
    11 H4       2.2813   3.3109   1.3057   H         1 RES1   0.0000
    12 H5       2.0785   2.9584  -0.2485   H         1 RES1   0.0000
    13 C4       0.2898   3.2565   0.7470   C.3       1 RES1   0.0000
    14 H6       0.2098   4.1934   0.4368   H         1 RES1   0.0000
    15 H7      -0.0283   3.2104   1.6841   H         1 RES1   0.0000
    16 C5       1.8105   1.0859   2.9037   C.3       1 RES1   0.0000
    17 H8       2.5164   1.7259   3.1716   H         1 RES1   0.0000
    18 H9       0.9451   1.4585   3.2073   H         1 RES1   0.0000
    19 C6       2.0434  -0.1881   3.6214   C.2       1 RES1   0.0000
    20 H10      2.7444  -0.7464   3.3064   H         1 RES1   0.0000
    21 C7       1.3517  -0.6116   4.6705   C.2       1 RES1   0.0000
    22 H11      0.6432  -0.0828   5.0181   H         1 RES1   0.0000
    23 H12      1.5658  -1.4443   5.0765   H         1 RES1   0.0000
    24 C8       3.5269   0.5926   0.6463   C.3       1 RES1   0.0000
    25 H13      3.7741  -0.2614   1.0799   H         1 RES1   0.0000
    26 H14      3.6030   0.4684  -0.3329   H         1 RES1   0.0000
    27 C9       4.4915   1.6655   1.0832   C.2       1 RES1   0.0000
    28 H15      4.6248   2.3966   0.4921   H         1 RES1   0.0000
    29 C10      5.1507   1.6750   2.1907   C.2       1 RES1   0.0000
    30 H16      5.0473   0.9629   2.8111   H         1 RES1   0.0000
    31 H17      5.7402   2.3942   2.3856   H         1 RES1   0.0000
    32 C11     -0.3829   2.8614  -1.9829   C.3       1 RES1   0.0000
    33 H18      0.5742   2.7207  -2.1940   H         1 RES1   0.0000
    34 H19     -0.9094   2.3445  -2.6422   H         1 RES1   0.0000
    35 C12     -0.6877   4.2833  -2.1680   C.2       1 RES1   0.0000
    36 H20     -1.6008   4.5459  -2.1777   H         1 RES1   0.0000
    37 C13      0.2216   5.2142  -2.3223   C.2       1 RES1   0.0000
    38 H21      1.1431   4.9836  -2.3158   H         1 RES1   0.0000
    39 H22     -0.0414   6.1191  -2.4376   H         1 RES1   0.0000
    40 C14     -2.4580   2.6071   0.0926   C.3       1 RES1   0.0000
    41 H23     -2.9891   2.5669  -0.7405   H         1 RES1   0.0000
    42 H24     -2.8215   1.9198   0.7080   H         1 RES1   0.0000
    43 C15     -2.6686   3.9603   0.7227   C.2       1 RES1   0.0000
    44 H25     -2.1943   4.1532   1.5233   H         1 RES1   0.0000
    45 C16     -3.4502   4.8806   0.2468   C.2       1 RES1   0.0000
    46 H26     -3.9402   4.7210  -0.5505   H         1 RES1   0.0000
    47 H27     -3.5345   5.7122   0.6983   H         1 RES1   0.0000
    48 P1B     -1.7830  -0.9955  -1.0653   P.3       1 RES1   0.0000
    49 P2B      0.7100  -2.1560   0.3110   P.3       1 RES1   0.0000
    50 N1B     -0.9813  -0.0426   1.6331   N.1       1 RES1   0.0000
    51 C1B     -1.5565  -0.0816   2.6211   C.1       1 RES1   0.0000
    52 C2B     -2.2807  -0.1573   3.8878   C.3       1 RES1   0.0000
    53 H1B     -2.0369  -0.9842   4.3555   H         1 RES1   0.0000
    54 H2B     -2.0456   0.6139   4.4448   H         1 RES1   0.0000
    55 H3B     -3.2454  -0.1526   3.7140   H         1 RES1   0.0000
    56 C3B     -1.7250  -2.8023  -0.6642   C.3       1 RES1   0.0000
    57 H4B     -2.2813  -3.3109  -1.3057   H         1 RES1   0.0000
    58 H5B     -2.0785  -2.9584   0.2485   H         1 RES1   0.0000
    59 C4B     -0.2898  -3.2565  -0.7470   C.3       1 RES1   0.0000
    60 H6B     -0.2098  -4.1934  -0.4368   H         1 RES1   0.0000
    61 H7B      0.0283  -3.2104  -1.6841   H         1 RES1   0.0000
    62 C5B     -1.8105  -1.0859  -2.9037   C.3       1 RES1   0.0000
    63 H8B     -2.5164  -1.7259  -3.1716   H         1 RES1   0.0000
    64 H9B     -0.9451  -1.4585  -3.2073   H         1 RES1   0.0000
    65 C6B     -2.0434   0.1881  -3.6214   C.2       1 RES1   0.0000
    66 H10B    -2.7444   0.7464  -3.3064   H         1 RES1   0.0000
    67 C7B     -1.3517   0.6116  -4.6705   C.2       1 RES1   0.0000
    68 H11B    -0.6432   0.0828  -5.0181   H         1 RES1   0.0000
    69 H12B    -1.5658   1.4443  -5.0765   H         1 RES1   0.0000
    70 C8B     -3.5269  -0.5926  -0.6463   C.3       1 RES1   0.0000
    71 H13B    -3.7741   0.2614  -1.0799   H         1 RES1   0.0000
    72 H14B    -3.6030  -0.4684   0.3329   H         1 RES1   0.0000
    73 C9B     -4.4915  -1.6655  -1.0832   C.2       1 RES1   0.0000
    74 H15B    -4.6248  -2.3966  -0.4921   H         1 RES1   0.0000
    75 C10B    -5.1507  -1.6750  -2.1907   C.2       1 RES1   0.0000
    76 H16B    -5.0473  -0.9629  -2.8111   H         1 RES1   0.0000
    77 H17B    -5.7402  -2.3942  -2.3856   H         1 RES1   0.0000
    78 C11B     0.3829  -2.8614   1.9829   C.3       1 RES1   0.0000
    79 H18B    -0.5742  -2.7207   2.1940   H         1 RES1   0.0000
    80 H19B     0.9094  -2.3445   2.6422   H         1 RES1   0.0000
    81 C12B     0.6877  -4.2833   2.1680   C.2       1 RES1   0.0000
    82 H20B     1.6008  -4.5459   2.1777   H         1 RES1   0.0000
    83 C13B    -0.2216  -5.2142   2.3223   C.2       1 RES1   0.0000
    84 H21B    -1.1431  -4.9836   2.3158   H         1 RES1   0.0000
    85 H22B     0.0414  -6.1191   2.4376   H         1 RES1   0.0000
    86 C14B     2.4580  -2.6071  -0.0926   C.3       1 RES1   0.0000
    87 H23B     2.9891  -2.5669   0.7405   H         1 RES1   0.0000
    88 H24B     2.8215  -1.9198  -0.7080   H         1 RES1   0.0000
    89 C15B     2.6686  -3.9603  -0.7227   C.2       1 RES1   0.0000
    90 H25B     2.1943  -4.1532  -1.5233   H         1 RES1   0.0000
    91 C16B     3.4502  -4.8806  -0.2468   C.2       1 RES1   0.0000
    92 H26B     3.9402  -4.7210   0.5505   H         1 RES1   0.0000
    93 H27B     3.5345  -5.7122  -0.6983   H         1 RES1   0.0000
    94 B1       4.5479   2.8177  -2.8793   B         2 RES2  -1.0000
    95 F1       4.9251   3.9485  -2.3515   F         2 RES2   0.0000
    96 F2       5.2059   1.8134  -2.5545   F         2 RES2   0.0000
    97 F3       3.3768   2.6509  -2.2930   F         2 RES2   0.0000
    98 F4       4.3230   2.9076  -4.2187   F         2 RES2   0.0000
@<TRIPOS>BOND
     1     1     2    1
     2     2    10    1
     3     3     1    1
     4     4     1    1
     5     5     4    3
     6     6     5    1
     7     7     6    1
     8     8     6    1
     9     9     6    1
    10    10    11    1
    11    12    10    1
    12    13     3    1
    13    14    13    1
    14    15    13    1
    15    16     2    1
    16    17    16    1
    17    18    16    1
    18    19    16    1
    19    20    19    1
    20    21    19    2
    21    22    21    1
    22    23    21    1
    23    24     2    1
    24    25    24    1
    25    26    24    1
    26    27    24    1
    27    28    27    1
    28    29    27    2
    29    30    29    1
    30    31    29    1
    31    32     3    1
    32    33    32    1
    33    34    32    1
    34    35    32    1
    35    36    35    1
    36    37    35    2
    37    38    37    1
    38    39    37    1
    39    40     3    1
    40    41    40    1
    41    42    40    1
    42    43    40    1
    43    44    43    1
    44    45    43    2
    45    46    45    1
    46    47    45    1
    47    48     1    1
    48    49     1    1
    49    50     1    1
    50    51    50    3
    51    52    51    1
    52    53    52    1
    53    54    52    1
    54    55    52    1
    55    56    48    1
    56    57    56    1
    57    58    56    1
    58    59    49    1
    59    60    59    1
    60    61    59    1
    61    62    48    1
    62    63    62    1
    63    64    62    1
    64    65    62    1
    65    66    65    1
    66    67    65    2
    67    68    67    1
    68    69    67    1
    69    70    48    1
    70    71    70    1
    71    72    70    1
    72    73    70    1
    73    74    73    1
    74    75    73    2
    75    76    75    1
    76    77    75    1
    77    78    49    1
    78    79    78    1
    79    80    78    1
    80    81    78    1
    81    82    81    1
    82    83    81    2
    83    84    83    1
    84    85    83    1
    85    86    49    1
    86    87    86    1
    87    88    86    1
    88    89    86    1
    89    90    89    1
    90    91    89    2
    91    92    91    1
    92    93    91    1
    93    10    13    1
    94    56    59    1
    95    94    95    1
    96    96    94    1
    97    97    94    1
    98    98    94    1
@<TRIPOS>SUBSTRUCTURE
     1 RES1        1 GROUP             0 ****  ****    0  
     2 RES2       94 GROUP             0 ****  ****    0  
@<TRIPOS>CRYSIN
   10.3691   11.8290   16.2524   90.0000   92.2681   90.0000   231     1
