@<TRIPOS>MOLECULE
QENWEM
    91    95     4     0     0
SMALL
USER_CHARGES
****
Generated from the CSD

@<TRIPOS>ATOM
     1 Fe1      4.5836   3.8841   8.9326   Fe        1 RES1   2.0000
     2 N1       3.7126   3.2783  10.8582   N.ar      1 RES1   0.0000
     3 N2       3.0189   2.1052  10.8176   N.ar      1 RES1   0.0000
     4 N3       2.5652   3.5168   8.1488   N.ar      1 RES1   0.0000
     5 N4       1.8956   2.4901   8.7525   N.ar      1 RES1   0.0000
     6 N5       4.8420   1.7278   8.5538   N.ar      1 RES1   0.0000
     7 N6       3.7319   0.9684   8.8420   N.ar      1 RES1   0.0000
     8 N7       5.6618   4.3218   7.1477   N.1       1 RES1   0.0000
     9 N8       4.1482   5.9934   9.0235   N.1       1 RES1   0.0000
    10 N9       6.4285   4.2073  10.0197   N.1       1 RES1   0.0000
    11 C1       3.9846   3.4657  12.1593   C.ar      1 RES1   0.0000
    12 C2       3.4889   2.4001  12.9261   C.ar      1 RES1   0.0000
    13 H1       3.5714   2.2831  13.8652   H         1 RES1   0.0000
    14 C3       2.8647   1.5668  12.0486   C.ar      1 RES1   0.0000
    15 H2       2.4088   0.7605  12.2608   H         1 RES1   0.0000
    16 C4       4.6628   4.6847  12.6623   C.ar      1 RES1   0.0000
    17 C5       4.2169   5.9492  12.2703   C.ar      1 RES1   0.0000
    18 H3       3.5072   6.0281  11.6442   H         1 RES1   0.0000
    19 C6       4.8041   7.0875  12.7904   C.ar      1 RES1   0.0000
    20 H4       4.4932   7.9466  12.5295   H         1 RES1   0.0000
    21 C7       5.8511   6.9742  13.6954   C.ar      1 RES1   0.0000
    22 H5       6.2591   7.7544  14.0507   H         1 RES1   0.0000
    23 C8       6.2998   5.7259  14.0784   C.ar      1 RES1   0.0000
    24 H6       7.0213   5.6519  14.6905   H         1 RES1   0.0000
    25 C9       5.7044   4.5827  13.5770   C.ar      1 RES1   0.0000
    26 H7       6.0082   3.7269  13.8574   H         1 RES1   0.0000
    27 C10      0.5621   2.5722   8.5588   C.ar      1 RES1   0.0000
    28 H8      -0.0955   1.9694   8.8878   H         1 RES1   0.0000
    29 C11      0.3367   3.6826   7.8011   C.ar      1 RES1   0.0000
    30 H9      -0.5029   4.0143   7.5057   H         1 RES1   0.0000
    31 C12      1.6040   4.2377   7.5482   C.ar      1 RES1   0.0000
    32 C13      1.9135   5.3990   6.6890   C.ar      1 RES1   0.0000
    33 C14      1.1731   6.5521   6.7982   C.ar      1 RES1   0.0000
    34 H10      0.4624   6.6145   7.4265   H         1 RES1   0.0000
    35 C15      1.4866   7.6443   5.9593   C.ar      1 RES1   0.0000
    36 H11      0.9965   8.4557   6.0270   H         1 RES1   0.0000
    37 C16      2.5158   7.5211   5.0373   C.ar      1 RES1   0.0000
    38 H12      2.7300   8.2619   4.4825   H         1 RES1   0.0000
    39 C17      3.2187   6.3779   4.9117   C.ar      1 RES1   0.0000
    40 H13      3.9105   6.3090   4.2622   H         1 RES1   0.0000
    41 C18      2.9220   5.3070   5.7334   C.ar      1 RES1   0.0000
    42 H14      3.4130   4.4989   5.6462   H         1 RES1   0.0000
    43 C19      2.6013   1.5256   9.5564   C.3       1 RES1   0.0000
    44 H15      1.9703   0.7769   9.7595   H         1 RES1   0.0000
    45 C20      3.7837  -0.2438   8.2534   C.ar      1 RES1   0.0000
    46 H16      3.1227  -0.9247   8.3002   H         1 RES1   0.0000
    47 C21      4.9701  -0.3047   7.5747   C.ar      1 RES1   0.0000
    48 H17      5.3019  -1.0364   7.0689   H         1 RES1   0.0000
    49 C22      5.5975   0.9305   7.7783   C.ar      1 RES1   0.0000
    50 C23      6.9069   1.3313   7.2239   C.ar      1 RES1   0.0000
    51 C24      7.1896   1.0463   5.8882   C.ar      1 RES1   0.0000
    52 H18      6.5271   0.6422   5.3389   H         1 RES1   0.0000
    53 C25      8.4386   1.3485   5.3570   C.ar      1 RES1   0.0000
    54 H19      8.6292   1.1498   4.4478   H         1 RES1   0.0000
    55 C26      9.4004   1.9398   6.1499   C.ar      1 RES1   0.0000
    56 H20     10.2537   2.1484   5.7854   H         1 RES1   0.0000
    57 C27      9.1256   2.2289   7.4732   C.ar      1 RES1   0.0000
    58 H21      9.7897   2.6379   8.0160   H         1 RES1   0.0000
    59 C28      7.8838   1.9247   8.0110   C.ar      1 RES1   0.0000
    60 H22      7.7005   2.1238   8.9226   H         1 RES1   0.0000
    61 C29      6.3929   4.6369   6.3419   C.1       1 RES1   0.0000
    62 C30      7.3357   5.0327   5.3083   C.3       1 RES1   0.0000
    63 H23      8.0275   5.6060   5.7003   H         1 RES1   0.0000
    64 H24      6.8617   5.5255   4.6063   H         1 RES1   0.0000
    65 H25      7.7523   4.2344   4.9233   H         1 RES1   0.0000
    66 C31      3.9603   7.1056   8.8882   C.1       1 RES1   0.0000
    67 C32      3.7191   8.5313   8.7254   C.3       1 RES1   0.0000
    68 H26      4.1357   9.0191   9.4657   H         1 RES1   0.0000
    69 H27      2.7537   8.7005   8.7254   H         1 RES1   0.0000
    70 H28      4.1035   8.8319   7.8768   H         1 RES1   0.0000
    71 C33      7.4467   4.3289  10.4943   C.1       1 RES1   0.0000
    72 C34      8.7669   4.4726  11.0972   C.3       1 RES1   0.0000
    73 H29      9.3201   5.0557  10.5347   H         1 RES1   0.0000
    74 H30      9.1900   3.5922  11.1706   H         1 RES1   0.0000
    75 H31      8.6772   4.8685  11.9883   H         1 RES1   0.0000
    76 B1       0.1383  -1.1087   7.7609   B         2 RES2  -1.0000
    77 F1      -0.2183  -2.1550   7.0341   F         2 RES2   0.0000
    78 F2       0.9649  -1.5394   8.7911   F         2 RES2   0.0000
    79 F3      -0.9975  -0.4979   8.3168   F         2 RES2   0.0000
    80 F4       0.8459  -0.1411   7.0706   F         2 RES2   0.0000
    81 B2       9.7256   6.6966   7.7647   B         3 RES3  -1.0000
    82 F5      10.4824   6.3467   8.8280   F         3 RES3   0.0000
    83 F6       8.4094   6.3369   7.9503   F         3 RES3   0.0000
    84 F7      10.2166   6.1069   6.6343   F         3 RES3   0.0000
    85 F8       9.7238   8.0484   7.6951   F         3 RES3   0.0000
    86 N10      5.2607   2.8186   3.5972   N.1       4 RES4   0.0000
    87 C35      6.0045   2.8449   2.7293   C.1       4 RES4   0.0000
    88 C36      6.9423   2.8728   1.6140   C.3       4 RES4   0.0000
    89 H32      6.4462   2.9483   0.7732   H         4 RES4   0.0000
    90 H33      7.4691   2.0466   1.6102   H         4 RES4   0.0000
    91 H34      7.5412   3.6431   1.7107   H         4 RES4   0.0000
@<TRIPOS>BOND
     1     1     2    1
     2     2     3   ar
     3     3    14   ar
     4     4     1    1
     5     5     4   ar
     6     6     1    1
     7     7     6   ar
     8     8     1    1
     9     9     1    1
    10    10     1    1
    11    11     2   ar
    12    12    11   ar
    13    13    12    1
    14    14    12   ar
    15    15    14    1
    16    16    11    1
    17    17    16   ar
    18    18    17    1
    19    19    17   ar
    20    20    19    1
    21    21    19   ar
    22    22    21    1
    23    23    21   ar
    24    24    23    1
    25    25    16   ar
    26    26    25    1
    27    27     5   ar
    28    28    27    1
    29    29    27   ar
    30    30    29    1
    31    31     4   ar
    32    32    31    1
    33    33    32   ar
    34    34    33    1
    35    35    33   ar
    36    36    35    1
    37    37    35   ar
    38    38    37    1
    39    39    37   ar
    40    40    39    1
    41    41    32   ar
    42    42    41    1
    43    43     3    1
    44    44    43    1
    45    45     7   ar
    46    46    45    1
    47    47    45   ar
    48    48    47    1
    49    49     6   ar
    50    50    49    1
    51    51    50   ar
    52    52    51    1
    53    53    51   ar
    54    54    53    1
    55    55    53   ar
    56    56    55    1
    57    57    55   ar
    58    58    57    1
    59    59    50   ar
    60    60    59    1
    61    61     8    3
    62    62    61    1
    63    63    62    1
    64    64    62    1
    65    65    62    1
    66    66     9    3
    67    67    66    1
    68    68    67    1
    69    69    67    1
    70    70    67    1
    71    71    10    3
    72    72    71    1
    73    73    72    1
    74    74    72    1
    75    75    72    1
    76     5    43    1
    77     7    43    1
    78    23    25   ar
    79    29    31   ar
    80    39    41   ar
    81    47    49   ar
    82    57    59   ar
    83    76    77    1
    84    78    76    1
    85    79    76    1
    86    80    76    1
    87    81    82    1
    88    83    81    1
    89    84    81    1
    90    85    81    1
    91    86    87    3
    92    87    88    1
    93    88    89    1
    94    90    88    1
    95    91    88    1
@<TRIPOS>SUBSTRUCTURE
     1 RES1        1 GROUP             0 ****  ****    0  
     2 RES2       76 GROUP             0 ****  ****    0  
     3 RES3       81 GROUP             0 ****  ****    0  
     4 RES4       86 GROUP             0 ****  ****    0  
@<TRIPOS>CRYSIN
   12.3614   16.4253   19.3493   90.0000   92.5822   90.0000   231     1
