@<TRIPOS>MOLECULE
QENYAK
    80    80     3     0     0
SMALL
USER_CHARGES
****
Generated from the CSD

@<TRIPOS>ATOM
     1 Fe1      3.2166   4.1856   5.3053   Fe        1 RES1   0.0000
     2 Cl1      2.2484   6.0944   6.2988   Cl        1 RES1   0.0000
     3 Cl2      3.8320   5.2004   3.3626   Cl        1 RES1   0.0000
     4 O1       4.9133   4.4125   6.3641   O.co2     1 RES1   0.0000
     5 O2       5.9268   4.2077   8.3086   O.co2     1 RES1   0.0000
     6 O3       3.8917   2.4049   4.6509   O.co2     1 RES1  -1.0000
     7 O4       4.0459   0.2467   5.0520   O.co2     1 RES1   0.0000
     8 O5       1.3712   3.4404   4.9945   O.co2     1 RES1  -1.0000
     9 O6      -0.4724   2.5905   5.8884   O.co2     1 RES1   0.0000
    10 N1       2.8430   2.9809   7.1181   N.3       1 RES1   0.0000
    11 C1       4.9459   4.0968   7.6042   C.2       1 RES1   0.0000
    12 C2       3.6260   3.6147   8.1909   C.3       1 RES1   0.0000
    13 H1       3.7939   2.9696   8.9084   H         1 RES1   0.0000
    14 H2       3.1286   4.3718   8.5647   H         1 RES1   0.0000
    15 C3       3.7886   1.3841   5.3800   C.2       1 RES1   0.0000
    16 C4       3.3486   1.6206   6.8227   C.3       1 RES1   0.0000
    17 H3       2.6456   0.9744   7.0410   H         1 RES1   0.0000
    18 H4       4.1098   1.4373   7.4121   H         1 RES1   0.0000
    19 C5       0.6843   2.9945   5.9629   C.2       1 RES1   0.0000
    20 C6       1.3845   3.0047   7.3089   C.3       1 RES1   0.0000
    21 H5       1.1309   3.8093   7.8067   H         1 RES1   0.0000
    22 H6       1.1079   2.2215   7.8303   H         1 RES1   0.0000
    23 N2       0.3484  10.1650   4.0327   N.4       2 RES2   1.0000
    24 C7       1.0202   8.8975   3.5231   C.3       2 RES2   0.0000
    25 H7       0.8096   8.1664   4.1412   H         2 RES2   0.0000
    26 H8       0.6305   8.6689   2.6541   H         2 RES2   0.0000
    27 C8       2.5086   8.9711   3.3702   C.3       2 RES2   0.0000
    28 H9       2.8418   8.1223   3.0409   H         2 RES2   0.0000
    29 H10      2.9120   9.1657   4.2301   H         2 RES2   0.0000
    30 H11      2.7336   9.6739   2.7403   H         2 RES2   0.0000
    31 C9       0.7012  11.3601   3.1755   C.3       2 RES2   0.0000
    32 H12      1.6745  11.4823   3.1925   H         2 RES2   0.0000
    33 H13      0.2963  12.1602   3.5715   H         2 RES2   0.0000
    34 C10      0.2526  11.2526   1.7315   C.3       2 RES2   0.0000
    35 H14      0.5131  12.0538   1.2506   H         2 RES2   0.0000
    36 H15     -0.7129  11.1553   1.6988   H         2 RES2   0.0000
    37 H16      0.6691  10.4785   1.3199   H         2 RES2   0.0000
    38 C11     -1.1357   9.8991   4.0210   C.3       2 RES2   0.0000
    39 H17     -1.3934   9.6252   3.1154   H         2 RES2   0.0000
    40 H18     -1.3206   9.1453   4.6195   H         2 RES2   0.0000
    41 C12     -1.9988  11.0511   4.4300   C.3       2 RES2   0.0000
    42 H19     -2.9312  10.7852   4.3934   H         2 RES2   0.0000
    43 H20     -1.8523  11.7958   3.8263   H         2 RES2   0.0000
    44 H21     -1.7748  11.3182   5.3343   H         2 RES2   0.0000
    45 C13      0.8253  10.5000   5.4402   C.3       2 RES2   0.0000
    46 H22      1.7889  10.6777   5.4062   H         2 RES2   0.0000
    47 H23      0.3842  11.3262   5.7263   H         2 RES2   0.0000
    48 C14      0.5752   9.4430   6.4791   C.3       2 RES2   0.0000
    49 H24      0.9132   9.7452   7.3363   H         2 RES2   0.0000
    50 H25      1.0291   8.6236   6.2242   H         2 RES2   0.0000
    51 H26     -0.3785   9.2755   6.5483   H         2 RES2   0.0000
    52 N3       8.1456   8.6191   0.9461   N.4       3 RES3   1.0000
    53 C15      8.6729   7.4025   1.5498   C.3       3 RES3   0.0000
    54 H27      8.0816   6.6669   1.2859   H         3 RES3   0.0000
    55 H28      8.5892   7.4998   2.5208   H         3 RES3   0.0000
    56 C16     10.0672   6.9702   1.2702   C.3       3 RES3   0.0000
    57 H29     10.2582   6.1576   1.7642   H         3 RES3   0.0000
    58 H30     10.6823   7.6673   1.5446   H         3 RES3   0.0000
    59 H31     10.1700   6.8027   0.3202   H         3 RES3   0.0000
    60 C17      6.7970   8.9111   1.4976   C.3       3 RES3   0.0000
    61 H32      6.4853   9.7542   1.1068   H         3 RES3   0.0000
    62 H33      6.8865   9.0525   2.4633   H         3 RES3   0.0000
    63 C18      5.7242   7.8620   1.2715   C.3       3 RES3   0.0000
    64 H34      4.8942   8.1551   1.6766   H         3 RES3   0.0000
    65 H35      6.0012   7.0234   1.6727   H         3 RES3   0.0000
    66 H36      5.5918   7.7352   0.3189   H         3 RES3   0.0000
    67 C19      8.0586   8.3452  -0.5541   C.3       3 RES3   0.0000
    68 H37      8.9678   8.2173  -0.8925   H         3 RES3   0.0000
    69 H38      7.5776   7.5010  -0.6808   H         3 RES3   0.0000
    70 C20      7.4078   9.3649  -1.3760   C.3       3 RES3   0.0000
    71 H39      7.4226   9.0888  -2.3065   H         3 RES3   0.0000
    72 H40      7.8801  10.2069  -1.2820   H         3 RES3   0.0000
    73 H41      6.4886   9.4758  -1.0872   H         3 RES3   0.0000
    74 C21      9.0381   9.8176   1.2205   C.3       3 RES3   0.0000
    75 H42      9.8564   9.7169   0.6913   H         3 RES3   0.0000
    76 H43      8.5785  10.6211   0.8991   H         3 RES3   0.0000
    77 C22      9.4237  10.0383   2.6306   C.3       3 RES3   0.0000
    78 H44      9.9912  10.8225   2.6920   H         3 RES3   0.0000
    79 H45      9.9084   9.2630   2.9573   H         3 RES3   0.0000
    80 H46      8.6283  10.1718   3.1663   H         3 RES3   0.0000
@<TRIPOS>BOND
     1     1     2    1
     2     3     1    1
     3     4     1    1
     4     5    11    2
     5     6     1    1
     6     7    15    2
     7     8     1    1
     8     9    19    2
     9    10     1    1
    10    11     4    1
    11    12    10    1
    12    13    12    1
    13    14    12    1
    14    15     6    1
    15    16    10    1
    16    17    16    1
    17    18    16    1
    18    19     8    1
    19    20    10    1
    20    21    20    1
    21    22    20    1
    22    11    12    1
    23    15    16    1
    24    19    20    1
    25    23    24    1
    26    24    25    1
    27    26    24    1
    28    27    24    1
    29    28    27    1
    30    29    27    1
    31    30    27    1
    32    31    23    1
    33    32    31    1
    34    33    31    1
    35    34    31    1
    36    35    34    1
    37    36    34    1
    38    37    34    1
    39    38    23    1
    40    39    38    1
    41    40    38    1
    42    41    38    1
    43    42    41    1
    44    43    41    1
    45    44    41    1
    46    45    23    1
    47    46    45    1
    48    47    45    1
    49    48    45    1
    50    49    48    1
    51    50    48    1
    52    51    48    1
    53    52    53    1
    54    53    54    1
    55    55    53    1
    56    56    53    1
    57    57    56    1
    58    58    56    1
    59    59    56    1
    60    60    52    1
    61    61    60    1
    62    62    60    1
    63    63    60    1
    64    64    63    1
    65    65    63    1
    66    66    63    1
    67    67    52    1
    68    68    67    1
    69    69    67    1
    70    70    67    1
    71    71    70    1
    72    72    70    1
    73    73    70    1
    74    74    52    1
    75    75    74    1
    76    76    74    1
    77    77    74    1
    78    78    77    1
    79    79    77    1
    80    80    77    1
@<TRIPOS>SUBSTRUCTURE
     1 RES1        1 GROUP             0 ****  ****    0  
     2 RES2       23 GROUP             0 ****  ****    0  
     3 RES3       52 GROUP             0 ****  ****    0  
@<TRIPOS>CRYSIN
   18.8729   11.3171   13.4868   90.0000  104.3180   90.0000    14     1
