@<TRIPOS>MOLECULE
QETKOS
   101   100     7     0     0
SMALL
USER_CHARGES
****
Generated from the CSD

@<TRIPOS>ATOM
     1 Fe1      1.7124   4.6157   8.1899   Fe        1 RES1   3.0000
     2 N1       0.9113   3.3806   6.8431   N.3       1 RES1   0.0000
     3 H1       1.3803   2.5729   6.8594   H         1 RES1   0.0000
     4 N2       1.1879   6.0487   6.8976   N.3       1 RES1   0.0000
     5 H2       1.9326   6.5766   6.7163   H         1 RES1   0.0000
     6 N3      -0.1538   4.8055   8.8606   N.3       1 RES1   0.0000
     7 H3      -0.1307   4.9440   9.7766   H         1 RES1   0.0000
     8 N4       2.3056   3.1268   9.3922   N.3       1 RES1   0.0000
     9 H4       1.7351   2.4028   9.2709   H         1 RES1   0.0000
    10 N5       3.5933   4.5863   7.5383   N.3       1 RES1   0.0000
    11 H5       3.6002   4.8257   6.6332   H         1 RES1   0.0000
    12 N6       2.4211   5.7805   9.6512   N.3       1 RES1   0.0000
    13 H6       1.7574   6.3920   9.8857   H         1 RES1   0.0000
    14 C1       1.0980   4.0065   5.5072   C.3       1 RES1   0.0000
    15 H7       0.5372   3.5421   4.8379   H         1 RES1   0.0000
    16 H8       2.0433   3.9344   5.2291   H         1 RES1   0.0000
    17 C2       0.6917   5.4603   5.6026   C.3       1 RES1   0.0000
    18 H9       1.0743   5.9622   4.8406   H         1 RES1   0.0000
    19 H10     -0.2935   5.5353   5.5590   H         1 RES1   0.0000
    20 C3      -0.5271   3.1094   7.1566   C.3       1 RES1   0.0000
    21 H11     -0.7256   2.1489   7.0298   H         1 RES1   0.0000
    22 H12     -1.1075   3.6258   6.5405   H         1 RES1   0.0000
    23 C4      -0.8301   3.5075   8.5879   C.3       1 RES1   0.0000
    24 H13     -1.8035   3.5969   8.7161   H         1 RES1   0.0000
    25 H14     -0.4899   2.8123   9.2054   H         1 RES1   0.0000
    26 C5       0.1657   6.8823   7.5656   C.3       1 RES1   0.0000
    27 H15     -0.2778   7.4765   6.9140   H         1 RES1   0.0000
    28 H16      0.5900   7.4477   8.2649   H         1 RES1   0.0000
    29 C6      -0.8544   5.9679   8.2062   C.3       1 RES1   0.0000
    30 H17     -1.3783   6.4670   8.8865   H         1 RES1   0.0000
    31 H18     -1.4862   5.6362   7.5178   H         1 RES1   0.0000
    32 C7       3.7098   2.6970   9.0514   C.3       1 RES1   0.0000
    33 H19      4.3456   3.0719   9.7125   H         1 RES1   0.0000
    34 H20      3.7779   1.7076   9.0841   H         1 RES1   0.0000
    35 C8       4.0720   3.1844   7.6746   C.3       1 RES1   0.0000
    36 H21      5.0487   3.1469   7.5383   H         1 RES1   0.0000
    37 H22      3.6386   2.6133   6.9862   H         1 RES1   0.0000
    38 C9       2.1870   3.6056  10.7826   C.3       1 RES1   0.0000
    39 H23      2.6615   2.9912  11.3974   H         1 RES1   0.0000
    40 H24      1.2333   3.6402  11.0525   H         1 RES1   0.0000
    41 C10      3.5718   6.5304   9.0787   C.3       1 RES1   0.0000
    42 H25      4.0912   6.9544   9.8011   H         1 RES1   0.0000
    43 H26      3.2418   7.2400   8.4693   H         1 RES1   0.0000
    44 C11      4.4474   5.5612   8.3153   C.3       1 RES1   0.0000
    45 H27      5.0282   6.0603   7.6841   H         1 RES1   0.0000
    46 H28      5.0236   5.0651   8.9396   H         1 RES1   0.0000
    47 C12      2.7968   4.9843  10.8644   C.3       1 RES1   0.0000
    48 H29      2.4661   5.4459  11.6809   H         1 RES1   0.0000
    49 H30      3.7786   4.9122  10.9298   H         1 RES1   0.0000
    50 S1       7.0838   5.3478  12.0776   S.o2      2 RES2   0.0000
    51 F1       6.4773   2.8700  11.6550   F         2 RES2   0.0000
    52 F2       5.1668   3.8536  12.9909   F         2 RES2   0.0000
    53 F3       7.0978   3.2883  13.6725   F         2 RES2   0.0000
    54 O1       6.2409   5.6853  10.9735   O.2       2 RES2   0.0000
    55 O2       6.9509   6.1785  13.2363   O.2       2 RES2   0.0000
    56 O3       8.4464   5.0536  11.7368   O.3       2 RES2  -1.0000
    57 C13      6.3985   3.7210  12.5411   C.3       2 RES2   0.0000
    58 S2       5.4474   5.4141   4.5107   S.o2      3 RES3   0.0000
    59 O4       4.0500   5.4516   4.7302   O.2       3 RES3   0.0000
    60 O5       6.1712   4.9324   5.6435   O.3       3 RES3  -1.0000
    61 O6       5.9764   6.5333   3.8578   O.2       3 RES3   0.0000
    62 C14      5.6670   4.1536   3.2989   C.3       3 RES3   0.0000
    63 F4       4.8384   3.0027   3.6942   F         3 RES3   0.0000
    64 F5       6.8105   3.7210   3.1625   F         3 RES3   0.0000
    65 F6       5.1260   4.4392   2.1129   F         3 RES3   0.0000
    66 F7       1.0250   0.0317   2.2901   F         4 RES4   0.0000
    67 F8       1.7614   1.9585   2.8354   F         4 RES4   0.0000
    68 F9       3.0957   0.2769   2.8081   F         4 RES4   0.0000
    69 S3       1.4689   0.3173   4.8242   S.o2      4 RES4   0.0000
    70 O7       1.6516  -1.0932   4.9210   O.2       4 RES4   0.0000
    71 O8       2.4200   1.1336   5.5208   O.2       4 RES4   0.0000
    72 O9       0.1147   0.7644   4.9892   O.3       4 RES4  -1.0000
    73 C15      1.8418   0.6634   3.0807   C.3       4 RES4   0.0000
    74 O10      2.2318   6.0949   0.3135   O.3       5 RES5   0.0000
    75 H31      1.7576   5.9362  -0.3626   H         5 RES5   0.0000
    76 C16      2.0005   5.1055   1.2950   C.3       5 RES5   0.0000
    77 H32      2.3874   5.3939   2.1470   H         5 RES5   0.0000
    78 H33      2.4103   4.2603   1.0156   H         5 RES5   0.0000
    79 H34      1.0322   4.9786   1.4041   H         5 RES5   0.0000
    80 O11      6.8495  -0.6865   5.0846   O.3       6 RES6   0.0000
    81 H35      7.6380  -0.4096   5.0369   H         6 RES6   0.0000
    82 C17      5.9593   0.4269   5.1119   C.3       6 RES6   0.0000
    83 H36      6.4293   1.2144   5.4608   H         6 RES6   0.0000
    84 H37      5.1968   0.2221   5.7035   H         6 RES6   0.0000
    85 H38      5.6304   0.6086   4.2122   H         6 RES6   0.0000
    86 C18      1.8049  -0.4615  12.7592   C.3       7 RES7   0.0000
    87 H39      2.1587  -1.1047  12.0749   H         7 RES7   0.0000
    88 H40      1.4114  -0.9519  13.4980   H         7 RES7   0.0000
    89 C19      0.9480   0.5192  12.1322   C.3       7 RES7   0.0000
    90 H41      0.1753   0.0635  11.8295   H         7 RES7   0.0000
    91 H42      1.4285   0.9923  11.4737   H         7 RES7   0.0000
    92 H43      0.6920   1.1480  12.8860   H         7 RES7   0.0000
    93 O12      2.9705   0.3750  13.2636   O.3       7 RES7   0.0000
    94 C18B     5.1112   0.4615  14.5041   C.3       7 RES7   0.0000
    95 H39B     4.7573   1.1047  15.1884   H         7 RES7   0.0000
    96 H40B     5.5046   0.9519  13.7652   H         7 RES7   0.0000
    97 C19B     5.9680  -0.5192  15.1311   C.3       7 RES7   0.0000
    98 H41B     6.7408  -0.0635  15.4337   H         7 RES7   0.0000
    99 H42B     5.4876  -0.9923  15.7895   H         7 RES7   0.0000
   100 H43B     6.2240  -1.1480  14.3773   H         7 RES7   0.0000
   101 O12B     3.9456  -0.3750  13.9997   O.3       7 RES7   0.0000
@<TRIPOS>BOND
     1     1     2    1
     2     2     3    1
     3     4     1    1
     4     5     4    1
     5     6     1    1
     6     7     6    1
     7     8     1    1
     8     9     8    1
     9    10     1    1
    10    11    10    1
    11    12     1    1
    12    13    12    1
    13    14     2    1
    14    15    14    1
    15    16    14    1
    16    17     4    1
    17    18    17    1
    18    19    17    1
    19    20     2    1
    20    21    20    1
    21    22    20    1
    22    23     6    1
    23    24    23    1
    24    25    23    1
    25    26     4    1
    26    27    26    1
    27    28    26    1
    28    29     6    1
    29    30    29    1
    30    31    29    1
    31    32     8    1
    32    33    32    1
    33    34    32    1
    34    35    10    1
    35    36    35    1
    36    37    35    1
    37    38     8    1
    38    39    38    1
    39    40    38    1
    40    41    12    1
    41    42    41    1
    42    43    41    1
    43    44    10    1
    44    45    44    1
    45    46    44    1
    46    47    12    1
    47    48    47    1
    48    49    47    1
    49    14    17    1
    50    20    23    1
    51    26    29    1
    52    32    35    1
    53    38    47    1
    54    41    44    1
    55    50    54    2
    56    51    57    1
    57    52    57    1
    58    53    57    1
    59    55    50    2
    60    56    50    1
    61    57    50    1
    62    58    59    2
    63    60    58    1
    64    61    58    2
    65    62    58    1
    66    63    62    1
    67    64    62    1
    68    65    62    1
    69    66    73    1
    70    67    73    1
    71    68    73    1
    72    69    70    2
    73    71    69    2
    74    72    69    1
    75    73    69    1
    76    74    75    1
    77    76    74    1
    78    77    76    1
    79    78    76    1
    80    79    76    1
    81    80    81    1
    82    82    80    1
    83    83    82    1
    84    84    82    1
    85    85    82    1
    86    86    87    1
    87    88    86    1
    88    89    86    1
    89    90    89    1
    90    91    89    1
    91    92    89    1
    92    93    86    1
    93    94    95    1
    94    96    94    1
    95    97    94    1
    96    98    97    1
    97    99    97    1
    98   100    97    1
    99   101    93    1
   100    94   101    1
@<TRIPOS>SUBSTRUCTURE
     1 RES1        1 GROUP             0 ****  ****    0  
     2 RES2       50 GROUP             0 ****  ****    0  
     3 RES3       58 GROUP             0 ****  ****    0  
     4 RES4       66 GROUP             0 ****  ****    0  
     5 RES5       74 GROUP             0 ****  ****    0  
     6 RES6       80 GROUP             0 ****  ****    0  
     7 RES7       86 GROUP             0 ****  ****    0  
@<TRIPOS>CRYSIN
    9.0622   28.8446   13.6738   90.0000   94.5010   90.0000   231     1
