@<TRIPOS>MOLECULE
QEWDUV
    75    79     3     0     0
SMALL
USER_CHARGES
****
Generated from the CSD

@<TRIPOS>ATOM
     1 Fe1      4.1219   7.4403   4.2035   Fe        1 RES1   1.0000
     2 O1       5.7994   8.2444   4.5191   O.3       1 RES1   0.0000
     3 C1       6.4736   8.0004   5.6186   C.ar      1 RES1   0.0000
     4 C2       7.3172   9.0186   6.1466   C.ar      1 RES1   0.0000
     5 H1       7.4330   9.8297   5.6664   H         1 RES1   0.0000
     6 C3       7.9671   8.8383   7.3491   C.ar      1 RES1   0.0000
     7 H2       8.4960   9.5364   7.7196   H         1 RES1   0.0000
     8 C4       7.8402   7.6151   8.0184   C.ar      1 RES1   0.0000
     9 N1       8.5707   7.4057   9.2555   N.pl3     1 RES1   0.0000
    10 O2       9.2463   8.3260   9.6985   O.2       1 RES1   0.0000
    11 O3       8.5195   6.2942   9.7838   O.2       1 RES1   0.0000
    12 C5       7.0906   6.5852   7.5001   C.ar      1 RES1   0.0000
    13 H3       7.0489   5.7520   7.9556   H         1 RES1   0.0000
    14 C6       6.3884   6.7619   6.3017   C.ar      1 RES1   0.0000
    15 C7       5.7347   5.6267   5.6987   C.2       1 RES1   0.0000
    16 H4       5.9787   4.7607   6.0035   H         1 RES1   0.0000
    17 N2       4.8394   5.7111   4.7721   N.2       1 RES1   0.0000
    18 C8       4.5220   4.4760   4.0314   C.3       1 RES1   0.0000
    19 H5       3.5434   4.3291   4.0302   H         1 RES1   0.0000
    20 H6       4.9508   3.7014   4.4738   H         1 RES1   0.0000
    21 C9       5.0286   4.5936   2.5964   C.3       1 RES1   0.0000
    22 H7       6.0016   4.7762   2.6140   H         1 RES1   0.0000
    23 H8       4.8923   3.7269   2.1366   H         1 RES1   0.0000
    24 C10      4.3379   5.6855   1.7982   C.3       1 RES1   0.0000
    25 H9       4.6203   5.6230   0.8518   H         1 RES1   0.0000
    26 H10      3.3585   5.5425   1.8332   H         1 RES1   0.0000
    27 N3       4.6489   7.0407   2.3095   N.3       1 RES1   0.0000
    28 H11      5.6420   7.1506   2.2555   H         1 RES1   0.0000
    29 C11      4.0512   8.0854   1.4406   C.3       1 RES1   0.0000
    30 H12      3.1024   7.8718   1.2547   H         1 RES1   0.0000
    31 H13      4.5375   8.1321   0.5803   H         1 RES1   0.0000
    32 C12      4.1538   9.3958   2.1649   C.3       1 RES1   0.0000
    33 H14      5.1032   9.6580   2.2609   H         1 RES1   0.0000
    34 H15      3.6826  10.1028   1.6575   H         1 RES1   0.0000
    35 N4       3.5323   9.2286   3.5020   N.3       1 RES1   0.0000
    36 H16      2.5436   9.1776   3.3629   H         1 RES1   0.0000
    37 C13      3.7937  10.4142   4.3528   C.3       1 RES1   0.0000
    38 H17      3.4390  11.2212   3.9006   H         1 RES1   0.0000
    39 H18      4.7712  10.5291   4.4561   H         1 RES1   0.0000
    40 C14      3.1551  10.2937   5.7340   C.3       1 RES1   0.0000
    41 H19      2.1879  10.1144   5.6238   H         1 RES1   0.0000
    42 H20      3.2482  11.1600   6.2041   H         1 RES1   0.0000
    43 C15      3.7613   9.1945   6.6055   C.3       1 RES1   0.0000
    44 H21      4.7388   9.3316   6.6850   H         1 RES1   0.0000
    45 H22      3.3691   9.2342   7.5137   H         1 RES1   0.0000
    46 N5       3.4907   7.8796   6.0043   N.2       1 RES1   0.0000
    47 C16      2.7192   7.0842   6.6513   C.2       1 RES1   0.0000
    48 H23      2.5825   7.2519   7.5759   H         1 RES1   0.0000
    49 C17      2.0437   5.9517   6.0628   C.ar      1 RES1   0.0000
    50 C18      1.4359   5.0207   6.8953   C.ar      1 RES1   0.0000
    51 H24      1.6104   5.0289   7.8296   H         1 RES1   0.0000
    52 C19      0.5762   4.0809   6.3562   C.ar      1 RES1   0.0000
    53 N6      -0.0840   3.1498   7.2539   N.pl3     1 RES1   0.0000
    54 O4       0.3765   2.9804   8.3817   O.2       1 RES1   0.0000
    55 O5      -1.0966   2.5748   6.8445   O.2       1 RES1   0.0000
    56 C20      0.2631   4.0669   4.9918   C.ar      1 RES1   0.0000
    57 H25     -0.3574   3.4352   4.6477   H         1 RES1   0.0000
    58 C21      0.8627   4.9752   4.1588   C.ar      1 RES1   0.0000
    59 H26      0.6425   4.9780   3.2351   H         1 RES1   0.0000
    60 C22      1.8092   5.9145   4.6547   C.ar      1 RES1   0.0000
    61 O6       2.4205   6.7002   3.8131   O.3       1 RES1   0.0000
    62 Cl1      7.1795   1.1905   2.6311   Cl        2 RES2   0.0000
    63 O7       7.6627  -0.0849   3.1540   O.3       2 RES2  -1.0000
    64 O8       6.4108   1.8327   3.6600   O.2       2 RES2   0.0000
    65 O9       6.3529   0.9406   1.4937   O.2       2 RES2   0.0000
    66 O10      8.3057   2.0017   2.3051   O.2       2 RES2   0.0000
    67 O11      7.5415   7.0625   2.0408   O.3       3 RES3   0.0000
    68 H27      7.7834   7.7534   2.4525   H         3 RES3   0.0000
    69 C23      8.3171   6.9222   0.8429   C.3       3 RES3   0.0000
    70 H28      9.2092   6.5520   1.0594   H         3 RES3   0.0000
    71 H29      8.4419   7.8068   0.4153   H         3 RES3   0.0000
    72 C24      7.5899   5.9983  -0.0905   C.3       3 RES3   0.0000
    73 H30      8.1019   5.9026  -0.9210   H         3 RES3   0.0000
    74 H31      6.7053   6.3691  -0.2946   H         3 RES3   0.0000
    75 H32      7.4863   5.1211   0.3336   H         3 RES3   0.0000
@<TRIPOS>BOND
     1     1     2    1
     2     2     3    1
     3     3     4   ar
     4     4     5    1
     5     6     4   ar
     6     7     6    1
     7     8     6   ar
     8     9     8    1
     9    10     9    2
    10    11     9    2
    11    12     8   ar
    12    13    12    1
    13    14     3   ar
    14    15    14    1
    15    16    15    1
    16    17     1    1
    17    18    17    1
    18    19    18    1
    19    20    18    1
    20    21    18    1
    21    22    21    1
    22    23    21    1
    23    24    21    1
    24    25    24    1
    25    26    24    1
    26    27     1    1
    27    28    27    1
    28    29    27    1
    29    30    29    1
    30    31    29    1
    31    32    29    1
    32    33    32    1
    33    34    32    1
    34    35     1    1
    35    36    35    1
    36    37    35    1
    37    38    37    1
    38    39    37    1
    39    40    37    1
    40    41    40    1
    41    42    40    1
    42    43    40    1
    43    44    43    1
    44    45    43    1
    45    46     1    1
    46    47    46    2
    47    48    47    1
    48    49    47    1
    49    50    49   ar
    50    51    50    1
    51    52    50   ar
    52    53    52    1
    53    54    53    2
    54    55    53    2
    55    56    52   ar
    56    57    56    1
    57    58    56   ar
    58    59    58    1
    59    60    49   ar
    60    61     1    1
    61    12    14   ar
    62    15    17    2
    63    24    27    1
    64    32    35    1
    65    43    46    1
    66    58    60   ar
    67    60    61    1
    68    62    63    1
    69    64    62    2
    70    65    62    2
    71    66    62    2
    72    67    68    1
    73    69    67    1
    74    70    69    1
    75    71    69    1
    76    72    69    1
    77    73    72    1
    78    74    72    1
    79    75    72    1
@<TRIPOS>SUBSTRUCTURE
     1 RES1        1 GROUP             0 ****  ****    0  
     2 RES2       62 GROUP             0 ****  ****    0  
     3 RES3       67 GROUP             0 ****  ****    0  
@<TRIPOS>CRYSIN
    8.3554    9.4905   18.1299   85.4690   78.6150   82.5800     2     1
