@<TRIPOS>MOLECULE
QEWFAD
    79    83     3     0     0
SMALL
USER_CHARGES
****
Generated from the CSD

@<TRIPOS>ATOM
     1 Fe1      3.7581   3.2419  11.5155   Fe        1 RES1   1.0000
     2 O1       3.7663   4.5238  10.1283   O.3       1 RES1   0.0000
     3 C1       4.0403   5.7732  10.3313   C.ar      1 RES1   0.0000
     4 C2       4.5953   6.5990   9.3082   C.ar      1 RES1   0.0000
     5 N1       4.6959   6.1341   7.9274   N.pl3     1 RES1   0.0000
     6 O2       3.9951   5.1988   7.5546   O.2       1 RES1   0.0000
     7 O3       5.4668   6.7435   7.1828   O.2       1 RES1   0.0000
     8 C3       5.1241   7.8466   9.5694   C.ar      1 RES1   0.0000
     9 H1       5.5581   8.3434   8.8854   H         1 RES1   0.0000
    10 C4       5.0074   8.3595  10.8530   C.ar      1 RES1   0.0000
    11 N2       5.6053   9.6565  11.1336   N.pl3     1 RES1   0.0000
    12 O4       6.2379  10.2057  10.2295   O.2       1 RES1   0.0000
    13 O5       5.4602  10.1397  12.2573   O.2       1 RES1   0.0000
    14 C5       4.3242   7.6861  11.8490   C.ar      1 RES1   0.0000
    15 H2       4.1800   8.0970  12.6939   H         1 RES1   0.0000
    16 C6       3.8511   6.4020  11.6027   C.ar      1 RES1   0.0000
    17 C7       2.9986   5.7621  12.5896   C.2       1 RES1   0.0000
    18 H3       2.5718   6.3155  13.2338   H         1 RES1   0.0000
    19 N3       2.7853   4.4990  12.6471   N.2       1 RES1   0.0000
    20 C8       1.6655   4.0339  13.4813   C.3       1 RES1   0.0000
    21 H4       1.3120   4.7877  14.0153   H         1 RES1   0.0000
    22 H5       1.9823   3.3348  14.1062   H         1 RES1   0.0000
    23 C9       0.5573   3.4679  12.5905   C.3       1 RES1   0.0000
    24 H6      -0.2242   3.2508  13.1583   H         1 RES1   0.0000
    25 H7       0.2765   4.1690  11.9517   H         1 RES1   0.0000
    26 C10      0.9481   2.2267  11.8072   C.3       1 RES1   0.0000
    27 H8       1.2473   1.5259  12.4402   H         1 RES1   0.0000
    28 H9       0.1524   1.8819  11.3295   H         1 RES1   0.0000
    29 N4       2.0316   2.4870  10.8230   N.3       1 RES1   0.0000
    30 H10      1.7747   3.0701  10.2651   H         1 RES1   0.0000
    31 C11      2.3759   1.2578  10.0644   C.3       1 RES1   0.0000
    32 H11      1.6245   0.9875   9.4801   H         1 RES1   0.0000
    33 H12      2.5806   0.5129  10.6833   H         1 RES1   0.0000
    34 C12      3.5880   1.6105   9.2407   C.3       1 RES1   0.0000
    35 H13      3.8876   0.8269   8.7157   H         1 RES1   0.0000
    36 H14      3.3753   2.3455   8.6128   H         1 RES1   0.0000
    37 N5       4.6485   2.0321  10.1906   N.3       1 RES1   0.0000
    38 H15      4.8950   1.3580  10.6765   H         1 RES1   0.0000
    39 C13      5.8494   2.5437   9.4820   C.3       1 RES1   0.0000
    40 H16      5.5902   3.3147   8.9196   H         1 RES1   0.0000
    41 H17      6.2010   1.8362   8.8854   H         1 RES1   0.0000
    42 C14      6.9490   2.9752  10.4497   C.3       1 RES1   0.0000
    43 H18      7.7596   3.1997   9.9275   H         1 RES1   0.0000
    44 H19      7.1728   2.2104  11.0364   H         1 RES1   0.0000
    45 C15      6.5855   4.1726  11.3261   C.3       1 RES1   0.0000
    46 H20      7.3752   4.4537  11.8523   H         1 RES1   0.0000
    47 H21      6.3064   4.9319  10.7553   H         1 RES1   0.0000
    48 N6       5.4861   3.8015  12.2372   N.2       1 RES1   0.0000
    49 C16      5.7584   3.6988  13.4902   C.2       1 RES1   0.0000
    50 H22      6.5703   4.0832  13.7994   H         1 RES1   0.0000
    51 C17      4.9095   3.0345  14.4656   C.ar      1 RES1   0.0000
    52 C18      5.1264   3.2859  15.8156   C.ar      1 RES1   0.0000
    53 H23      5.7429   3.9554  16.0876   H         1 RES1   0.0000
    54 C19      4.4315   2.5465  16.7589   C.ar      1 RES1   0.0000
    55 N7       4.5812   2.8630  18.1730   N.pl3     1 RES1   0.0000
    56 O6       5.4561   3.6588  18.4992   O.2       1 RES1   0.0000
    57 O7       3.8136   2.3229  18.9739   O.2       1 RES1   0.0000
    58 C20      3.6174   1.4902  16.4074   C.ar      1 RES1   0.0000
    59 H24      3.1792   0.9747  17.0748   H         1 RES1   0.0000
    60 C21      3.4501   1.1941  15.0660   C.ar      1 RES1   0.0000
    61 N8       2.6024   0.0387  14.7678   N.pl3     1 RES1   0.0000
    62 O8       2.0101  -0.4916  15.7120   O.2       1 RES1   0.0000
    63 O9       2.5285  -0.3709  13.6114   O.2       1 RES1   0.0000
    64 C22      4.0120   2.0071  14.0323   C.ar      1 RES1   0.0000
    65 O10      3.7133   1.8386  12.7818   O.3       1 RES1   0.0000
    66 Cl1      4.4050   7.0197  15.7391   Cl        2 RES2   0.0000
    67 O11      2.9850   7.0622  15.5106   O.2       2 RES2   0.0000
    68 O12      4.6771   6.3414  16.9854   O.2       2 RES2   0.0000
    69 O13      4.9254   8.3708  15.7958   O.3       2 RES2  -1.0000
    70 O14      5.0582   6.3151  14.6595   O.2       2 RES2   0.0000
    71 O15      1.4672   9.4607   2.5487   O.3       3 RES3   0.0000
    72 H25      2.1875   9.6631   2.2333   H         3 RES3   0.0000
    73 C23      1.1210  10.3070   3.6472   C.3       3 RES3   0.0000
    74 H26      1.9448  10.6962   4.0347   H         3 RES3   0.0000
    75 H27      0.6782   9.7690   4.3501   H         3 RES3   0.0000
    76 C24      0.2032  11.4139   3.2155   C.3       3 RES3   0.0000
    77 H28     -0.0720  11.9356   3.9988   H         3 RES3   0.0000
    78 H29     -0.5890  11.0321   2.7835   H         3 RES3   0.0000
    79 H30      0.6710  11.9976   2.5830   H         3 RES3   0.0000
@<TRIPOS>BOND
     1     1     2    1
     2     2     3    1
     3     3     4   ar
     4     4     5    1
     5     5     6    2
     6     7     5    2
     7     8     4   ar
     8     9     8    1
     9    10     8   ar
    10    11    10    1
    11    12    11    2
    12    13    11    2
    13    14    10   ar
    14    15    14    1
    15    16     3   ar
    16    17    16    1
    17    18    17    1
    18    19     1    1
    19    20    19    1
    20    21    20    1
    21    22    20    1
    22    23    20    1
    23    24    23    1
    24    25    23    1
    25    26    23    1
    26    27    26    1
    27    28    26    1
    28    29     1    1
    29    30    29    1
    30    31    29    1
    31    32    31    1
    32    33    31    1
    33    34    31    1
    34    35    34    1
    35    36    34    1
    36    37     1    1
    37    38    37    1
    38    39    37    1
    39    40    39    1
    40    41    39    1
    41    42    39    1
    42    43    42    1
    43    44    42    1
    44    45    42    1
    45    46    45    1
    46    47    45    1
    47    48     1    1
    48    49    48    2
    49    50    49    1
    50    51    49    1
    51    52    51   ar
    52    53    52    1
    53    54    52   ar
    54    55    54    1
    55    56    55    2
    56    57    55    2
    57    58    54   ar
    58    59    58    1
    59    60    58   ar
    60    61    60    1
    61    62    61    2
    62    63    61    2
    63    64    51   ar
    64    65     1    1
    65    14    16   ar
    66    17    19    2
    67    26    29    1
    68    34    37    1
    69    45    48    1
    70    60    64   ar
    71    64    65    1
    72    66    67    2
    73    68    66    2
    74    69    66    1
    75    70    66    2
    76    71    72    1
    77    73    71    1
    78    74    73    1
    79    75    73    1
    80    76    73    1
    81    77    76    1
    82    78    76    1
    83    79    76    1
@<TRIPOS>SUBSTRUCTURE
     1 RES1        1 GROUP             0 ****  ****    0  
     2 RES2       66 GROUP             0 ****  ****    0  
     3 RES3       71 GROUP             0 ****  ****    0  
@<TRIPOS>CRYSIN
    9.4960   18.2529   17.1490   90.0000   91.8604   90.0000   231     1
