@<TRIPOS>MOLECULE
QEWGAE
    79    83     3     0     0
SMALL
USER_CHARGES
****
Generated from the CSD

@<TRIPOS>ATOM
     1 Fe1      1.0770   5.6683  11.4778   Fe        1 RES1   1.0000
     2 O1       0.0239   4.3417  12.3072   O.3       1 RES1   0.0000
     3 C1      -0.4839   3.3246  11.6367   C.ar      1 RES1   0.0000
     4 C2      -0.6413   2.0698  12.2975   C.ar      1 RES1   0.0000
     5 O2      -0.0871   1.9997  13.5489   O.3       1 RES1   0.0000
     6 C3       0.1746   0.6747  14.0558   C.3       1 RES1   0.0000
     7 H1       0.6057   0.1199  13.3584   H         1 RES1   0.0000
     8 H2      -0.6712   0.2376  14.3271   H         1 RES1   0.0000
     9 C4       1.0871   0.8240  15.2393   C.3       1 RES1   0.0000
    10 H3       1.9186   1.2596  14.9577   H         1 RES1   0.0000
    11 H4       1.2904  -0.0605  15.6086   H         1 RES1   0.0000
    12 H5       0.6470   1.3707  15.9231   H         1 RES1   0.0000
    13 C5      -1.2963   1.0191  11.6831   C.ar      1 RES1   0.0000
    14 H6      -1.4412   0.2101  12.1593   H         1 RES1   0.0000
    15 C6      -1.7481   1.1395  10.3567   C.ar      1 RES1   0.0000
    16 H7      -2.1952   0.4125   9.9393   H         1 RES1   0.0000
    17 C7      -1.5437   2.3058   9.6657   C.ar      1 RES1   0.0000
    18 H8      -1.8302   2.3773   8.7621   H         1 RES1   0.0000
    19 C8      -0.9093   3.4006  10.2918   C.ar      1 RES1   0.0000
    20 C9      -0.8399   4.6529   9.5873   C.2       1 RES1   0.0000
    21 H9      -1.3601   4.7326   8.7957   H         1 RES1   0.0000
    22 N1      -0.1364   5.6764   9.9319   N.2       1 RES1   0.0000
    23 C10     -0.4962   6.9552   9.2849   C.3       1 RES1   0.0000
    24 H10     -1.0551   6.7810   8.4863   H         1 RES1   0.0000
    25 H11      0.3248   7.4245   8.9908   H         1 RES1   0.0000
    26 C11     -1.2664   7.8302  10.2736   C.3       1 RES1   0.0000
    27 H12     -1.6118   8.6258   9.7947   H         1 RES1   0.0000
    28 H13     -2.0456   7.3211  10.6120   H         1 RES1   0.0000
    29 C12     -0.4350   8.2922  11.4529   C.3       1 RES1   0.0000
    30 H14      0.3673   8.7655  11.1182   H         1 RES1   0.0000
    31 H15     -0.9637   8.9327  11.9911   H         1 RES1   0.0000
    32 N2      -0.0081   7.1599  12.3224   N.3       1 RES1   0.0000
    33 H16     -0.8395   6.7447  12.6907   H         1 RES1   0.0000
    34 C13      0.7665   7.6757  13.4779   C.3       1 RES1   0.0000
    35 H17      0.1760   8.1858  14.0866   H         1 RES1   0.0000
    36 H18      1.4898   8.2760  13.1666   H         1 RES1   0.0000
    37 C14      1.3488   6.4840  14.1913   C.3       1 RES1   0.0000
    38 H19      1.9265   6.7799  14.9392   H         1 RES1   0.0000
    39 H20      0.6254   5.9163  14.5575   H         1 RES1   0.0000
    40 N3       2.1445   5.7240  13.1988   N.3       1 RES1   0.0000
    41 H21      2.9700   6.2573  13.0153   H         1 RES1   0.0000
    42 C15      2.5814   4.4323  13.7803   C.3       1 RES1   0.0000
    43 H22      1.7838   3.8987  14.0260   H         1 RES1   0.0000
    44 H23      3.0973   4.6050  14.6079   H         1 RES1   0.0000
    45 C16      3.4351   3.6358  12.8188   C.3       1 RES1   0.0000
    46 H24      3.8059   2.8503  13.2945   H         1 RES1   0.0000
    47 H25      4.1968   4.1968  12.5259   H         1 RES1   0.0000
    48 C17      2.6752   3.1518  11.5829   C.3       1 RES1   0.0000
    49 H26      3.2488   2.5412  11.0543   H         1 RES1   0.0000
    50 H27      1.8659   2.6534  11.8616   H         1 RES1   0.0000
    51 N4       2.2875   4.3171  10.7556   N.2       1 RES1   0.0000
    52 C18      2.9341   4.4742   9.6546   C.2       1 RES1   0.0000
    53 H28      3.3997   3.7216   9.3103   H         1 RES1   0.0000
    54 C19      3.0060   5.7002   8.9048   C.ar      1 RES1   0.0000
    55 C20      3.6269   5.6817   7.6334   C.ar      1 RES1   0.0000
    56 H29      3.8740   4.8525   7.2417   H         1 RES1   0.0000
    57 C21      3.8748   6.8558   6.9616   C.ar      1 RES1   0.0000
    58 H30      4.2994   6.8382   6.1116   H         1 RES1   0.0000
    59 C22      3.4954   8.0835   7.5396   C.ar      1 RES1   0.0000
    60 H31      3.6575   8.8931   7.0702   H         1 RES1   0.0000
    61 C23      2.8925   8.1238   8.7804   C.ar      1 RES1   0.0000
    62 O3       2.4603   9.2553   9.4016   O.3       1 RES1   0.0000
    63 C24      2.5204  10.4861   8.6617   C.3       1 RES1   0.0000
    64 H32      2.0746  10.3860   7.7833   H         1 RES1   0.0000
    65 H33      3.4609  10.7556   8.5115   H         1 RES1   0.0000
    66 C25      1.8118  11.4971   9.4965   C.3       1 RES1   0.0000
    67 H34      0.8604  11.2682   9.5508   H         1 RES1   0.0000
    68 H35      1.9122  12.3837   9.0900   H         1 RES1   0.0000
    69 H36      2.1975  11.5048  10.3968   H         1 RES1   0.0000
    70 C26      2.6557   6.9205   9.5167   C.ar      1 RES1   0.0000
    71 O4       2.1409   7.0177  10.7301   O.3       1 RES1   0.0000
    72 B1      -2.8832   8.6599  14.4710   B         2 RES2  -1.0000
    73 F1      -2.7837   7.5341  13.6194   F         2 RES2   0.0000
    74 F2      -2.7766   9.8145  13.7198   F         2 RES2   0.0000
    75 F3      -4.0849   8.6280  15.1405   F         2 RES2   0.0000
    76 F4      -1.8312   8.6446  15.3916   F         2 RES2   0.0000
    77 O5       2.6834  10.4025  12.1525   O.3       3 RES3   0.0000
    78 H37      2.7800  10.0735  11.3856   H         3 RES3   0.0000
    79 H38      3.2791  10.0361  12.6167   H         3 RES3   0.0000
@<TRIPOS>BOND
     1     1     2    1
     2     2     3    1
     3     3     4   ar
     4     4     5    1
     5     5     6    1
     6     6     7    1
     7     8     6    1
     8     9     6    1
     9    10     9    1
    10    11     9    1
    11    12     9    1
    12    13     4   ar
    13    14    13    1
    14    15    13   ar
    15    16    15    1
    16    17    15   ar
    17    18    17    1
    18    19     3   ar
    19    20    19    1
    20    21    20    1
    21    22     1    1
    22    23    22    1
    23    24    23    1
    24    25    23    1
    25    26    23    1
    26    27    26    1
    27    28    26    1
    28    29    26    1
    29    30    29    1
    30    31    29    1
    31    32     1    1
    32    33    32    1
    33    34    32    1
    34    35    34    1
    35    36    34    1
    36    37    34    1
    37    38    37    1
    38    39    37    1
    39    40     1    1
    40    41    40    1
    41    42    40    1
    42    43    42    1
    43    44    42    1
    44    45    42    1
    45    46    45    1
    46    47    45    1
    47    48    45    1
    48    49    48    1
    49    50    48    1
    50    51     1    1
    51    52    51    2
    52    53    52    1
    53    54    52    1
    54    55    54   ar
    55    56    55    1
    56    57    55   ar
    57    58    57    1
    58    59    57   ar
    59    60    59    1
    60    61    59   ar
    61    62    61    1
    62    63    62    1
    63    64    63    1
    64    65    63    1
    65    66    63    1
    66    67    66    1
    67    68    66    1
    68    69    66    1
    69    70    54   ar
    70    71     1    1
    71    17    19   ar
    72    20    22    2
    73    29    32    1
    74    37    40    1
    75    48    51    1
    76    61    70   ar
    77    70    71    1
    78    72    73    1
    79    74    72    1
    80    75    72    1
    81    76    72    1
    82    77    78    1
    83    79    77    1
@<TRIPOS>SUBSTRUCTURE
     1 RES1        1 GROUP             0 ****  ****    0  
     2 RES2       72 GROUP             0 ****  ****    0  
     3 RES3       77 GROUP             0 ****  ****    0  
