@<TRIPOS>MOLECULE
QEXZUP
   101   100     1     0     0
SMALL
NO_CHARGES
****
Generated from the CSD

@<TRIPOS>ATOM
     1 Fe1      3.6071   1.2150   2.6735   Fe        1 RES1   0.0000
     2 O1       3.7944  -0.4295   1.3665   O.co2     1 RES1   0.0000
     3 O2       4.0320  -2.2047   2.6786   O.co2     1 RES1   0.0000
     4 O3       2.0026   1.8661   1.3801   O.2       1 RES1   0.0000
     5 O4       2.4601   0.7881  -0.5214   O.3       1 RES1   0.0000
     6 H1       2.9371   0.3216  -0.0124   H         1 RES1   0.0000
     7 O5       4.9443   2.1888   1.2759   O.2       1 RES1   0.0000
     8 O6       6.8714   1.1436   1.6693   O.3       1 RES1   0.0000
     9 H2       6.4625   0.9003   2.3612   H         1 RES1   0.0000
    10 O7       3.3318   3.0468   3.6068   O.2       1 RES1   0.0000
    11 O8       3.2791   2.7654   5.8181   O.3       1 RES1   0.0000
    12 H3       3.7591   2.1031   5.6281   H         1 RES1   0.0000
    13 O9       2.0937   0.4179   3.8971   O.2       1 RES1   0.0000
    14 O10      2.2860  -1.7350   4.4025   O.3       1 RES1   0.0000
    15 H4       2.8469  -1.7254   3.7775   H         1 RES1   0.0000
    16 O11      5.3207   0.5850   3.7209   O.co2     1 RES1   0.0000
    17 O12      4.6714   0.7014   5.8369   O.co2     1 RES1   0.0000
    18 C1       4.1316  -1.6429   1.5752   C.2       1 RES1   0.0000
    19 C2       4.6940  -2.4607   0.3955   C.3       1 RES1   0.0000
    20 C3       6.0745  -2.7611   0.6979   C.3       1 RES1   0.0000
    21 H5       6.4622  -3.2848  -0.0350   H         1 RES1   0.0000
    22 H6       6.1231  -3.2763   1.5295   H         1 RES1   0.0000
    23 H7       6.5754  -1.9254   0.8008   H         1 RES1   0.0000
    24 C4       4.6141  -1.7392  -0.8625   C.3       1 RES1   0.0000
    25 H8       4.9874  -2.2925  -1.5810   H         1 RES1   0.0000
    26 H9       5.1248  -0.9056  -0.7946   H         1 RES1   0.0000
    27 H10      3.6780  -1.5329  -1.0622   H         1 RES1   0.0000
    28 C5       3.9669  -3.7217   0.2861   C.3       1 RES1   0.0000
    29 H11      4.3274  -4.2432  -0.4611   H         1 RES1   0.0000
    30 H12      3.0176  -3.5387   0.1276   H         1 RES1   0.0000
    31 H13      4.0674  -4.2305   1.1178   H         1 RES1   0.0000
    32 C6       1.8088   1.6842   0.1859   C.2       1 RES1   0.0000
    33 C7       0.8112   2.5040  -0.6056   C.3       1 RES1   0.0000
    34 C8       1.5904   3.3800  -1.5460   C.3       1 RES1   0.0000
    35 H14      2.1127   2.8193  -2.1594   H         1 RES1   0.0000
    36 H15      2.1970   3.9534  -1.0334   H         1 RES1   0.0000
    37 H16      0.9729   3.9386  -2.0627   H         1 RES1   0.0000
    38 C9      -0.1717   1.5911  -1.3154   C.3       1 RES1   0.0000
    39 H17      0.3142   1.0029  -1.9289   H         1 RES1   0.0000
    40 H18     -0.8135   2.1327  -1.8198   H         1 RES1   0.0000
    41 H19     -0.6501   1.0494  -0.6546   H         1 RES1   0.0000
    42 C10      0.0092   3.3990   0.3705   C.3       1 RES1   0.0000
    43 H20      0.6239   3.9999   0.8420   H         1 RES1   0.0000
    44 H21     -0.4593   2.8352   1.0211   H         1 RES1   0.0000
    45 H22     -0.6429   3.9290  -0.1338   H         1 RES1   0.0000
    46 C11      6.1045   1.9508   0.9665   C.2       1 RES1   0.0000
    47 C12      6.7681   2.5760  -0.2429   C.3       1 RES1   0.0000
    48 C13      5.7194   3.2520  -1.1273   C.3       1 RES1   0.0000
    49 H23      5.0908   2.5781  -1.4616   H         1 RES1   0.0000
    50 H24      6.1638   3.6889  -1.8836   H         1 RES1   0.0000
    51 H25      5.2324   3.9216  -0.6032   H         1 RES1   0.0000
    52 C14      7.5252   1.5117  -1.0548   C.3       1 RES1   0.0000
    53 H26      6.8881   0.8527  -1.4019   H         1 RES1   0.0000
    54 H27      8.1778   1.0632  -0.4776   H         1 RES1   0.0000
    55 H28      7.9917   1.9412  -1.8033   H         1 RES1   0.0000
    56 C15      7.7648   3.6138   0.2903   C.3       1 RES1   0.0000
    57 H29      7.2851   4.2856   0.8193   H         1 RES1   0.0000
    58 H30      8.2148   4.0518  -0.4611   H         1 RES1   0.0000
    59 H31      8.4315   3.1674   0.8543   H         1 RES1   0.0000
    60 C16      3.0089   3.4287   4.7382   C.2       1 RES1   0.0000
    61 C17      2.3084   4.7489   4.9719   C.3       1 RES1   0.0000
    62 C18      1.2264   4.5786   6.0337   C.3       1 RES1   0.0000
    63 H32      0.5549   3.9396   5.7166   H         1 RES1   0.0000
    64 H33      0.7992   5.4440   6.2066   H         1 RES1   0.0000
    65 H34      1.6310   4.2432   6.8612   H         1 RES1   0.0000
    66 C19      3.3492   5.7412   5.4840   C.3       1 RES1   0.0000
    67 H35      4.0410   5.8703   4.8026   H         1 RES1   0.0000
    68 H36      3.7578   5.3921   6.3033   H         1 RES1   0.0000
    69 H37      2.9151   6.5992   5.6755   H         1 RES1   0.0000
    70 C20      1.6899   5.2525   3.6684   C.3       1 RES1   0.0000
    71 H38      1.0335   4.6008   3.3472   H         1 RES1   0.0000
    72 H39      2.3945   5.3667   2.9973   H         1 RES1   0.0000
    73 H40      1.2471   6.1115   3.8289   H         1 RES1   0.0000
    74 C21      1.7277  -0.5692   4.4998   C.2       1 RES1   0.0000
    75 C22      0.5858  -0.5025   5.5015   C.3       1 RES1   0.0000
    76 C23     -0.3957   0.5924   5.0847   C.3       1 RES1   0.0000
    77 H41     -0.8142   0.3502   4.2324   H         1 RES1   0.0000
    78 H42      0.0841   1.4409   4.9838   H         1 RES1   0.0000
    79 H43     -1.0887   0.6887   5.7702   H         1 RES1   0.0000
    80 C24      1.2241  -0.1312   6.8433   C.3       1 RES1   0.0000
    81 H44      1.8397  -0.8410   7.1185   H         1 RES1   0.0000
    82 H45      0.5232  -0.0254   7.5200   H         1 RES1   0.0000
    83 H46      1.7162   0.7109   6.7480   H         1 RES1   0.0000
    84 C25     -0.1387  -1.8365   5.6158   C.3       1 RES1   0.0000
    85 H47     -0.5514  -2.0587   4.7553   H         1 RES1   0.0000
    86 H48     -0.8345  -1.7720   6.3054   H         1 RES1   0.0000
    87 H49      0.5004  -2.5358   5.8628   H         1 RES1   0.0000
    88 C26      5.4359   0.2761   4.9465   C.2       1 RES1   0.0000
    89 C27      6.5326  -0.7046   5.3825   C.3       1 RES1   0.0000
    90 C28      5.8345  -1.9487   5.9256   C.3       1 RES1   0.0000
    91 H50      6.5056  -2.5993   6.2189   H         1 RES1   0.0000
    92 H51      5.2798  -2.3464   5.2205   H         1 RES1   0.0000
    93 H52      5.2677  -1.7000   6.6862   H         1 RES1   0.0000
    94 C29      7.4315  -1.0918   4.2254   C.3       1 RES1   0.0000
    95 H53      8.1161  -1.7180   4.5391   H         1 RES1   0.0000
    96 H54      7.8640  -0.2888   3.8660   H         1 RES1   0.0000
    97 H55      6.8965  -1.5170   3.5243   H         1 RES1   0.0000
    98 C30      7.3669  -0.0423   6.4948   C.3       1 RES1   0.0000
    99 H56      8.0695  -0.6591   6.7871   H         1 RES1   0.0000
   100 H57      6.7854   0.1746   7.2523   H         1 RES1   0.0000
   101 H58      7.7759   0.7786   6.1510   H         1 RES1   0.0000
@<TRIPOS>BOND
     1     1     2    1
     2     2    18    1
     3     3    18    2
     4     4     1    1
     5     5     6    1
     6     7     1    1
     7     8     9    1
     8    10     1    1
     9    11    12    1
    10    13     1    1
    11    14    15    1
    12    16     1    1
    13    17    88    2
    14    18    19    1
    15    19    20    1
    16    20    21    1
    17    22    20    1
    18    23    20    1
    19    24    19    1
    20    25    24    1
    21    26    24    1
    22    27    24    1
    23    28    19    1
    24    29    28    1
    25    30    28    1
    26    31    28    1
    27    32     4    2
    28    33    32    1
    29    34    33    1
    30    35    34    1
    31    36    34    1
    32    37    34    1
    33    38    33    1
    34    39    38    1
    35    40    38    1
    36    41    38    1
    37    42    33    1
    38    43    42    1
    39    44    42    1
    40    45    42    1
    41    46     7    2
    42    47    46    1
    43    48    47    1
    44    49    48    1
    45    50    48    1
    46    51    48    1
    47    52    47    1
    48    53    52    1
    49    54    52    1
    50    55    52    1
    51    56    47    1
    52    57    56    1
    53    58    56    1
    54    59    56    1
    55    60    10    2
    56    61    60    1
    57    62    61    1
    58    63    62    1
    59    64    62    1
    60    65    62    1
    61    66    61    1
    62    67    66    1
    63    68    66    1
    64    69    66    1
    65    70    61    1
    66    71    70    1
    67    72    70    1
    68    73    70    1
    69    74    13    2
    70    75    74    1
    71    76    75    1
    72    77    76    1
    73    78    76    1
    74    79    76    1
    75    80    75    1
    76    81    80    1
    77    82    80    1
    78    83    80    1
    79    84    75    1
    80    85    84    1
    81    86    84    1
    82    87    84    1
    83    88    16    1
    84    89    88    1
    85    90    89    1
    86    91    90    1
    87    92    90    1
    88    93    90    1
    89    94    89    1
    90    95    94    1
    91    96    94    1
    92    97    94    1
    93    98    89    1
    94    99    98    1
    95   100    98    1
    96   101    98    1
    97     5    32    1
    98     8    46    1
    99    11    60    1
   100    14    74    1
@<TRIPOS>SUBSTRUCTURE
     1 RES1        1 GROUP             0 ****  ****    0  
@<TRIPOS>CRYSIN
   17.3080   10.5790   21.3700   90.0000  105.5710   90.0000    14     1
