@<TRIPOS>MOLECULE
QEYBEC
    97   100     1     0     0
SMALL
NO_CHARGES
****
Generated from the CSD

@<TRIPOS>ATOM
     1 Fe1      1.3156  14.9638   5.5913   Fe        1 RES1   0.0000
     2 O1       0.5127  13.9058   7.1431   O.co2     1 RES1   0.0000
     3 O2      -0.4359  12.1045   6.2758   O.co2     1 RES1   0.0000
     4 O3       2.1192  15.9966   4.0338   O.co2     1 RES1   0.0000
     5 O4       2.9740  17.8855   4.8344   O.co2     1 RES1   0.0000
     6 N1       3.4474  14.2544   6.1788   N.pl3     1 RES1   0.0000
     7 H1       3.4894  13.3407   6.0761   H         1 RES1   0.0000
     8 H2       4.0510  14.6263   5.5932   H         1 RES1   0.0000
     9 N2       5.2381  16.4160   6.7002   N.pl3     1 RES1   0.0000
    10 H3       4.5000  16.5467   6.1121   H         1 RES1   0.0000
    11 H4       6.0886  16.6830   6.5973   H         1 RES1   0.0000
    12 N3      -0.8020  15.6984   5.0132   N.pl3     1 RES1   0.0000
    13 H5      -1.4104  15.3023   5.5797   H         1 RES1   0.0000
    14 H6      -0.8429  16.6059   5.1574   H         1 RES1   0.0000
    15 N4      -2.6029  13.5768   4.3986   N.pl3     1 RES1   0.0000
    16 H7      -2.9591  12.8673   4.1286   H         1 RES1   0.0000
    17 H8      -1.9823  13.3801   5.0137   H         1 RES1   0.0000
    18 N5       1.0089  13.2795   4.1262   N.pl3     1 RES1   0.0000
    19 H9       0.4712  12.6736   4.5622   H         1 RES1   0.0000
    20 H10      0.4932  13.6365   3.4525   H         1 RES1   0.0000
    21 N6       2.5650  11.4168   5.5808   N.pl3     1 RES1   0.0000
    22 H11      2.8938  10.7676   5.8335   H         1 RES1   0.0000
    23 H12      1.6470  11.5009   5.7796   H         1 RES1   0.0000
    24 N7       1.6094  16.6529   7.0575   N.pl3     1 RES1   0.0000
    25 H13      2.1617  16.3118   7.7092   H         1 RES1   0.0000
    26 H14      2.1097  17.2801   6.6063   H         1 RES1   0.0000
    27 N8       0.0275  18.5584   5.6857   N.pl3     1 RES1   0.0000
    28 H15     -0.3065  19.2830   5.4562   H         1 RES1   0.0000
    29 H16      0.8943  18.4636   5.5033   H         1 RES1   0.0000
    30 C1      -0.2044  12.8780   7.2417   C.2       1 RES1   0.0000
    31 C2      -0.8476  12.5442   8.5888   C.3       1 RES1   0.0000
    32 C3      -0.6387  13.6604   9.6017   C.3       1 RES1   0.0000
    33 H17      0.3196  13.7710   9.7712   H         1 RES1   0.0000
    34 H18     -1.0953  13.4321  10.4384   H         1 RES1   0.0000
    35 H19     -1.0073  14.4972   9.2479   H         1 RES1   0.0000
    36 C4      -0.2721  11.2463   9.0895   C.3       1 RES1   0.0000
    37 H20      0.6895  11.3539   9.2434   H         1 RES1   0.0000
    38 H21     -0.4205  10.5452   8.4212   H         1 RES1   0.0000
    39 H22     -0.7116  10.9971   9.9285   H         1 RES1   0.0000
    40 C5      -2.3410  12.3814   8.3691   C.3       1 RES1   0.0000
    41 H23     -2.7745  12.1680   9.2209   H         1 RES1   0.0000
    42 H24     -2.5004  11.6569   7.7294   H         1 RES1   0.0000
    43 H25     -2.7115  13.2169   8.0147   H         1 RES1   0.0000
    44 C6       2.7867  17.0683   3.9029   C.2       1 RES1   0.0000
    45 C7       3.4096  17.3705   2.5336   C.3       1 RES1   0.0000
    46 C8       3.1645  16.2473   1.5432   C.3       1 RES1   0.0000
    47 H26      2.2006  16.1361   1.4084   H         1 RES1   0.0000
    48 H27      3.5446  15.4153   1.8936   H         1 RES1   0.0000
    49 H28      3.5913  16.4660   0.6896   H         1 RES1   0.0000
    50 C9       2.7869  18.6500   2.0055   C.3       1 RES1   0.0000
    51 H29      1.8245  18.5173   1.8779   H         1 RES1   0.0000
    52 H30      3.2001  18.8849   1.1478   H         1 RES1   0.0000
    53 H31      2.9351  19.3762   2.6483   H         1 RES1   0.0000
    54 C10      4.9046  17.5616   2.7373   C.3       1 RES1   0.0000
    55 H32      5.3291  17.7589   1.8756   H         1 RES1   0.0000
    56 H33      5.2906  16.7422   3.1111   H         1 RES1   0.0000
    57 H34      5.0577  18.3058   3.3559   H         1 RES1   0.0000
    58 C11      3.8489  14.5822   7.5169   C.ar      1 RES1   0.0000
    59 C12      4.6675  15.6880   7.7707   C.ar      1 RES1   0.0000
    60 C13      4.9669  15.9980   9.1030   C.ar      1 RES1   0.0000
    61 H35      5.5392  16.7314   9.2928   H         1 RES1   0.0000
    62 C14      4.4430  15.2557  10.1549   C.ar      1 RES1   0.0000
    63 H36      4.6468  15.4906  11.0516   H         1 RES1   0.0000
    64 C15      3.6339  14.1852   9.8916   C.ar      1 RES1   0.0000
    65 H37      3.2765  13.6724  10.6069   H         1 RES1   0.0000
    66 C16      3.3370  13.8485   8.5771   C.ar      1 RES1   0.0000
    67 H38      2.7731  13.1040   8.4010   H         1 RES1   0.0000
    68 C17     -1.2032  15.4370   3.6679   C.ar      1 RES1   0.0000
    69 C18     -2.0245  14.3389   3.3550   C.ar      1 RES1   0.0000
    70 C19     -2.3205  14.0961   2.0140   C.ar      1 RES1   0.0000
    71 H39     -2.8731  13.3586   1.7858   H         1 RES1   0.0000
    72 C20     -1.8248  14.9078   1.0077   C.ar      1 RES1   0.0000
    73 H40     -2.0482  14.7285   0.1011   H         1 RES1   0.0000
    74 C21     -1.0108  15.9706   1.3163   C.ar      1 RES1   0.0000
    75 H41     -0.6616  16.5216   0.6245   H         1 RES1   0.0000
    76 C22     -0.7016  16.2328   2.6373   C.ar      1 RES1   0.0000
    77 H42     -0.1373  16.9681   2.8483   H         1 RES1   0.0000
    78 C23      2.7570  11.5626   4.1983   C.ar      1 RES1   0.0000
    79 C24      3.7708  10.8642   3.5421   C.ar      1 RES1   0.0000
    80 H43      4.3200  10.2673   4.0365   H         1 RES1   0.0000
    81 C25      3.9939  11.0260   2.1762   C.ar      1 RES1   0.0000
    82 H44      4.6724  10.5255   1.7386   H         1 RES1   0.0000
    83 C26      3.2214  11.9186   1.4637   C.ar      1 RES1   0.0000
    84 H45      3.3649  12.0335   0.5324   H         1 RES1   0.0000
    85 C27      2.2363  12.6458   2.1077   C.ar      1 RES1   0.0000
    86 H46      1.7134  13.2636   1.6106   H         1 RES1   0.0000
    87 C28      1.9979  12.4925   3.4644   C.ar      1 RES1   0.0000
    88 C29      0.6199  17.4011   7.7602   C.ar      1 RES1   0.0000
    89 C30     -0.1478  18.3468   7.0773   C.ar      1 RES1   0.0000
    90 C31     -1.1325  19.0479   7.7831   C.ar      1 RES1   0.0000
    91 H47     -1.6721  19.6847   7.3273   H         1 RES1   0.0000
    92 C32     -1.3308  18.8267   9.1342   C.ar      1 RES1   0.0000
    93 H48     -2.0022  19.3135   9.5983   H         1 RES1   0.0000
    94 C33     -0.5674  17.9115   9.8106   C.ar      1 RES1   0.0000
    95 H49     -0.6958  17.7696  10.7416   H         1 RES1   0.0000
    96 C34      0.4092  17.1842   9.1050   C.ar      1 RES1   0.0000
    97 H50      0.9308  16.5342   9.5623   H         1 RES1   0.0000
@<TRIPOS>BOND
     1     1     2    1
     2     2    30    1
     3     3    30    2
     4     4     1    1
     5     5    44    2
     6     6     1    1
     7     7     6    1
     8     8     6    1
     9     9    10    1
    10    11     9    1
    11    12     1    1
    12    13    12    1
    13    14    12    1
    14    15    16    1
    15    17    15    1
    16    18     1    1
    17    19    18    1
    18    20    18    1
    19    21    22    1
    20    23    21    1
    21    24     1    1
    22    25    24    1
    23    26    24    1
    24    27    28    1
    25    29    27    1
    26    30    31    1
    27    31    32    1
    28    32    33    1
    29    34    32    1
    30    35    32    1
    31    36    31    1
    32    37    36    1
    33    38    36    1
    34    39    36    1
    35    40    31    1
    36    41    40    1
    37    42    40    1
    38    43    40    1
    39    44     4    1
    40    45    44    1
    41    46    45    1
    42    47    46    1
    43    48    46    1
    44    49    46    1
    45    50    45    1
    46    51    50    1
    47    52    50    1
    48    53    50    1
    49    54    45    1
    50    55    54    1
    51    56    54    1
    52    57    54    1
    53    58     6    1
    54    59     9    1
    55    60    59   ar
    56    61    60    1
    57    62    60   ar
    58    63    62    1
    59    64    62   ar
    60    65    64    1
    61    66    58   ar
    62    67    66    1
    63    68    12    1
    64    69    15    1
    65    70    69   ar
    66    71    70    1
    67    72    70   ar
    68    73    72    1
    69    74    72   ar
    70    75    74    1
    71    76    68   ar
    72    77    76    1
    73    78    21    1
    74    79    78   ar
    75    80    79    1
    76    81    79   ar
    77    82    81    1
    78    83    81   ar
    79    84    83    1
    80    85    83   ar
    81    86    85    1
    82    87    18    1
    83    88    24    1
    84    89    27    1
    85    90    89   ar
    86    91    90    1
    87    92    90   ar
    88    93    92    1
    89    94    92   ar
    90    95    94    1
    91    96    88   ar
    92    97    96    1
    93    58    59   ar
    94    64    66   ar
    95    68    69   ar
    96    74    76   ar
    97    78    87   ar
    98    85    87   ar
    99    88    89   ar
   100    94    96   ar
@<TRIPOS>SUBSTRUCTURE
     1 RES1        1 GROUP             0 ****  ****    0  
@<TRIPOS>CRYSIN
    8.8940   17.9310   22.7720   90.0000   99.4550   90.0000    14     1
