@<TRIPOS>MOLECULE
QEZYUP
    77    78     1     0     0
SMALL
NO_CHARGES
****
Generated from the CSD

@<TRIPOS>ATOM
     1 Fe1     -1.0640   1.7709   4.5726   Fe        1 RES1   0.0000
     2 O1      -3.1222   3.7752   5.0564   O.2       1 RES1   0.0000
     3 N1      -1.7118   1.5118   2.7130   N.2       1 RES1   0.0000
     4 N2      -2.4810   0.3341   4.3332   N.2       1 RES1   0.0000
     5 C1      -2.6249   0.5855   3.0413   C.2       1 RES1   0.0000
     6 C2      -3.6282  -0.0017   2.0200   C.3       1 RES1   0.0000
     7 C3      -4.4382  -1.2183   2.4932   C.3       1 RES1   0.0000
     8 C4      -4.6669   1.0891   1.6966   C.3       1 RES1   0.0000
     9 C5      -2.8870  -0.4920   0.7526   C.3       1 RES1   0.0000
    10 C6      -3.2333  -0.5593   5.2056   C.3       1 RES1   0.0000
    11 C7      -4.3690   0.2046   5.8767   C.3       1 RES1   0.0000
    12 C8      -2.3199  -1.1934   6.2441   C.3       1 RES1   0.0000
    13 C9      -1.6424   2.3537   1.5205   C.3       1 RES1   0.0000
    14 C10     -2.0421   3.7973   1.8053   C.3       1 RES1   0.0000
    15 C11     -0.2426   2.2974   0.9103   C.3       1 RES1   0.0000
    16 C12     -2.3180   2.9889   4.8555   C.1       1 RES1   0.0000
    17 H1      -5.0254  -1.0021   3.2557   H         1 RES1   0.0000
    18 H2      -4.9915  -1.4990   1.7577   H         1 RES1   0.0000
    19 H3      -3.8488  -1.9711   2.6997   H         1 RES1   0.0000
    20 H4      -4.2822   1.8883   1.3626   H         1 RES1   0.0000
    21 H5      -5.1311   1.3086   2.5131   H         1 RES1   0.0000
    22 H6      -5.2971   0.7454   1.0389   H         1 RES1   0.0000
    23 H7      -2.3059   0.1574   0.3475   H         1 RES1   0.0000
    24 H8      -3.5157  -0.8530   0.1225   H         1 RES1   0.0000
    25 H9      -2.4055  -1.2589   0.9529   H         1 RES1   0.0000
    26 H10     -3.6017  -1.2589   4.6970   H         1 RES1   0.0000
    27 H11     -4.9697   0.5549   5.1817   H         1 RES1   0.0000
    28 H12     -4.8244  -0.3478   6.4638   H         1 RES1   0.0000
    29 H13     -3.9850   0.9193   6.4254   H         1 RES1   0.0000
    30 H14     -2.7879  -1.7889   6.7491   H         1 RES1   0.0000
    31 H15     -1.9717  -0.5797   6.8406   H         1 RES1   0.0000
    32 H16     -1.5997  -1.6233   5.8182   H         1 RES1   0.0000
    33 H17     -2.2587   2.0208   0.8468   H         1 RES1   0.0000
    34 H18     -1.4640   4.1907   2.4491   H         1 RES1   0.0000
    35 H19     -2.0375   4.2901   0.9822   H         1 RES1   0.0000
    36 H20     -2.9450   3.8760   2.2223   H         1 RES1   0.0000
    37 H21      0.0033   1.4162   0.6877   H         1 RES1   0.0000
    38 H22     -0.1824   2.8407   0.1116   H         1 RES1   0.0000
    39 H23      0.4038   2.6502   1.5382   H         1 RES1   0.0000
    40 N1B     -0.4162   1.5118   6.4322   N.2       1 RES1   0.0000
    41 C1B      0.4969   0.5855   6.1039   C.2       1 RES1   0.0000
    42 N2B      0.3530   0.3341   4.8120   N.2       1 RES1   0.0000
    43 C12B     0.1900   2.9889   4.2896   C.1       1 RES1   0.0000
    44 O1B      0.9942   3.7752   4.0888   O.2       1 RES1   0.0000
    45 C6B      1.1053  -0.5593   3.9396   C.3       1 RES1   0.0000
    46 C7B      2.2410   0.2046   3.2685   C.3       1 RES1   0.0000
    47 H11B     2.8417   0.5549   3.9635   H         1 RES1   0.0000
    48 H12B     2.6964  -0.3478   2.6814   H         1 RES1   0.0000
    49 H13B     1.8570   0.9193   2.7198   H         1 RES1   0.0000
    50 C8B      0.1919  -1.1934   2.9010   C.3       1 RES1   0.0000
    51 H14B     0.6599  -1.7889   2.3960   H         1 RES1   0.0000
    52 H15B    -0.1562  -0.5797   2.3046   H         1 RES1   0.0000
    53 H16B    -0.5283  -1.6233   3.3270   H         1 RES1   0.0000
    54 H10B     1.4737  -1.2589   4.4482   H         1 RES1   0.0000
    55 C2B      1.5003  -0.0017   7.1252   C.3       1 RES1   0.0000
    56 C3B      2.3102  -1.2183   6.6520   C.3       1 RES1   0.0000
    57 H1B      2.8974  -1.0021   5.8895   H         1 RES1   0.0000
    58 H2B      2.8635  -1.4990   7.3875   H         1 RES1   0.0000
    59 H3B      1.7208  -1.9711   6.4455   H         1 RES1   0.0000
    60 C4B      2.5389   1.0891   7.4486   C.3       1 RES1   0.0000
    61 H4B      2.1543   1.8883   7.7826   H         1 RES1   0.0000
    62 H5B      3.0031   1.3086   6.6321   H         1 RES1   0.0000
    63 H6B      3.1691   0.7454   8.1063   H         1 RES1   0.0000
    64 C5B      0.7590  -0.4920   8.3925   C.3       1 RES1   0.0000
    65 H7B      0.1779   0.1574   8.7977   H         1 RES1   0.0000
    66 H8B      1.3877  -0.8530   9.0226   H         1 RES1   0.0000
    67 H9B      0.2775  -1.2589   8.1923   H         1 RES1   0.0000
    68 C9B     -0.4856   2.3537   7.6247   C.3       1 RES1   0.0000
    69 C10B    -0.0859   3.7973   7.3399   C.3       1 RES1   0.0000
    70 H18B    -0.6640   4.1907   6.6961   H         1 RES1   0.0000
    71 H19B    -0.0905   4.2901   8.1630   H         1 RES1   0.0000
    72 H20B     0.8171   3.8760   6.9229   H         1 RES1   0.0000
    73 C11B    -1.8854   2.2974   8.2349   C.3       1 RES1   0.0000
    74 H21B    -2.1313   1.4162   8.4575   H         1 RES1   0.0000
    75 H22B    -1.9455   2.8407   9.0336   H         1 RES1   0.0000
    76 H23B    -2.5318   2.6502   7.6070   H         1 RES1   0.0000
    77 H17B     0.1307   2.0208   8.2983   H         1 RES1   0.0000
@<TRIPOS>BOND
     1     1     3    1
     2     2    16    3
     3     3     5   un
     4     4     1    1
     5     5     4   un
     6     6     5    1
     7     7     6    1
     8     8     6    1
     9     9     6    1
    10    10     4    1
    11    11    10    1
    12    12    10    1
    13    13     3    1
    14    14    13    1
    15    15    13    1
    16    16     1    1
    17    17     7    1
    18    18     7    1
    19    19     7    1
    20    20     8    1
    21    21     8    1
    22    22     8    1
    23    23     9    1
    24    24     9    1
    25    25     9    1
    26    26    10    1
    27    27    11    1
    28    28    11    1
    29    29    11    1
    30    30    12    1
    31    31    12    1
    32    32    12    1
    33    33    13    1
    34    34    14    1
    35    35    14    1
    36    36    14    1
    37    37    15    1
    38    38    15    1
    39    39    15    1
    40    40     1    1
    41    41    40   un
    42    42     1    1
    43    43     1    1
    44    44    43    3
    45    45    42    1
    46    46    45    1
    47    47    46    1
    48    48    46    1
    49    49    46    1
    50    50    45    1
    51    51    50    1
    52    52    50    1
    53    53    50    1
    54    54    45    1
    55    55    41    1
    56    56    55    1
    57    57    56    1
    58    58    56    1
    59    59    56    1
    60    60    55    1
    61    61    60    1
    62    62    60    1
    63    63    60    1
    64    64    55    1
    65    65    64    1
    66    66    64    1
    67    67    64    1
    68    68    40    1
    69    69    68    1
    70    70    69    1
    71    71    69    1
    72    72    69    1
    73    73    68    1
    74    74    73    1
    75    75    73    1
    76    76    73    1
    77    77    68    1
    78    41    42   un
@<TRIPOS>SUBSTRUCTURE
     1 RES1        1 GROUP             0 ****  ****    0  
@<TRIPOS>CRYSIN
   17.1950    8.2820   18.7790   90.0000  103.0990   90.0000    15     1
