@<TRIPOS>MOLECULE
QICHUH
    88    97     1     0     0
SMALL
NO_CHARGES
****
Generated from the CSD

@<TRIPOS>ATOM
     1 Fe1      2.8890   6.1801   1.8109   Fe        1 RES1   0.0000
     2 Cl1      8.2782  11.1790   1.3788   Cl        1 RES1   0.0000
     3 P1       3.9300   4.5611   0.6168   P.3       1 RES1   0.0000
     4 P2       2.2600   7.7355   3.3336   P.3       1 RES1   0.0000
     5 O1       2.7031   8.0715  -0.4048   O.2       1 RES1   0.0000
     6 O2       0.1983   5.3566   1.0344   O.2       1 RES1   0.0000
     7 O3       2.7956   4.8661   3.2650   O.3       1 RES1   0.0000
     8 N1       4.7340   6.5401   2.5462   N.2       1 RES1   0.0000
     9 C1       2.8419   7.3548   0.4729   C.1       1 RES1   0.0000
    10 C2       1.2442   5.6802   1.3439   C.1       1 RES1   0.0000
    11 C3       4.0606   4.6146   3.8096   C.3       1 RES1   0.0000
    12 H1       3.9293   4.2952   4.7489   H         1 RES1   0.0000
    13 C4       4.8760   3.5583   3.0731   C.ar      1 RES1   0.0000
    14 C5       4.9338   3.4752   1.6760   C.ar      1 RES1   0.0000
    15 C6       5.6910   2.4721   1.0746   C.ar      1 RES1   0.0000
    16 H2       5.7038   2.4005   0.1281   H         1 RES1   0.0000
    17 C7       6.4218   1.5823   1.8295   C.ar      1 RES1   0.0000
    18 H3       6.9456   0.9113   1.4069   H         1 RES1   0.0000
    19 C8       6.3874   1.6746   3.2113   C.ar      1 RES1   0.0000
    20 H4       6.8993   1.0735   3.7404   H         1 RES1   0.0000
    21 C9       5.6091   2.6410   3.8217   C.ar      1 RES1   0.0000
    22 H5       5.5747   2.6798   4.7702   H         1 RES1   0.0000
    23 C10      5.0462   5.2043  -0.6616   C.ar      1 RES1   0.0000
    24 C11      4.4762   5.8437  -1.7677   C.ar      1 RES1   0.0000
    25 H6       3.5367   5.8102  -1.9013   H         1 RES1   0.0000
    26 C12      5.2783   6.5246  -2.6691   C.ar      1 RES1   0.0000
    27 H7       4.8843   6.9648  -3.4131   H         1 RES1   0.0000
    28 C13      6.6434   6.5670  -2.4911   C.ar      1 RES1   0.0000
    29 H8       7.1872   7.0446  -3.1054   H         1 RES1   0.0000
    30 C14      7.2226   5.9151  -1.4167   C.ar      1 RES1   0.0000
    31 H9       8.1657   5.9273  -1.3073   H         1 RES1   0.0000
    32 C15      6.4311   5.2449  -0.5003   C.ar      1 RES1   0.0000
    33 H10      6.8339   4.8101   0.2419   H         1 RES1   0.0000
    34 C16      2.9135   3.2930  -0.2262   C.ar      1 RES1   0.0000
    35 C17      3.1253   2.8523  -1.5225   C.ar      1 RES1   0.0000
    36 H11      3.7872   3.2706  -2.0614   H         1 RES1   0.0000
    37 C18      2.3764   1.8025  -2.0397   C.ar      1 RES1   0.0000
    38 H12      2.5322   1.5008  -2.9276   H         1 RES1   0.0000
    39 C19      1.4106   1.1998  -1.2683   C.ar      1 RES1   0.0000
    40 H13      0.8912   0.4891  -1.6256   H         1 RES1   0.0000
    41 C20      1.1964   1.6299   0.0270   C.ar      1 RES1   0.0000
    42 H14      0.5323   1.2099   0.5603   H         1 RES1   0.0000
    43 C21      1.9425   2.6677   0.5526   C.ar      1 RES1   0.0000
    44 H15      1.7927   2.9553   1.4460   H         1 RES1   0.0000
    45 C22      5.6011   7.5876   2.2940   C.ar      1 RES1   0.0000
    46 C23      6.4573   8.1477   3.2764   C.ar      1 RES1   0.0000
    47 H16      6.4773   7.7680   4.1477   H         1 RES1   0.0000
    48 C24      7.2656   9.2398   2.9905   C.ar      1 RES1   0.0000
    49 H17      7.8122   9.6137   3.6728   H         1 RES1   0.0000
    50 C25      7.2805   9.7831   1.7322   C.ar      1 RES1   0.0000
    51 C26      6.5131   9.2277   0.7246   C.ar      1 RES1   0.0000
    52 H18      6.5465   9.5867  -0.1547   H         1 RES1   0.0000
    53 C27      5.6989   8.1509   1.0033   C.ar      1 RES1   0.0000
    54 H19      5.1830   7.7731   0.3006   H         1 RES1   0.0000
    55 C28      4.8394   5.9415   3.8724   C.3       1 RES1   0.0000
    56 H20      5.8015   5.7381   4.0552   H         1 RES1   0.0000
    57 C29      4.2903   6.7693   5.0256   C.ar      1 RES1   0.0000
    58 C30      3.1617   7.5722   4.9109   C.ar      1 RES1   0.0000
    59 C31      2.7355   8.3174   6.0163   C.ar      1 RES1   0.0000
    60 H21      1.9718   8.8775   5.9352   H         1 RES1   0.0000
    61 C32      3.4039   8.2537   7.2197   C.ar      1 RES1   0.0000
    62 H22      3.1233   8.7912   7.9521   H         1 RES1   0.0000
    63 C33      4.4793   7.4075   7.3545   C.ar      1 RES1   0.0000
    64 H23      4.9150   7.3213   8.1940   H         1 RES1   0.0000
    65 C34      4.9236   6.6861   6.2687   C.ar      1 RES1   0.0000
    66 H24      5.6786   6.1178   6.3674   H         1 RES1   0.0000
    67 C35      0.5115   7.7212   3.8754   C.ar      1 RES1   0.0000
    68 C36     -0.0908   6.4829   4.1009   C.ar      1 RES1   0.0000
    69 H25      0.3964   5.6841   3.9396   H         1 RES1   0.0000
    70 C37     -1.3927   6.4146   4.5568   C.ar      1 RES1   0.0000
    71 H26     -1.7998   5.5682   4.6991   H         1 RES1   0.0000
    72 C38     -2.1080   7.5746   4.8075   C.ar      1 RES1   0.0000
    73 H27     -3.0030   7.5234   5.1206   H         1 RES1   0.0000
    74 C39     -1.5198   8.8023   4.6011   C.ar      1 RES1   0.0000
    75 H28     -2.0068   9.5983   4.7826   H         1 RES1   0.0000
    76 C40     -0.2199   8.8781   4.1301   C.ar      1 RES1   0.0000
    77 H29      0.1774   9.7283   3.9787   H         1 RES1   0.0000
    78 C41      2.6035   9.4482   2.8141   C.ar      1 RES1   0.0000
    79 C42      3.7228  10.1285   3.2861   C.ar      1 RES1   0.0000
    80 H30      4.2478   9.7502   3.9823   H         1 RES1   0.0000
    81 C43      4.0763  11.3622   2.7424   C.ar      1 RES1   0.0000
    82 H31      4.8535  11.8096   3.0539   H         1 RES1   0.0000
    83 C44      3.3076  11.9341   1.7587   C.ar      1 RES1   0.0000
    84 H32      3.5495  12.7775   1.3944   H         1 RES1   0.0000
    85 C45      2.1782  11.2753   1.3002   C.ar      1 RES1   0.0000
    86 H33      1.6406  11.6757   0.6278   H         1 RES1   0.0000
    87 C46      1.8276  10.0395   1.8140   C.ar      1 RES1   0.0000
    88 H34      1.0564   9.5918   1.4851   H         1 RES1   0.0000
@<TRIPOS>BOND
     1     1     3    1
     2     2    50    1
     3     3    14    1
     4     4     1    1
     5     5     9    3
     6     6    10    3
     7     7     1    1
     8     8     1    1
     9     9     1    1
    10    10     1    1
    11    11     7    1
    12    12    11    1
    13    13    11    1
    14    14    13   ar
    15    15    14   ar
    16    16    15    1
    17    17    15   ar
    18    18    17    1
    19    19    17   ar
    20    20    19    1
    21    21    13   ar
    22    22    21    1
    23    23     3    1
    24    24    23   ar
    25    25    24    1
    26    26    24   ar
    27    27    26    1
    28    28    26   ar
    29    29    28    1
    30    30    28   ar
    31    31    30    1
    32    32    23   ar
    33    33    32    1
    34    34     3    1
    35    35    34   ar
    36    36    35    1
    37    37    35   ar
    38    38    37    1
    39    39    37   ar
    40    40    39    1
    41    41    39   ar
    42    42    41    1
    43    43    34   ar
    44    44    43    1
    45    45     8    1
    46    46    45   ar
    47    47    46    1
    48    48    46   ar
    49    49    48    1
    50    50    48   ar
    51    51    50   ar
    52    52    51    1
    53    53    45   ar
    54    54    53    1
    55    55     8    1
    56    56    55    1
    57    57    55    1
    58    58     4    1
    59    59    58   ar
    60    60    59    1
    61    61    59   ar
    62    62    61    1
    63    63    61   ar
    64    64    63    1
    65    65    57   ar
    66    66    65    1
    67    67     4    1
    68    68    67   ar
    69    69    68    1
    70    70    68   ar
    71    71    70    1
    72    72    70   ar
    73    73    72    1
    74    74    72   ar
    75    75    74    1
    76    76    67   ar
    77    77    76    1
    78    78     4    1
    79    79    78   ar
    80    80    79    1
    81    81    79   ar
    82    82    81    1
    83    83    81   ar
    84    84    83    1
    85    85    83   ar
    86    86    85    1
    87    87    78   ar
    88    88    87    1
    89    11    55    1
    90    19    21   ar
    91    30    32   ar
    92    41    43   ar
    93    51    53   ar
    94    57    58   ar
    95    63    65   ar
    96    74    76   ar
    97    85    87   ar
@<TRIPOS>SUBSTRUCTURE
     1 RES1        1 GROUP             0 ****  ****    0  
@<TRIPOS>CRYSIN
   16.6352   12.8715   17.8274   90.0000   93.9070   90.0000    14     1
