@<TRIPOS>MOLECULE
QIDKOE
    96   104     4     0     0
SMALL
USER_CHARGES
****
Generated from the CSD

@<TRIPOS>ATOM
     1 Fe1      2.9106  -0.0853   3.5685   Fe        1 RES1   2.0000
     2 N1       0.9242  -0.1801   3.4294   N.ar      1 RES1   0.0000
     3 N2       2.6898   1.0007   2.0245   N.ar      1 RES1   0.0000
     4 N3       4.7690   0.3814   3.1497   N.2       1 RES1   0.0000
     5 N4       5.9664   0.1427   3.6397   N.2       1 RES1   0.0000
     6 N5       6.7978   0.7791   2.8489   N.pl3     1 RES1   0.0000
     7 N6       2.7923   1.3481   4.9675   N.ar      1 RES1   0.0000
     8 N7       3.1264  -1.1820   5.1086   N.ar      1 RES1   0.0000
     9 N8       3.1523  -1.8860   2.7570   N.2       1 RES1   0.0000
    10 N9       3.2315  -2.4255   1.5549   N.2       1 RES1   0.0000
    11 N10      3.4911  -3.6997   1.7748   N.pl3     1 RES1   0.0000
    12 N11      3.5875  -4.0425   3.0600   N.2       1 RES1   0.0000
    13 N12      6.2210   1.4440   1.8459   N.2       1 RES1   0.0000
    14 C1       0.0162  -0.8060   4.1534   C.ar      1 RES1   0.0000
    15 H1       0.3032  -1.3148   4.8776   H         1 RES1   0.0000
    16 C2      -1.3538  -0.7474   3.8887   C.ar      1 RES1   0.0000
    17 H2      -1.9506  -1.2082   4.4322   H         1 RES1   0.0000
    18 C3      -1.8134  -0.0210   2.8437   C.ar      1 RES1   0.0000
    19 H3      -2.7252   0.0255   2.6631   H         1 RES1   0.0000
    20 C4      -0.8910   0.6604   2.0370   C.ar      1 RES1   0.0000
    21 C5      -1.2179   1.4469   0.8815   C.ar      1 RES1   0.0000
    22 H4      -2.1107   1.5429   0.6401   H         1 RES1   0.0000
    23 C6      -0.2773   2.0472   0.1386   C.ar      1 RES1   0.0000
    24 H5      -0.5346   2.5380  -0.6089   H         1 RES1   0.0000
    25 C7       1.1188   1.9512   0.4656   C.ar      1 RES1   0.0000
    26 C8       2.1971   2.5380  -0.2134   C.ar      1 RES1   0.0000
    27 H6       2.0381   3.0588  -0.9671   H         1 RES1   0.0000
    28 C9       3.4940   2.3489   0.2243   C.ar      1 RES1   0.0000
    29 H7       4.2097   2.7331  -0.2289   H         1 RES1   0.0000
    30 C10      3.7108   1.5624   1.3705   C.ar      1 RES1   0.0000
    31 C11      1.4205   1.1977   1.5972   C.ar      1 RES1   0.0000
    32 C12      0.4444   0.5463   2.3718   C.ar      1 RES1   0.0000
    33 C13      4.9470   1.1812   2.0711   C.2       1 RES1   0.0000
    34 C14      8.2283   0.8225   3.1490   C.3       1 RES1   0.0000
    35 H8       8.4058   0.2491   3.9105   H         1 RES1   0.0000
    36 H9       8.4684   1.7290   3.3997   H         1 RES1   0.0000
    37 C15      9.1001   0.3917   2.0059   C.3       1 RES1   0.0000
    38 H10      9.0666   1.0551   1.2988   H         1 RES1   0.0000
    39 H11      8.7796  -0.4503   1.6477   H         1 RES1   0.0000
    40 C16     10.5387   0.2296   2.4964   C.3       1 RES1   0.0000
    41 H12     10.8014   1.0491   2.9465   H         1 RES1   0.0000
    42 H13     10.5575  -0.4803   3.1567   H         1 RES1   0.0000
    43 C17     11.5765  -0.0825   1.4281   C.3       1 RES1   0.0000
    44 H14     12.3803  -0.4097   1.8595   H         1 RES1   0.0000
    45 H15     11.2350  -0.7925   0.8612   H         1 RES1   0.0000
    46 C18     11.9277   1.0716   0.5824   C.3       1 RES1   0.0000
    47 H16     12.5843   0.8045  -0.0670   H         1 RES1   0.0000
    48 H17     12.2894   1.7726   1.1306   H         1 RES1   0.0000
    49 H18     11.1431   1.3913   0.1308   H         1 RES1   0.0000
    50 C19      2.6883   2.6686   4.8870   C.ar      1 RES1   0.0000
    51 H19      2.6471   3.0618   4.0444   H         1 RES1   0.0000
    52 C20      2.6377   3.4911   6.0067   C.ar      1 RES1   0.0000
    53 H20      2.5434   4.4111   5.8992   H         1 RES1   0.0000
    54 C21      2.7241   2.9643   7.2635   C.ar      1 RES1   0.0000
    55 H21      2.7059   3.5211   8.0094   H         1 RES1   0.0000
    56 C22      2.8357   1.5714   7.4192   C.ar      1 RES1   0.0000
    57 C23      2.9543   0.8570   8.6682   C.ar      1 RES1   0.0000
    58 H22      2.9123   1.3328   9.4671   H         1 RES1   0.0000
    59 C24      3.1227  -0.4683   8.7102   C.ar      1 RES1   0.0000
    60 H23      3.1965  -0.8885   9.5372   H         1 RES1   0.0000
    61 C25      3.1923  -1.2668   7.5179   C.ar      1 RES1   0.0000
    62 C26      3.4013  -2.6536   7.4317   C.ar      1 RES1   0.0000
    63 H24      3.4867  -3.1579   8.2088   H         1 RES1   0.0000
    64 C27      3.4818  -3.2675   6.2060   C.ar      1 RES1   0.0000
    65 H25      3.6249  -4.1845   6.1468   H         1 RES1   0.0000
    66 C28      3.3449  -2.4960   5.0523   C.ar      1 RES1   0.0000
    67 C29      3.0619  -0.5763   6.3077   C.ar      1 RES1   0.0000
    68 C30      2.8822   0.8285   6.2320   C.ar      1 RES1   0.0000
    69 C31      3.3698  -2.8847   3.6538   C.2       1 RES1   0.0000
    70 C32      3.6727  -4.6648   0.6837   C.3       1 RES1   0.0000
    71 H26      4.5942  -4.9665   0.6712   H         1 RES1   0.0000
    72 H27      3.4879  -4.2310  -0.1635   H         1 RES1   0.0000
    73 C33      2.7464  -5.8730   0.8488   C.3       1 RES1   0.0000
    74 H28      2.7605  -6.1252   1.7847   H         1 RES1   0.0000
    75 H29      1.8450  -5.5788   0.6479   H         1 RES1   0.0000
    76 C34      2.9793  -6.9627   0.1370   C.3       1 RES1   0.0000
    77 H30      3.9379  -7.1038   0.1620   H         1 RES1   0.0000
    78 H31      2.7567  -6.7405  -0.7802   H         1 RES1   0.0000
    79 C35      2.3841  -8.2069   0.3940   C.3       1 RES1   0.0000
    80 H32      1.6274  -8.1979  -0.2040   H         1 RES1   0.0000
    81 H33      3.0226  -8.8178  -0.0187   H         1 RES1   0.0000
    82 C36      1.9575  -8.8913   1.3689   C.3       1 RES1   0.0000
    83 H34      1.5910  -9.7168   1.0419   H         1 RES1   0.0000
    84 H35      1.2739  -8.3975   1.8283   H         1 RES1   0.0000
    85 H36      2.6785  -9.0804   1.9747   H         1 RES1   0.0000
    86 Cl1      6.2203   4.2591   4.3118   Cl        2 RES2   0.0000
    87 O1       7.2141   4.2520   3.2866   O.3       2 RES2  -1.0000
    88 O2       6.7729   4.8794   5.4507   O.2       2 RES2   0.0000
    89 O3       5.1271   4.9770   3.8560   O.2       2 RES2   0.0000
    90 O4       5.8540   2.9250   4.6580   O.2       2 RES2   0.0000
    91 Cl2     -3.7283   3.0398   4.0790   Cl        3 RES3   0.0000
    92 O5      -3.8735   3.5136   2.8048   O.3       3 RES3  -1.0000
    93 O6      -4.2001   1.7215   4.1083   O.2       3 RES3   0.0000
    94 O7      -2.3997   3.0964   4.4260   O.2       3 RES3   0.0000
    95 O8      -4.3969   3.8753   4.9960   O.2       3 RES3   0.0000
    96 O9      -0.0013   4.1560   3.7127   O.3       4 RES4   0.0000
@<TRIPOS>BOND
     1     1     2    1
     2     2    14   ar
     3     3     1    1
     4     4     1    1
     5     5     4    2
     6     6     5    1
     7     7     1    1
     8     8     1    1
     9     9     1    1
    10    10     9    2
    11    11    10    1
    12    12    11    1
    13    13     6    1
    14    14    15    1
    15    16    14   ar
    16    17    16    1
    17    18    16   ar
    18    19    18    1
    19    20    18   ar
    20    21    20   ar
    21    22    21    1
    22    23    21   ar
    23    24    23    1
    24    25    23   ar
    25    26    25   ar
    26    27    26    1
    27    28    26   ar
    28    29    28    1
    29    30     3   ar
    30    31     3   ar
    31    32     2   ar
    32    33     4    1
    33    34     6    1
    34    35    34    1
    35    36    34    1
    36    37    34    1
    37    38    37    1
    38    39    37    1
    39    40    37    1
    40    41    40    1
    41    42    40    1
    42    43    40    1
    43    44    43    1
    44    45    43    1
    45    46    43    1
    46    47    46    1
    47    48    46    1
    48    49    46    1
    49    50     7   ar
    50    51    50    1
    51    52    50   ar
    52    53    52    1
    53    54    52   ar
    54    55    54    1
    55    56    54   ar
    56    57    56   ar
    57    58    57    1
    58    59    57   ar
    59    60    59    1
    60    61    59   ar
    61    62    61   ar
    62    63    62    1
    63    64    62   ar
    64    65    64    1
    65    66     8   ar
    66    67     8   ar
    67    68     7   ar
    68    69     9    1
    69    70    11    1
    70    71    70    1
    71    72    70    1
    72    73    70    1
    73    74    73    1
    74    75    73    1
    75    76    73    1
    76    77    76    1
    77    78    76    1
    78    79    76    1
    79    80    79    1
    80    81    79    1
    81    82    79    1
    82    83    82    1
    83    84    82    1
    84    85    82    1
    85    12    69    2
    86    13    33    2
    87    20    32   ar
    88    25    31   ar
    89    28    30   ar
    90    30    33    1
    91    31    32   ar
    92    56    68   ar
    93    61    67   ar
    94    64    66   ar
    95    66    69    1
    96    67    68   ar
    97    86    87    1
    98    88    86    2
    99    89    86    2
   100    90    86    2
   101    91    92    1
   102    93    91    2
   103    94    91    2
   104    95    91    2
@<TRIPOS>SUBSTRUCTURE
     1 RES1        1 GROUP             0 ****  ****    0  
     2 RES2       86 GROUP             0 ****  ****    0  
     3 RES3       91 GROUP             0 ****  ****    0  
     4 RES4       96 GROUP             0 ****  ****    0  
@<TRIPOS>CRYSIN
   17.5989   15.0090   17.5184   90.0000  117.2550   90.0000    14     1
