@<TRIPOS>MOLECULE
QIDKAQ
    78    86     4     0     0
SMALL
USER_CHARGES
****
Generated from the CSD

@<TRIPOS>ATOM
     1 Fe1     10.3834   8.6877   3.3978   Fe        1 RES1   2.0000
     2 N1       9.4477   7.2585   2.3603   N.ar      1 RES1   0.0000
     3 N2      11.4159   8.7784   1.7998   N.ar      1 RES1   0.0000
     4 N3      11.7092  10.0998   3.8489   N.2       1 RES1   0.0000
     5 N4      12.0002  10.8718   4.8814   N.2       1 RES1   0.0000
     6 N5      13.0034  11.6397   4.4256   N.pl3     1 RES1   0.0000
     7 N6      13.3657  11.4214   3.1744   N.2       1 RES1   0.0000
     8 N7      11.3802   7.2840   4.4262   N.ar      1 RES1   0.0000
     9 N8       9.3034   8.6608   4.9660   N.ar      1 RES1   0.0000
    10 N9       9.0158  10.0531   2.9715   N.2       1 RES1   0.0000
    11 N10      8.7106  10.8699   1.9698   N.2       1 RES1   0.0000
    12 N11      7.6623  11.5466   2.3999   N.pl3     1 RES1   0.0000
    13 N12      7.2456  11.2300   3.6225   N.2       1 RES1   0.0000
    14 C1       8.4569   6.4451   2.6969   C.ar      1 RES1   0.0000
    15 H1       8.1152   6.4819   3.5605   H         1 RES1   0.0000
    16 C2       7.9039   5.5198   1.7766   C.ar      1 RES1   0.0000
    17 H2       7.1965   4.9787   2.0422   H         1 RES1   0.0000
    18 C3       8.3836   5.4150   0.5356   C.ar      1 RES1   0.0000
    19 H3       8.0092   4.8091  -0.0624   H         1 RES1   0.0000
    20 C4       9.4666   6.2374   0.1393   C.ar      1 RES1   0.0000
    21 C5      10.1103   6.2331  -1.1351   C.ar      1 RES1   0.0000
    22 H4       9.7862   5.6690  -1.7998   H         1 RES1   0.0000
    23 C6      11.1760   7.0224  -1.4123   C.ar      1 RES1   0.0000
    24 H5      11.5729   6.9733  -2.2513   H         1 RES1   0.0000
    25 C7      11.7058   7.9286  -0.4427   C.ar      1 RES1   0.0000
    26 C8      12.8124   8.8149  -0.5748   C.ar      1 RES1   0.0000
    27 H6      13.3053   8.8178  -1.3644   H         1 RES1   0.0000
    28 C9      13.1566   9.6539   0.4325   C.ar      1 RES1   0.0000
    29 H7      13.8772  10.2339   0.3338   H         1 RES1   0.0000
    30 C10     12.4182   9.6389   1.6242   C.ar      1 RES1   0.0000
    31 C11     11.0501   7.9552   0.7824   C.ar      1 RES1   0.0000
    32 C12      9.9602   7.1275   1.0959   C.ar      1 RES1   0.0000
    33 C13     12.5435  10.4202   2.8348   C.2       1 RES1   0.0000
    34 C14     13.6627  12.6359   5.2660   C.3       1 RES1   0.0000
    35 H8      13.4904  13.5168   4.8973   H         1 RES1   0.0000
    36 H9      13.2698  12.6059   6.1514   H         1 RES1   0.0000
    37 C15     15.0730  12.4558   5.3836   C.3       1 RES1   0.0000
    38 H10     15.2599  11.5485   5.6318   H         1 RES1   0.0000
    39 H11     15.4152  13.0491   6.0571   H         1 RES1   0.0000
    40 H12     15.4922  12.6520   4.5432   H         1 RES1   0.0000
    41 C16     12.4906   6.6064   4.1455   C.ar      1 RES1   0.0000
    42 H13     12.9538   6.8086   3.3646   H         1 RES1   0.0000
    43 C17     12.9847   5.6042   4.9801   C.ar      1 RES1   0.0000
    44 H14     13.7574   5.1442   4.7435   H         1 RES1   0.0000
    45 C18     12.3446   5.2969   6.1354   C.ar      1 RES1   0.0000
    46 H15     12.6746   4.6222   6.6856   H         1 RES1   0.0000
    47 C19     11.1865   5.9958   6.5027   C.ar      1 RES1   0.0000
    48 C20     10.3809   5.8228   7.7045   C.ar      1 RES1   0.0000
    49 H16     10.6207   5.1537   8.3040   H         1 RES1   0.0000
    50 C21      9.3195   6.5749   7.9905   C.ar      1 RES1   0.0000
    51 H17      8.8539   6.4273   8.7830   H         1 RES1   0.0000
    52 C22      8.8786   7.6135   7.0934   C.ar      1 RES1   0.0000
    53 C23      7.8254   8.5033   7.2908   C.ar      1 RES1   0.0000
    54 H18      7.3388   8.4698   8.0833   H         1 RES1   0.0000
    55 C24      7.4958   9.4328   6.3314   C.ar      1 RES1   0.0000
    56 H19      6.7894  10.0228   6.4620   H         1 RES1   0.0000
    57 C25      8.2533   9.4679   5.1470   C.ar      1 RES1   0.0000
    58 C26      9.6169   7.7559   5.9163   C.ar      1 RES1   0.0000
    59 C27     10.7550   6.9805   5.6013   C.ar      1 RES1   0.0000
    60 C28      8.1090  10.2854   3.9597   C.2       1 RES1   0.0000
    61 C29      7.0130  12.5784   1.5720   C.3       1 RES1   0.0000
    62 H20      7.5472  12.7422   0.7794   H         1 RES1   0.0000
    63 H21      6.9579  13.4074   2.0742   H         1 RES1   0.0000
    64 C30      5.6369  12.1493   1.1670   C.3       1 RES1   0.0000
    65 H22      5.6934  11.3407   0.6517   H         1 RES1   0.0000
    66 H23      5.2305  12.8383   0.6358   H         1 RES1   0.0000
    67 H24      5.1062  11.9930   1.9508   H         1 RES1   0.0000
    68 Cl1      8.7192   3.3135   4.8224   Cl        2 RES2   0.0000
    69 O1       9.9014   4.0519   4.3356   O.3       2 RES2  -1.0000
    70 O2       8.4555   2.4345   3.7637   O.2       2 RES2   0.0000
    71 O3       9.0621   2.7049   5.9540   O.2       2 RES2   0.0000
    72 O4       7.7203   4.2616   5.0352   O.2       2 RES2   0.0000
    73 Cl2      5.1382   8.0850   2.7382   Cl        3 RES3   0.0000
    74 O5       4.3483   7.1533   2.0858   O.3       3 RES3  -1.0000
    75 O6       5.8844   7.4292   3.7202   O.2       3 RES3   0.0000
    76 O7       6.0505   8.6674   1.8347   O.2       3 RES3   0.0000
    77 O8       4.3139   9.0202   3.3921   O.2       3 RES3   0.0000
    78 O9       5.0814   4.3687   3.7536   O.3       4 RES4   0.0000
@<TRIPOS>BOND
     1     1     2    1
     2     2    14   ar
     3     3     1    1
     4     4     1    1
     5     5     4    2
     6     6     5    1
     7     7     6    1
     8     8     1    1
     9     9     1    1
    10    10     1    1
    11    11    10    2
    12    12    11    1
    13    13    12    1
    14    14    15    1
    15    16    14   ar
    16    17    16    1
    17    18    16   ar
    18    19    18    1
    19    20    18   ar
    20    21    20   ar
    21    22    21    1
    22    23    21   ar
    23    24    23    1
    24    25    23   ar
    25    26    25   ar
    26    27    26    1
    27    28    26   ar
    28    29    28    1
    29    30     3   ar
    30    31     3   ar
    31    32     2   ar
    32    33     4    1
    33    34     6    1
    34    35    34    1
    35    36    34    1
    36    37    34    1
    37    38    37    1
    38    39    37    1
    39    40    37    1
    40    41     8   ar
    41    42    41    1
    42    43    41   ar
    43    44    43    1
    44    45    43   ar
    45    46    45    1
    46    47    45   ar
    47    48    47   ar
    48    49    48    1
    49    50    48   ar
    50    51    50    1
    51    52    50   ar
    52    53    52   ar
    53    54    53    1
    54    55    53   ar
    55    56    55    1
    56    57     9   ar
    57    58     9   ar
    58    59     8   ar
    59    60    10    1
    60    61    12    1
    61    62    61    1
    62    63    61    1
    63    64    61    1
    64    65    64    1
    65    66    64    1
    66    67    64    1
    67     7    33    2
    68    13    60    2
    69    20    32   ar
    70    25    31   ar
    71    28    30   ar
    72    30    33    1
    73    31    32   ar
    74    47    59   ar
    75    52    58   ar
    76    55    57   ar
    77    57    60    1
    78    58    59   ar
    79    68    69    1
    80    70    68    2
    81    71    68    2
    82    72    68    2
    83    73    74    1
    84    75    73    2
    85    76    73    2
    86    77    73    2
@<TRIPOS>SUBSTRUCTURE
     1 RES1        1 GROUP             0 ****  ****    0  
     2 RES2       68 GROUP             0 ****  ****    0  
     3 RES3       73 GROUP             0 ****  ****    0  
     4 RES4       78 GROUP             0 ****  ****    0  
@<TRIPOS>CRYSIN
   10.7509   10.8452   15.0267   75.6480   84.1070   83.3020     2     1
