@<TRIPOS>MOLECULE
QIDKUK
    96   104     4     0     0
SMALL
USER_CHARGES
****
Generated from the CSD

@<TRIPOS>ATOM
     1 Fe1      2.9534   7.3835   3.5298   Fe        1 RES1   2.0000
     2 N1       2.8432   8.8191   4.9356   N.ar      1 RES1   0.0000
     3 N2       3.1662   6.2947   5.0779   N.ar      1 RES1   0.0000
     4 N3       3.1919   5.5817   2.7215   N.2       1 RES1   0.0000
     5 N4       3.2849   5.0444   1.5224   N.2       1 RES1   0.0000
     6 N5       3.5436   3.7702   1.7468   N.pl3     1 RES1   0.0000
     7 N6       3.6403   3.4309   3.0310   N.2       1 RES1   0.0000
     8 N7       0.9667   7.3053   3.3853   N.ar      1 RES1   0.0000
     9 N8       2.7398   8.4648   1.9928   N.ar      1 RES1   0.0000
    10 N9       4.8095   7.8441   3.1037   N.2       1 RES1   0.0000
    11 N10      5.9967   7.5851   3.6158   N.2       1 RES1   0.0000
    12 N11      6.8410   8.2311   2.8190   N.pl3     1 RES1   0.0000
    13 N12      6.2725   8.9218   1.8149   N.2       1 RES1   0.0000
    14 C1       2.7569  10.1453   4.8427   C.ar      1 RES1   0.0000
    15 H1       2.7226  10.5338   3.9980   H         1 RES1   0.0000
    16 C2       2.7161  10.9714   5.9660   C.ar      1 RES1   0.0000
    17 H2       2.6580  11.8942   5.8670   H         1 RES1   0.0000
    18 C3       2.7632  10.4147   7.2161   C.ar      1 RES1   0.0000
    19 H3       2.7155  10.9669   7.9634   H         1 RES1   0.0000
    20 C4       2.8829   9.0200   7.3941   C.ar      1 RES1   0.0000
    21 C5       2.9828   8.3219   8.6349   C.ar      1 RES1   0.0000
    22 H4       2.9357   8.7982   9.4317   H         1 RES1   0.0000
    23 C6       3.1434   6.9987   8.6705   C.ar      1 RES1   0.0000
    24 H5       3.2114   6.5745   9.4952   H         1 RES1   0.0000
    25 C7       3.2147   6.2143   7.4792   C.ar      1 RES1   0.0000
    26 C8       3.4222   4.8285   7.3848   C.ar      1 RES1   0.0000
    27 H6       3.5055   4.3210   8.1599   H         1 RES1   0.0000
    28 C9       3.5018   4.2138   6.1640   C.ar      1 RES1   0.0000
    29 H7       3.6392   3.2969   6.1052   H         1 RES1   0.0000
    30 C10      3.3750   4.9833   5.0083   C.ar      1 RES1   0.0000
    31 C11      3.0871   6.8871   6.2708   C.ar      1 RES1   0.0000
    32 C12      2.9231   8.2773   6.2043   C.ar      1 RES1   0.0000
    33 C13      3.4142   4.5829   3.6174   C.2       1 RES1   0.0000
    34 C14      3.7419   2.8072   0.6483   C.3       1 RES1   0.0000
    35 H8       4.6517   2.4753   0.6637   H         1 RES1   0.0000
    36 H9       3.5936   3.2478  -0.2027   H         1 RES1   0.0000
    37 C15      2.7375   1.6090   0.8061   C.3       1 RES1   0.0000
    38 H10      2.6659   1.4185   1.7545   H         1 RES1   0.0000
    39 H11      1.8684   1.9261   0.5168   H         1 RES1   0.0000
    40 C16      2.9388   0.5418   0.2398   C.3       1 RES1   0.0000
    41 H12      3.8823   0.3796   0.3976   H         1 RES1   0.0000
    42 H13      2.8749   0.7725  -0.7009   H         1 RES1   0.0000
    43 C17      2.3671  -0.7591   0.2940   C.3       1 RES1   0.0000
    44 H14      1.6212  -0.7666  -0.3249   H         1 RES1   0.0000
    45 H15      3.0294  -1.3724  -0.0681   H         1 RES1   0.0000
    46 C18      1.8984  -1.3515   1.4915   C.3       1 RES1   0.0000
    47 H16      1.5976  -2.2461   1.3136   H         1 RES1   0.0000
    48 H17      1.1651  -0.8335   1.8365   H         1 RES1   0.0000
    49 H18      2.6048  -1.3738   2.1382   H         1 RES1   0.0000
    50 C19      0.0644   6.6593   4.1032   C.ar      1 RES1   0.0000
    51 H19      0.3494   6.1265   4.8087   H         1 RES1   0.0000
    52 C20     -1.3034   6.7516   3.8371   C.ar      1 RES1   0.0000
    53 H20     -1.9045   6.2961   4.3801   H         1 RES1   0.0000
    54 C21     -1.7664   7.4809   2.8144   C.ar      1 RES1   0.0000
    55 H21     -2.6777   7.5420   2.6426   H         1 RES1   0.0000
    56 C22     -0.8449   8.1478   2.0160   C.ar      1 RES1   0.0000
    57 C23     -1.1584   8.9367   0.8541   C.ar      1 RES1   0.0000
    58 H22     -2.0524   9.0394   0.6189   H         1 RES1   0.0000
    59 C24     -0.2193   9.5350   0.0897   C.ar      1 RES1   0.0000
    60 H23     -0.4712  10.0158  -0.6653   H         1 RES1   0.0000
    61 C25      1.1616   9.4293   0.4425   C.ar      1 RES1   0.0000
    62 C26      2.2451   9.9979  -0.2553   C.ar      1 RES1   0.0000
    63 H24      2.0842  10.4995  -1.0212   H         1 RES1   0.0000
    64 C27      3.5469   9.8163   0.1841   C.ar      1 RES1   0.0000
    65 H25      4.2626  10.2048  -0.2661   H         1 RES1   0.0000
    66 C28      3.7568   9.0274   1.3337   C.ar      1 RES1   0.0000
    67 C29      1.4716   8.6628   1.5673   C.ar      1 RES1   0.0000
    68 C30      0.4909   8.0198   2.3363   C.ar      1 RES1   0.0000
    69 C31      4.9885   8.6479   2.0284   C.2       1 RES1   0.0000
    70 C32      8.2646   8.2654   3.1176   C.3       1 RES1   0.0000
    71 H26      8.4400   7.6774   3.8695   H         1 RES1   0.0000
    72 H27      8.5059   9.1659   3.3853   H         1 RES1   0.0000
    73 C33      9.1428   7.8486   1.9618   C.3       1 RES1   0.0000
    74 H28      9.0995   8.5169   1.2594   H         1 RES1   0.0000
    75 H29      8.8303   7.0046   1.5998   H         1 RES1   0.0000
    76 C34     10.5756   7.7027   2.4492   C.3       1 RES1   0.0000
    77 H30     10.8267   8.5258   2.8979   H         1 RES1   0.0000
    78 H31     10.5992   6.9942   3.1114   H         1 RES1   0.0000
    79 C35     11.6251   7.3991   1.4002   C.3       1 RES1   0.0000
    80 H32     12.4148   7.0523   1.8443   H         1 RES1   0.0000
    81 H33     11.2876   6.7010   0.8185   H         1 RES1   0.0000
    82 C36     12.0092   8.5124   0.5972   C.3       1 RES1   0.0000
    83 H34     12.6566   8.2296  -0.0511   H         1 RES1   0.0000
    84 H35     12.3900   9.1927   1.1573   H         1 RES1   0.0000
    85 H36     11.2369   8.8637   0.1470   H         1 RES1   0.0000
    86 B1       7.3943   4.2123   3.4193   B         2 RES2  -1.0000
    87 F1       8.4362   4.8598   3.8835   F         2 RES2   0.0000
    88 F2       6.4386   4.2332   4.4080   F         2 RES2   0.0000
    89 F3       6.9244   4.8256   2.3456   F         2 RES2   0.0000
    90 F4       7.7301   2.9367   3.0975   F         2 RES2   0.0000
    91 B2      -0.3111   3.0751   3.8510   B         3 RES3  -1.0000
    92 F5       0.4319   3.8328   2.8886   F         3 RES3   0.0000
    93 F6       0.0675   3.5916   4.9093   F         3 RES3   0.0000
    94 F7      -1.4386   3.1987   3.4147   F         3 RES3   0.0000
    95 F8       0.1330   1.8144   3.7458   F         3 RES3   0.0000
    96 O1      13.8614   3.8209   3.7535   O.3       4 RES4   0.0000
@<TRIPOS>BOND
     1     1     2    1
     2     2    14   ar
     3     3     1    1
     4     4     1    1
     5     5     4    2
     6     6     5    1
     7     7     6    1
     8     8     1    1
     9     9     1    1
    10    10     1    1
    11    11    10    2
    12    12    11    1
    13    13    12    1
    14    14    15    1
    15    16    14   ar
    16    17    16    1
    17    18    16   ar
    18    19    18    1
    19    20    18   ar
    20    21    20   ar
    21    22    21    1
    22    23    21   ar
    23    24    23    1
    24    25    23   ar
    25    26    25   ar
    26    27    26    1
    27    28    26   ar
    28    29    28    1
    29    30     3   ar
    30    31     3   ar
    31    32     2   ar
    32    33     4    1
    33    34     6    1
    34    35    34    1
    35    36    34    1
    36    37    34    1
    37    38    37    1
    38    39    37    1
    39    40    37    1
    40    41    40    1
    41    42    40    1
    42    43    40    1
    43    44    43    1
    44    45    43    1
    45    46    43    1
    46    47    46    1
    47    48    46    1
    48    49    46    1
    49    50     8   ar
    50    51    50    1
    51    52    50   ar
    52    53    52    1
    53    54    52   ar
    54    55    54    1
    55    56    54   ar
    56    57    56   ar
    57    58    57    1
    58    59    57   ar
    59    60    59    1
    60    61    59   ar
    61    62    61   ar
    62    63    62    1
    63    64    62   ar
    64    65    64    1
    65    66     9   ar
    66    67     9   ar
    67    68     8   ar
    68    69    10    1
    69    70    12    1
    70    71    70    1
    71    72    70    1
    72    73    70    1
    73    74    73    1
    74    75    73    1
    75    76    73    1
    76    77    76    1
    77    78    76    1
    78    79    76    1
    79    80    79    1
    80    81    79    1
    81    82    79    1
    82    83    82    1
    83    84    82    1
    84    85    82    1
    85     7    33    2
    86    13    69    2
    87    20    32   ar
    88    25    31   ar
    89    28    30   ar
    90    30    33    1
    91    31    32   ar
    92    56    68   ar
    93    61    67   ar
    94    64    66   ar
    95    66    69    1
    96    67    68   ar
    97    86    87    1
    98    88    86    1
    99    89    86    1
   100    90    86    1
   101    91    92    1
   102    93    91    1
   103    94    91    1
   104    95    91    1
@<TRIPOS>SUBSTRUCTURE
     1 RES1        1 GROUP             0 ****  ****    0  
     2 RES2       86 GROUP             0 ****  ****    0  
     3 RES3       91 GROUP             0 ****  ****    0  
     4 RES4       96 GROUP             0 ****  ****    0  
@<TRIPOS>CRYSIN
   17.7559   14.8845   17.4731   90.0000  117.6900   90.0000    14     1
