@<TRIPOS>MOLECULE
QIDLOF
   102   112     2     0     0
SMALL
USER_CHARGES
****
Generated from the CSD

@<TRIPOS>ATOM
     1 Fe1      9.0488   6.8377   3.7694   Fe        1 RES1   2.0000
     2 N1      10.3977   5.4492   3.2839   N.ar      1 RES1   0.0000
     3 N2       8.8106   6.8755   1.8847   N.ar      1 RES1   0.0000
     4 N3       7.7103   8.2501   3.5779   N.2       1 RES1   0.0000
     5 N4       7.0905   9.1067   4.3740   N.2       1 RES1   0.0000
     6 N5       6.4638   9.9263   3.5433   N.pl3     1 RES1   0.0000
     7 N6       6.6205   9.6654   2.2390   N.2       1 RES1   0.0000
     8 C1      11.2695   4.7576   4.0122   C.ar      1 RES1   0.0000
     9 H1      11.2721   4.8844   4.9334   H         1 RES1   0.0000
    10 C2      12.1672   3.8642   3.4709   C.ar      1 RES1   0.0000
    11 H2      12.7602   3.4101   4.0272   H         1 RES1   0.0000
    12 C3      12.1973   3.6390   2.1169   C.ar      1 RES1   0.0000
    13 H3      12.7946   3.0310   1.7490   H         1 RES1   0.0000
    14 C4      11.3051   4.3454   1.3057   C.ar      1 RES1   0.0000
    15 C5      11.2333   4.2641  -0.1387   C.ar      1 RES1   0.0000
    16 H4      11.7918   3.6673  -0.5805   H         1 RES1   0.0000
    17 C6      10.3859   5.0222  -0.8715   C.ar      1 RES1   0.0000
    18 H5      10.3678   4.9361  -1.7973   H         1 RES1   0.0000
    19 C7       9.5140   5.9624  -0.2186   C.ar      1 RES1   0.0000
    20 C8       8.6465   6.8780  -0.8609   C.ar      1 RES1   0.0000
    21 H6       8.5743   6.8694  -1.7867   H         1 RES1   0.0000
    22 C9       7.9040   7.7813  -0.1297   C.ar      1 RES1   0.0000
    23 H7       7.3507   8.3929  -0.5579   H         1 RES1   0.0000
    24 C10      8.0036   7.7616   1.2695   C.ar      1 RES1   0.0000
    25 C11      9.5510   6.0190   1.1565   C.ar      1 RES1   0.0000
    26 C12     10.4290   5.2277   1.9284   C.ar      1 RES1   0.0000
    27 C13      7.3961   8.5910   2.2978   C.2       1 RES1   0.0000
    28 C14      5.6565  11.0621   4.0468   C.3       1 RES1   0.0000
    29 H8       5.3518  11.5876   3.2915   H         1 RES1   0.0000
    30 H9       4.8718  10.7114   4.4992   H         1 RES1   0.0000
    31 C15      6.3562  11.9051   4.9364   C.3       1 RES1   0.0000
    32 H10      6.0082  12.7813   4.7073   H         1 RES1   0.0000
    33 H11      5.9469  11.6910   5.7898   H         1 RES1   0.0000
    34 C16      7.5497  12.1672   5.2681   C.3       1 RES1   0.0000
    35 H12      7.9621  12.4195   4.4268   H         1 RES1   0.0000
    36 H13      7.9178  11.2947   5.4792   H         1 RES1   0.0000
    37 C17      8.1754  13.0090   6.1954   C.3       1 RES1   0.0000
    38 H14      7.9145  13.9061   5.9331   H         1 RES1   0.0000
    39 H15      7.7204  12.8367   7.0337   H         1 RES1   0.0000
    40 C18      9.4219  13.1074   6.5120   C.3       1 RES1   0.0000
    41 H16      9.9112  13.0287   5.6783   H         1 RES1   0.0000
    42 H17      9.6255  12.3075   7.0217   H         1 RES1   0.0000
    43 C19     10.1591  14.3861   7.3428   C.3       1 RES1   0.0000
    44 H18     10.2393  15.1921   6.8242   H         1 RES1   0.0000
    45 H19      9.7411  14.5682   8.2083   H         1 RES1   0.0000
    46 C20     11.3065  13.6723   7.4469   C.3       1 RES1   0.0000
    47 H20     11.9473  14.1756   7.9595   H         1 RES1   0.0000
    48 H21     11.6590  13.5148   6.5678   H         1 RES1   0.0000
    49 H22     11.1340  12.8367   7.8811   H         1 RES1   0.0000
    50 N1B      7.6999   5.4492   4.2549   N.ar      1 RES1   0.0000
    51 N2B      9.2870   6.8755   5.6541   N.ar      1 RES1   0.0000
    52 N3B     10.3874   8.2501   3.9609   N.2       1 RES1   0.0000
    53 N4B     11.0071   9.1067   3.1648   N.2       1 RES1   0.0000
    54 N5B     11.6338   9.9263   3.9956   N.pl3     1 RES1   0.0000
    55 N6B     11.4772   9.6654   5.2998   N.2       1 RES1   0.0000
    56 C1B      6.8282   4.7576   3.5267   C.ar      1 RES1   0.0000
    57 H1B      6.8256   4.8844   2.6054   H         1 RES1   0.0000
    58 C2B      5.9304   3.8642   4.0680   C.ar      1 RES1   0.0000
    59 H2B      5.3374   3.4101   3.5116   H         1 RES1   0.0000
    60 C3B      5.9003   3.6390   5.4219   C.ar      1 RES1   0.0000
    61 H3B      5.3030   3.0310   5.7898   H         1 RES1   0.0000
    62 C4B      6.7925   4.3454   6.2331   C.ar      1 RES1   0.0000
    63 C5B      6.8644   4.2641   7.6776   C.ar      1 RES1   0.0000
    64 H4B      6.3058   3.6673   8.1193   H         1 RES1   0.0000
    65 C6B      7.7117   5.0222   8.4103   C.ar      1 RES1   0.0000
    66 H5B      7.7299   4.9361   9.3361   H         1 RES1   0.0000
    67 C7B      8.5837   5.9624   7.7575   C.ar      1 RES1   0.0000
    68 C8B      9.4512   6.8780   8.3998   C.ar      1 RES1   0.0000
    69 H6B      9.5234   6.8694   9.3255   H         1 RES1   0.0000
    70 C9B     10.1936   7.7813   7.6685   C.ar      1 RES1   0.0000
    71 H7B     10.7469   8.3929   8.0967   H         1 RES1   0.0000
    72 C10B    10.0940   7.7616   6.2693   C.ar      1 RES1   0.0000
    73 C11B     8.5467   6.0190   6.3824   C.ar      1 RES1   0.0000
    74 C12B     7.6687   5.2277   5.6104   C.ar      1 RES1   0.0000
    75 C13B    10.7016   8.5910   5.2410   C.2       1 RES1   0.0000
    76 C14B    12.4411  11.0621   3.4920   C.3       1 RES1   0.0000
    77 H8B     12.7459  11.5876   4.2474   H         1 RES1   0.0000
    78 H9B     13.2258  10.7114   3.0397   H         1 RES1   0.0000
    79 C15B    11.7414  11.9051   2.6024   C.3       1 RES1   0.0000
    80 H10B    12.0895  12.7813   2.8316   H         1 RES1   0.0000
    81 H11B    12.1507  11.6910   1.7490   H         1 RES1   0.0000
    82 C16B    10.5480  12.1672   2.2707   C.3       1 RES1   0.0000
    83 H12B    10.1355  12.4195   3.1120   H         1 RES1   0.0000
    84 H13B    10.1799  11.2947   2.0596   H         1 RES1   0.0000
    85 C17B     9.9222  13.0090   1.3434   C.3       1 RES1   0.0000
    86 H14B    10.1831  13.9061   1.6058   H         1 RES1   0.0000
    87 H15B    10.3772  12.8367   0.5051   H         1 RES1   0.0000
    88 C18B     8.6757  13.1074   1.0268   C.3       1 RES1   0.0000
    89 H16B     8.1864  13.0287   1.8606   H         1 RES1   0.0000
    90 H17B     8.4722  12.3075   0.5172   H         1 RES1   0.0000
    91 C19B     7.9386  14.3861   0.1960   C.3       1 RES1   0.0000
    92 H18B     7.8583  15.1921   0.7147   H         1 RES1   0.0000
    93 H19B     8.3565  14.5682  -0.6694   H         1 RES1   0.0000
    94 C20B     6.7911  13.6723   0.0920   C.3       1 RES1   0.0000
    95 H20B     6.1503  14.1756  -0.4207   H         1 RES1   0.0000
    96 H21B     6.4386  13.5148   0.9710   H         1 RES1   0.0000
    97 H22B     6.9636  12.8367  -0.3423   H         1 RES1   0.0000
    98 B1      14.5372   7.6114   4.4826   B         2 RES2  -1.0000
    99 F1      15.1019   7.6779   5.6918   F         2 RES2   0.0000
   100 F2      13.2982   7.1795   4.4178   F         2 RES2   0.0000
   101 F3      14.4240   8.8962   4.2142   F         2 RES2   0.0000
   102 F4      15.3116   7.0810   3.7362   F         2 RES2   0.0000
@<TRIPOS>BOND
     1     1     2    1
     2     2     8   ar
     3     3     1    1
     4     4     1    1
     5     5     4    2
     6     6     5    1
     7     7     6    1
     8     8     9    1
     9    10     8   ar
    10    11    10    1
    11    12    10   ar
    12    13    12    1
    13    14    12   ar
    14    15    14   ar
    15    16    15    1
    16    17    15   ar
    17    18    17    1
    18    19    17   ar
    19    20    19   ar
    20    21    20    1
    21    22    20   ar
    22    23    22    1
    23    24     3   ar
    24    25     3   ar
    25    26     2   ar
    26    27     4    1
    27    28     6    1
    28    29    28    1
    29    30    28    1
    30    31    28    1
    31    32    31    1
    32    33    31    1
    33    34    31    1
    34    35    34    1
    35    36    34    1
    36    37    34    1
    37    38    37    1
    38    39    37    1
    39    40    37    1
    40    41    40    1
    41    42    40    1
    42    43    40    1
    43    44    43    1
    44    45    43    1
    45    46    43    1
    46    47    46    1
    47    48    46    1
    48    49    46    1
    49    50     1    1
    50    51     1    1
    51    52     1    1
    52    53    52    2
    53    54    53    1
    54    55    54    1
    55    56    50   ar
    56    57    56    1
    57    58    56   ar
    58    59    58    1
    59    60    58   ar
    60    61    60    1
    61    62    60   ar
    62    63    62   ar
    63    64    63    1
    64    65    63   ar
    65    66    65    1
    66    67    65   ar
    67    68    67   ar
    68    69    68    1
    69    70    68   ar
    70    71    70    1
    71    72    51   ar
    72    73    51   ar
    73    74    50   ar
    74    75    52    1
    75    76    54    1
    76    77    76    1
    77    78    76    1
    78    79    76    1
    79    80    79    1
    80    81    79    1
    81    82    79    1
    82    83    82    1
    83    84    82    1
    84    85    82    1
    85    86    85    1
    86    87    85    1
    87    88    85    1
    88    89    88    1
    89    90    88    1
    90    91    88    1
    91    92    91    1
    92    93    91    1
    93    94    91    1
    94    95    94    1
    95    96    94    1
    96    97    94    1
    97     7    27    2
    98    14    26   ar
    99    19    25   ar
   100    22    24   ar
   101    24    27    1
   102    25    26   ar
   103    55    75    2
   104    62    74   ar
   105    67    73   ar
   106    70    72   ar
   107    72    75    1
   108    73    74   ar
   109    98    99    1
   110   100    98    1
   111   101    98    1
   112   102    98    1
@<TRIPOS>SUBSTRUCTURE
     1 RES1        1 GROUP             0 ****  ****    0  
     2 RES2       98 GROUP             0 ****  ****    0  
@<TRIPOS>CRYSIN
   23.4991   12.3063   18.5483   90.0000  125.6210   90.0000    15     1
