@<TRIPOS>MOLECULE
QIDLIZ
   102   112     2     0     0
SMALL
USER_CHARGES
****
Generated from the CSD

@<TRIPOS>ATOM
     1 Fe1      9.1363   6.9241   3.7706   Fe        1 RES1   2.0000
     2 N1      10.4755   5.5270   3.2880   N.ar      1 RES1   0.0000
     3 N2       8.8944   6.9587   1.8868   N.ar      1 RES1   0.0000
     4 N3       7.7925   8.3432   3.5791   N.2       1 RES1   0.0000
     5 N4       7.1880   9.2080   4.3679   N.2       1 RES1   0.0000
     6 N5       6.5795  10.0355   3.5414   N.pl3     1 RES1   0.0000
     7 N6       6.7209   9.7588   2.2473   N.2       1 RES1   0.0000
     8 C1      11.3438   4.8360   4.0270   C.ar      1 RES1   0.0000
     9 H1      11.3502   4.9638   4.9486   H         1 RES1   0.0000
    10 C2      12.2473   3.9216   3.4614   C.ar      1 RES1   0.0000
    11 H2      12.8354   3.4564   4.0104   H         1 RES1   0.0000
    12 C3      12.2685   3.7120   2.1236   C.ar      1 RES1   0.0000
    13 H3      12.8695   3.1041   1.7571   H         1 RES1   0.0000
    14 C4      11.3833   4.4179   1.2896   C.ar      1 RES1   0.0000
    15 C5      11.3100   4.3472  -0.1342   C.ar      1 RES1   0.0000
    16 H4      11.8669   3.7479  -0.5777   H         1 RES1   0.0000
    17 C6      10.4705   5.1126  -0.8672   C.ar      1 RES1   0.0000
    18 H5      10.4661   5.0295  -1.7948   H         1 RES1   0.0000
    19 C7       9.5881   6.0493  -0.2323   C.ar      1 RES1   0.0000
    20 C8       8.7255   6.9686  -0.8642   C.ar      1 RES1   0.0000
    21 H6       8.6547   6.9736  -1.7918   H         1 RES1   0.0000
    22 C9       7.9948   7.8557  -0.1207   C.ar      1 RES1   0.0000
    23 H7       7.4305   8.4648  -0.5415   H         1 RES1   0.0000
    24 C10      8.0968   7.8433   1.2700   C.ar      1 RES1   0.0000
    25 C11      9.6403   6.1051   1.1583   C.ar      1 RES1   0.0000
    26 C12     10.5132   5.3087   1.9306   C.ar      1 RES1   0.0000
    27 C13      7.4863   8.6832   2.2941   C.2       1 RES1   0.0000
    28 C14      5.7712  11.1619   4.0572   C.3       1 RES1   0.0000
    29 H8       5.4464  11.6843   3.3076   H         1 RES1   0.0000
    30 H9       5.0014  10.8071   4.5263   H         1 RES1   0.0000
    31 C15      6.4961  12.0242   4.9425   C.3       1 RES1   0.0000
    32 H10      6.1409  12.8963   4.7118   H         1 RES1   0.0000
    33 H11      6.0977  11.8133   5.8007   H         1 RES1   0.0000
    34 C16      7.6645  12.2984   5.2623   C.3       1 RES1   0.0000
    35 H12      8.0704  12.5155   4.4101   H         1 RES1   0.0000
    36 H13      8.0261  11.4312   5.5006   H         1 RES1   0.0000
    37 C17      8.3224  13.1519   6.1386   C.3       1 RES1   0.0000
    38 H14      8.0701  14.0377   5.8309   H         1 RES1   0.0000
    39 H15      7.8540  13.0291   6.9787   H         1 RES1   0.0000
    40 C18      9.4930  13.2847   6.4749   C.3       1 RES1   0.0000
    41 H16      9.9919  13.1867   5.6484   H         1 RES1   0.0000
    42 H17      9.6829  12.4845   6.9908   H         1 RES1   0.0000
    43 C19     10.2433  14.4161   7.2396   C.3       1 RES1   0.0000
    44 H18     10.2854  15.2238   6.7012   H         1 RES1   0.0000
    45 H19      9.7887  14.6258   8.0737   H         1 RES1   0.0000
    46 C20     11.3890  13.9695   7.4659   C.3       1 RES1   0.0000
    47 H20     11.8942  14.6221   7.9621   H         1 RES1   0.0000
    48 H21     11.8338  13.7995   6.6288   H         1 RES1   0.0000
    49 H22     11.3290  13.1594   7.9666   H         1 RES1   0.0000
    50 N1B      7.7970   5.5270   4.2533   N.ar      1 RES1   0.0000
    51 N2B      9.3782   6.9587   5.6544   N.ar      1 RES1   0.0000
    52 N3B     10.4801   8.3432   3.9622   N.2       1 RES1   0.0000
    53 N4B     11.0846   9.2080   3.1734   N.2       1 RES1   0.0000
    54 N5B     11.6930  10.0355   3.9999   N.pl3     1 RES1   0.0000
    55 N6B     11.5517   9.7588   5.2940   N.2       1 RES1   0.0000
    56 C1B      6.9287   4.8360   3.5142   C.ar      1 RES1   0.0000
    57 H1B      6.9223   4.9638   2.5927   H         1 RES1   0.0000
    58 C2B      6.0252   3.9216   4.0798   C.ar      1 RES1   0.0000
    59 H2B      5.4372   3.4564   3.5308   H         1 RES1   0.0000
    60 C3B      6.0041   3.7120   5.4176   C.ar      1 RES1   0.0000
    61 H3B      5.4030   3.1041   5.7842   H         1 RES1   0.0000
    62 C4B      6.8892   4.4179   6.2517   C.ar      1 RES1   0.0000
    63 C5B      6.9626   4.3472   7.6755   C.ar      1 RES1   0.0000
    64 H4B      6.4057   3.7479   8.1189   H         1 RES1   0.0000
    65 C6B      7.8021   5.1126   8.4085   C.ar      1 RES1   0.0000
    66 H5B      7.8065   5.0295   9.3361   H         1 RES1   0.0000
    67 C7B      8.6845   6.0493   7.7735   C.ar      1 RES1   0.0000
    68 C8B      9.5470   6.9686   8.4055   C.ar      1 RES1   0.0000
    69 H6B      9.6179   6.9736   9.3331   H         1 RES1   0.0000
    70 C9B     10.2778   7.8557   7.6619   C.ar      1 RES1   0.0000
    71 H7B     10.8421   8.4648   8.0827   H         1 RES1   0.0000
    72 C10B    10.1757   7.8433   6.2713   C.ar      1 RES1   0.0000
    73 C11B     8.6322   6.1051   6.3829   C.ar      1 RES1   0.0000
    74 C12B     7.7594   5.3087   5.6107   C.ar      1 RES1   0.0000
    75 C13B    10.7863   8.6832   5.2472   C.2       1 RES1   0.0000
    76 C14B    12.5013  11.1619   3.4841   C.3       1 RES1   0.0000
    77 H8B     12.8262  11.6843   4.2337   H         1 RES1   0.0000
    78 H9B     13.2712  10.8071   3.0150   H         1 RES1   0.0000
    79 C15B    11.7765  12.0242   2.5987   C.3       1 RES1   0.0000
    80 H10B    12.1317  12.8963   2.8295   H         1 RES1   0.0000
    81 H11B    12.1749  11.8133   1.7405   H         1 RES1   0.0000
    82 C16B    10.6081  12.2984   2.2790   C.3       1 RES1   0.0000
    83 H12B    10.2021  12.5155   3.1311   H         1 RES1   0.0000
    84 H13B    10.2464  11.4312   2.0407   H         1 RES1   0.0000
    85 C17B     9.9502  13.1519   1.4027   C.3       1 RES1   0.0000
    86 H14B    10.2025  14.0377   1.7104   H         1 RES1   0.0000
    87 H15B    10.4186  13.0291   0.5626   H         1 RES1   0.0000
    88 C18B     8.7796  13.2847   1.0663   C.3       1 RES1   0.0000
    89 H16B     8.2807  13.1867   1.8929   H         1 RES1   0.0000
    90 H17B     8.5896  12.4845   0.5505   H         1 RES1   0.0000
    91 C19B     8.0293  14.4161   0.3017   C.3       1 RES1   0.0000
    92 H18B     7.9872  15.2238   0.8401   H         1 RES1   0.0000
    93 H19B     8.4838  14.6258  -0.5324   H         1 RES1   0.0000
    94 C20B     6.8836  13.9695   0.0754   C.3       1 RES1   0.0000
    95 H20B     6.3784  14.6221  -0.4208   H         1 RES1   0.0000
    96 H21B     6.4387  13.7995   0.9125   H         1 RES1   0.0000
    97 H22B     6.9436  13.1594  -0.4253   H         1 RES1   0.0000
    98 Cl1     14.6638   7.6645   4.6003   Cl        2 RES2   0.0000
    99 O1      15.2925   7.6993   5.8113   O.3       2 RES2  -1.0000
   100 O2      13.4096   7.2105   4.4735   O.2       2 RES2   0.0000
   101 O3      14.5339   9.0417   4.2593   O.2       2 RES2   0.0000
   102 O4      15.4357   7.0641   3.7782   O.2       2 RES2   0.0000
@<TRIPOS>BOND
     1     1     2    1
     2     2     8   ar
     3     3     1    1
     4     4     1    1
     5     5     4    2
     6     6     5    1
     7     7     6    1
     8     8     9    1
     9    10     8   ar
    10    11    10    1
    11    12    10   ar
    12    13    12    1
    13    14    12   ar
    14    15    14   ar
    15    16    15    1
    16    17    15   ar
    17    18    17    1
    18    19    17   ar
    19    20    19   ar
    20    21    20    1
    21    22    20   ar
    22    23    22    1
    23    24     3   ar
    24    25     3   ar
    25    26     2   ar
    26    27     4    1
    27    28     6    1
    28    29    28    1
    29    30    28    1
    30    31    28    1
    31    32    31    1
    32    33    31    1
    33    34    31    1
    34    35    34    1
    35    36    34    1
    36    37    34    1
    37    38    37    1
    38    39    37    1
    39    40    37    1
    40    41    40    1
    41    42    40    1
    42    43    40    1
    43    44    43    1
    44    45    43    1
    45    46    43    1
    46    47    46    1
    47    48    46    1
    48    49    46    1
    49    50     1    1
    50    51     1    1
    51    52     1    1
    52    53    52    2
    53    54    53    1
    54    55    54    1
    55    56    50   ar
    56    57    56    1
    57    58    56   ar
    58    59    58    1
    59    60    58   ar
    60    61    60    1
    61    62    60   ar
    62    63    62   ar
    63    64    63    1
    64    65    63   ar
    65    66    65    1
    66    67    65   ar
    67    68    67   ar
    68    69    68    1
    69    70    68   ar
    70    71    70    1
    71    72    51   ar
    72    73    51   ar
    73    74    50   ar
    74    75    52    1
    75    76    54    1
    76    77    76    1
    77    78    76    1
    78    79    76    1
    79    80    79    1
    80    81    79    1
    81    82    79    1
    82    83    82    1
    83    84    82    1
    84    85    82    1
    85    86    85    1
    86    87    85    1
    87    88    85    1
    88    89    88    1
    89    90    88    1
    90    91    88    1
    91    92    91    1
    92    93    91    1
    93    94    91    1
    94    95    94    1
    95    96    94    1
    96    97    94    1
    97     7    27    2
    98    14    26   ar
    99    19    25   ar
   100    22    24   ar
   101    24    27    1
   102    25    26   ar
   103    55    75    2
   104    62    74   ar
   105    67    73   ar
   106    70    72   ar
   107    72    75    1
   108    73    74   ar
   109    98    99    1
   110   100    98    2
   111   101    98    2
   112   102    98    2
@<TRIPOS>SUBSTRUCTURE
     1 RES1        1 GROUP             0 ****  ****    0  
     2 RES2       98 GROUP             0 ****  ****    0  
@<TRIPOS>CRYSIN
   23.7115   12.4063   18.5960   90.0000  125.8000   90.0000    15     1
