@<TRIPOS>MOLECULE
QIGTOR
   119   126     2     0     0
SMALL
USER_CHARGES
****
Generated from the CSD

@<TRIPOS>ATOM
     1 B1       8.1833   6.5069   4.6825   B         1 RES1  -1.0000
     2 C1       7.2176   7.5109   3.8006   C.ar      1 RES1   0.0000
     3 C2       6.8697   7.2244   2.4795   C.ar      1 RES1   0.0000
     4 H1       7.2054   6.4264   2.0903   H         1 RES1   0.0000
     5 C3       6.0557   8.0492   1.6999   C.ar      1 RES1   0.0000
     6 H2       5.8754   7.8254   0.7948   H         1 RES1   0.0000
     7 C4       5.5161   9.1897   2.2530   C.ar      1 RES1   0.0000
     8 H3       4.9365   9.7430   1.7429   H         1 RES1   0.0000
     9 C5       5.8286   9.5191   3.5566   C.ar      1 RES1   0.0000
    10 H4       5.4772  10.3128   3.9424   H         1 RES1   0.0000
    11 C6       6.6577   8.6873   4.3084   C.ar      1 RES1   0.0000
    12 H5       6.8506   8.9309   5.2066   H         1 RES1   0.0000
    13 C7       7.6156   4.9565   4.5280   C.ar      1 RES1   0.0000
    14 C8       8.4305   3.8224   4.3328   C.ar      1 RES1   0.0000
    15 H6       9.3728   3.9368   4.2921   H         1 RES1   0.0000
    16 C9       7.9007   2.5408   4.1980   C.ar      1 RES1   0.0000
    17 H7       8.4821   1.7995   4.0725   H         1 RES1   0.0000
    18 C10      6.5322   2.3413   4.2445   C.ar      1 RES1   0.0000
    19 H8       6.1696   1.4671   4.1585   H         1 RES1   0.0000
    20 C11      5.6966   3.4378   4.4176   C.ar      1 RES1   0.0000
    21 H9       4.7537   3.3217   4.4385   H         1 RES1   0.0000
    22 C12      6.2436   4.6931   4.5582   C.ar      1 RES1   0.0000
    23 H10      5.6530   5.4257   4.6849   H         1 RES1   0.0000
    24 C13      9.7507   6.5947   4.1783   C.ar      1 RES1   0.0000
    25 C14     10.1778   7.2746   3.0477   C.ar      1 RES1   0.0000
    26 H11      9.5268   7.7002   2.5005   H         1 RES1   0.0000
    27 C15     11.5256   7.3601   2.6747   C.ar      1 RES1   0.0000
    28 H12     11.7745   7.8395   1.8928   H         1 RES1   0.0000
    29 C16     12.5036   6.7380   3.4567   C.ar      1 RES1   0.0000
    30 H13     13.4192   6.7877   3.2104   H         1 RES1   0.0000
    31 C17     12.1211   6.0493   4.5896   C.ar      1 RES1   0.0000
    32 H14     12.7734   5.6110   5.1217   H         1 RES1   0.0000
    33 C18     10.7719   5.9977   4.9533   C.ar      1 RES1   0.0000
    34 H15     10.5323   5.5430   5.7527   H         1 RES1   0.0000
    35 C19      8.1691   6.9488   6.2837   C.ar      1 RES1   0.0000
    36 C20      7.4790   6.3058   7.2910   C.ar      1 RES1   0.0000
    37 H16      6.9511   5.5484   7.0680   H         1 RES1   0.0000
    38 C21      7.5231   6.7203   8.6331   C.ar      1 RES1   0.0000
    39 H17      7.0404   6.2407   9.2954   H         1 RES1   0.0000
    40 C22      8.2692   7.8266   8.9840   C.ar      1 RES1   0.0000
    41 H18      8.3058   8.1180   9.8879   H         1 RES1   0.0000
    42 C23      8.9593   8.4973   8.0056   C.ar      1 RES1   0.0000
    43 H19      9.4711   9.2643   8.2334   H         1 RES1   0.0000
    44 C24      8.9165   8.0669   6.6868   C.ar      1 RES1   0.0000
    45 H20      9.4110   8.5463   6.0327   H         1 RES1   0.0000
    46 C25     11.2843   1.7986   9.1466   C.ar      2 RES2   0.0000
    47 C26     10.5827   1.3071   8.0475   C.ar      2 RES2   0.0000
    48 C27      9.7066   2.1219   7.3213   C.ar      2 RES2   0.0000
    49 H21      9.2315   1.7776   6.5741   H         2 RES2   0.0000
    50 C28      9.5460   3.4461   7.7175   C.ar      2 RES2   0.0000
    51 H22      8.9548   4.0065   7.2283   H         2 RES2   0.0000
    52 C29     10.2303   3.9726   8.8097   C.ar      2 RES2   0.0000
    53 H23     10.0966   4.8738   9.0792   H         2 RES2   0.0000
    54 C30     11.1217   3.1433   9.5057   C.ar      2 RES2   0.0000
    55 C31     10.9528  -0.0873   7.8476   C.2       2 RES2   0.0000
    56 C32     11.3007  -2.0311   6.8123   C.3       2 RES2   0.0000
    57 H24     11.9812  -2.0742   6.0943   H         2 RES2   0.0000
    58 H25     10.6775  -2.7936   6.7078   H         2 RES2   0.0000
    59 C33     11.9754  -2.0625   8.2090   C.3       2 RES2   0.0000
    60 H26     12.9600  -2.1969   8.0916   H         2 RES2   0.0000
    61 C34     11.6590  -4.5260   8.3960   C.3       2 RES2   0.0000
    62 H27     12.6138  -4.6291   8.2008   H         2 RES2   0.0000
    63 H28     11.1490  -4.5543   7.5595   H         2 RES2   0.0000
    64 H29     11.3652  -5.2534   8.9828   H         2 RES2   0.0000
    65 C35     11.4230  -3.1799   9.0932   C.3       2 RES2   0.0000
    66 H30     10.4380  -3.0442   9.2024   H         2 RES2   0.0000
    67 C36     12.0700  -3.2024  10.4782   C.3       2 RES2   0.0000
    68 H31     11.6660  -3.9144  11.0162   H         2 RES2   0.0000
    69 H32     11.9269  -2.3392  10.9197   H         2 RES2   0.0000
    70 H33     13.0313  -3.3668  10.3864   H         2 RES2   0.0000
    71 C37     11.9474   3.3792  10.6722   C.2       2 RES2   0.0000
    72 C38     12.6936   4.2170  12.6103   C.3       2 RES2   0.0000
    73 H34     12.1215   4.2155  13.4179   H         2 RES2   0.0000
    74 H35     13.4024   4.8987  12.7219   H         2 RES2   0.0000
    75 C39     13.3132   2.8201  12.3779   C.3       2 RES2   0.0000
    76 H36     12.9708   2.2062  13.0890   H         2 RES2   0.0000
    77 C40     15.3557   2.8055  13.8396   C.3       2 RES2   0.0000
    78 H37     15.0999   3.6551  14.2579   H         2 RES2   0.0000
    79 H38     16.3312   2.7204  13.8431   H         2 RES2   0.0000
    80 H39     14.9608   2.0628  14.3427   H         2 RES2   0.0000
    81 C41     14.8484   2.7736  12.4058   C.3       2 RES2   0.0000
    82 H40     15.1294   1.9008  12.0061   H         2 RES2   0.0000
    83 C42     15.4976   3.8919  11.5750   C.3       2 RES2   0.0000
    84 H41     15.0604   3.9452  10.7001   H         2 RES2   0.0000
    85 H42     16.4506   3.6965  11.4530   H         2 RES2   0.0000
    86 H43     15.3972   4.7467  12.0433   H         2 RES2   0.0000
    87 C43     13.6657  -0.3440  11.0231   C.1       2 RES2   0.0000
    88 C44      9.3802  -0.6977  10.8698   C.3       2 RES2   0.0000
    89 H44      9.6805  -1.6069  10.6618   H         2 RES2   0.0000
    90 H45      9.0584  -0.2653  10.0518   H         2 RES2   0.0000
    91 H46      8.6532  -0.7358  11.5262   H         2 RES2   0.0000
    92 C45     11.1785  -0.5977  13.1146   C.3       2 RES2   0.0000
    93 H47     10.3557  -0.7683  13.6200   H         2 RES2   0.0000
    94 H48     11.7798  -0.0388  13.6491   H         2 RES2   0.0000
    95 H49     11.6190  -1.4493  12.9124   H         2 RES2   0.0000
    96 C46      9.8500   1.7039  12.2071   C.3       2 RES2   0.0000
    97 H50      9.1153   1.3933  12.7776   H         2 RES2   0.0000
    98 H51      9.4848   2.2217  11.4589   H         2 RES2   0.0000
    99 H52     10.4546   2.2696  12.7312   H         2 RES2   0.0000
   100 C47     14.0666   2.9569   7.9766   C.3       2 RES2   0.0000
   101 H53     14.0373   3.5822   8.7307   H         2 RES2   0.0000
   102 H54     13.2738   3.0853   7.4154   H         2 RES2   0.0000
   103 H55     14.8739   3.1215   7.4467   H         2 RES2   0.0000
   104 C48     14.1458   0.3283   7.0447   C.3       2 RES2   0.0000
   105 H56     14.8775   0.6691   6.4893   H         2 RES2   0.0000
   106 H57     13.2956   0.4403   6.5707   H         2 RES2   0.0000
   107 H58     14.2934  -0.6224   7.2318   H         2 RES2   0.0000
   108 C49     15.8219   1.0531   9.1455   C.3       2 RES2   0.0000
   109 H59     16.0253   0.1011   9.2535   H         2 RES2   0.0000
   110 H60     15.9513   1.5136  10.0006   H         2 RES2   0.0000
   111 H61     16.4189   1.4405   8.4716   H         2 RES2   0.0000
   112 Fe1     12.4904   0.6646  10.1144   Fe        2 RES2   1.0000
   113 N1      11.7282  -0.6614   8.7121   N.2       2 RES2   0.0000
   114 N2      12.7174   2.4149  11.0987   N.2       2 RES2   0.0000
   115 O1      10.5797  -0.7655   6.7624   O.3       2 RES2   0.0000
   116 O2      11.8998   4.4898  11.4182   O.3       2 RES2   0.0000
   117 O3      14.4360  -0.9602  11.6076   O.2       2 RES2   0.0000
   118 P1      10.7711   0.2606  11.5585   P.3       2 RES2   0.0000
   119 P2      14.0926   1.2491   8.6066   P.3       2 RES2   0.0000
@<TRIPOS>BOND
     1     1     2    1
     2     2     3   ar
     3     3     4    1
     4     5     3   ar
     5     6     5    1
     6     7     5   ar
     7     8     7    1
     8     9     7   ar
     9    10     9    1
    10    11     2   ar
    11    12    11    1
    12    13     1    1
    13    14    13   ar
    14    15    14    1
    15    16    14   ar
    16    17    16    1
    17    18    16   ar
    18    19    18    1
    19    20    18   ar
    20    21    20    1
    21    22    13   ar
    22    23    22    1
    23    24     1    1
    24    25    24   ar
    25    26    25    1
    26    27    25   ar
    27    28    27    1
    28    29    27   ar
    29    30    29    1
    30    31    29   ar
    31    32    31    1
    32    33    24   ar
    33    34    33    1
    34    35     1    1
    35    36    35   ar
    36    37    36    1
    37    38    36   ar
    38    39    38    1
    39    40    38   ar
    40    41    40    1
    41    42    40   ar
    42    43    42    1
    43    44    35   ar
    44    45    44    1
    45     9    11   ar
    46    20    22   ar
    47    31    33   ar
    48    42    44   ar
    49    46    47   ar
    50    47    48   ar
    51    48    49    1
    52    50    48   ar
    53    51    50    1
    54    52    50   ar
    55    53    52    1
    56    54    46   ar
    57    55    47    1
    58    56    57    1
    59    58    56    1
    60    59    56    1
    61    60    59    1
    62    61    62    1
    63    63    61    1
    64    64    61    1
    65    65    59    1
    66    66    65    1
    67    67    65    1
    68    68    67    1
    69    69    67    1
    70    70    67    1
    71    71    54    1
    72    72    73    1
    73    74    72    1
    74    75    72    1
    75    76    75    1
    76    77    78    1
    77    79    77    1
    78    80    77    1
    79    81    75    1
    80    82    81    1
    81    83    81    1
    82    84    83    1
    83    85    83    1
    84    86    83    1
    85    87   112    1
    86    88    89    1
    87    90    88    1
    88    91    88    1
    89    92    93    1
    90    94    92    1
    91    95    92    1
    92    96    97    1
    93    98    96    1
    94    99    96    1
    95   100   101    1
    96   102   100    1
    97   103   100    1
    98   104   105    1
    99   106   104    1
   100   107   104    1
   101   108   109    1
   102   110   108    1
   103   111   108    1
   104   112    46    1
   105   113    55    2
   106   114    71    2
   107   115    55    1
   108   116    71    1
   109   117    87    3
   110   118    88    1
   111   119   100    1
   112    52    54   ar
   113    56   115    1
   114    59   113    1
   115    61    65    1
   116    72   116    1
   117    75   114    1
   118    77    81    1
   119    92   118    1
   120    96   118    1
   121   104   119    1
   122   108   119    1
   123   112   113    1
   124   112   114    1
   125   112   118    1
   126   112   119    1
@<TRIPOS>SUBSTRUCTURE
     1 RES1        1 GROUP             0 ****  ****    0  
     2 RES2       46 GROUP             0 ****  ****    0  
@<TRIPOS>CRYSIN
    9.3740   10.9850   12.1260   89.3170   73.4360   82.8320     1     1
