@<TRIPOS>MOLECULE
QIGTIL
   113   120     2     0     0
SMALL
USER_CHARGES
****
Generated from the CSD

@<TRIPOS>ATOM
     1 B1       3.6352   2.9597   5.0690   B         1 RES1  -1.0000
     2 C1       4.7454   3.1816   6.2549   C.ar      1 RES1   0.0000
     3 C2       5.3864   4.4251   6.4077   C.ar      1 RES1   0.0000
     4 H1       5.1767   5.1223   5.7984   H         1 RES1   0.0000
     5 C3       6.3097   4.6748   7.4105   C.ar      1 RES1   0.0000
     6 H2       6.7265   5.5268   7.4699   H         1 RES1   0.0000
     7 C4       6.6260   3.6817   8.3297   C.ar      1 RES1   0.0000
     8 H3       7.2662   3.8426   9.0135   H         1 RES1   0.0000
     9 C5       5.9990   2.4629   8.2352   C.ar      1 RES1   0.0000
    10 H4       6.1931   1.7802   8.8661   H         1 RES1   0.0000
    11 C6       5.0749   2.2254   7.2119   C.ar      1 RES1   0.0000
    12 H5       4.6540   1.3756   7.1675   H         1 RES1   0.0000
    13 C7       3.2395   1.3752   4.8874   C.ar      1 RES1   0.0000
    14 C8       4.2166   0.4023   4.6372   C.ar      1 RES1   0.0000
    15 H6       5.1301   0.6643   4.6520   H         1 RES1   0.0000
    16 C9       3.9147  -0.9253   4.3693   C.ar      1 RES1   0.0000
    17 H7       4.6148  -1.5487   4.2171   H         1 RES1   0.0000
    18 C10      2.6012  -1.3423   4.3220   C.ar      1 RES1   0.0000
    19 H8       2.3851  -2.2469   4.1254   H         1 RES1   0.0000
    20 C11      1.6080  -0.4164   4.5665   C.ar      1 RES1   0.0000
    21 H9       0.6966  -0.6850   4.5451   H         1 RES1   0.0000
    22 C12      1.9281   0.9059   4.8441   C.ar      1 RES1   0.0000
    23 H10      1.2214   1.5186   5.0115   H         1 RES1   0.0000
    24 C13      2.3160   3.8483   5.5178   C.ar      1 RES1   0.0000
    25 C14      1.7429   4.8916   4.7822   C.ar      1 RES1   0.0000
    26 H11      2.1176   5.1147   3.9388   H         1 RES1   0.0000
    27 C15      0.6409   5.6170   5.2404   C.ar      1 RES1   0.0000
    28 H12      0.2742   6.3097   4.7031   H         1 RES1   0.0000
    29 C16      0.0818   5.3334   6.4676   C.ar      1 RES1   0.0000
    30 H13     -0.6659   5.8279   6.7838   H         1 RES1   0.0000
    31 C17      0.6285   4.3161   7.2322   C.ar      1 RES1   0.0000
    32 H14      0.2612   4.1136   8.0837   H         1 RES1   0.0000
    33 C18      1.7085   3.5959   6.7568   C.ar      1 RES1   0.0000
    34 H15      2.0561   2.8961   7.2954   H         1 RES1   0.0000
    35 C19      4.2040   3.3874   3.5889   C.ar      1 RES1   0.0000
    36 C20      3.3506   3.4510   2.4788   C.ar      1 RES1   0.0000
    37 H16      2.4267   3.2706   2.6103   H         1 RES1   0.0000
    38 C21      3.7820   3.7634   1.2011   C.ar      1 RES1   0.0000
    39 H17      3.1590   3.8238   0.4860   H         1 RES1   0.0000
    40 C22      5.1328   3.9885   0.9730   C.ar      1 RES1   0.0000
    41 H18      5.4436   4.2190   0.1053   H         1 RES1   0.0000
    42 C23      6.0138   3.8731   2.0195   C.ar      1 RES1   0.0000
    43 H19      6.9434   3.9894   1.8656   H         1 RES1   0.0000
    44 C24      5.5577   3.5869   3.3027   C.ar      1 RES1   0.0000
    45 H20      6.1897   3.5246   4.0095   H         1 RES1   0.0000
    46 C25     12.1700  -0.4168   3.7178   C.ar      2 RES2   0.0000
    47 C26     12.9411  -1.2087   2.8766   C.ar      2 RES2   0.0000
    48 C27     13.7282  -2.2437   3.4047   C.ar      2 RES2   0.0000
    49 H21     14.2383  -2.8076   2.8360   H         2 RES2   0.0000
    50 C28     13.7409  -2.4202   4.7859   C.ar      2 RES2   0.0000
    51 H22     14.2747  -3.1163   5.1514   H         2 RES2   0.0000
    52 C29     13.0052  -1.6219   5.6493   C.ar      2 RES2   0.0000
    53 H23     13.0439  -1.7576   6.5883   H         2 RES2   0.0000
    54 C30     12.2074  -0.6159   5.1038   C.ar      2 RES2   0.0000
    55 C31     12.7362  -0.7427   1.5113   C.2       2 RES2   0.0000
    56 C32     13.0096  -0.3521  -0.6733   C.3       2 RES2   0.0000
    57 H24     12.7183  -0.8863  -1.4549   H         2 RES2   0.0000
    58 H25     13.7764   0.2145  -0.9433   H         2 RES2   0.0000
    59 C33     11.8485   0.5198  -0.1492   C.3       2 RES2   0.0000
    60 C34     12.0737   1.9960  -0.4444   C.3       2 RES2   0.0000
    61 H26     11.3661   2.5254  -0.0211   H         2 RES2   0.0000
    62 H27     12.0554   2.1415  -1.4127   H         2 RES2   0.0000
    63 H28     12.9438   2.2713  -0.0888   H         2 RES2   0.0000
    64 C35     10.5063   0.0828  -0.7365   C.3       2 RES2   0.0000
    65 H29     10.4102  -0.8882  -0.6439   H         2 RES2   0.0000
    66 H30     10.4705   0.3256  -1.6851   H         2 RES2   0.0000
    67 H31      9.7776   0.5307  -0.2558   H         2 RES2   0.0000
    68 C36     11.3150   0.3483   5.7245   C.2       2 RES2   0.0000
    69 C37     10.2273   1.5920   7.2292   C.3       2 RES2   0.0000
    70 H32     10.6975   2.3428   7.6715   H         2 RES2   0.0000
    71 H33      9.4521   1.3304   7.7874   H         2 RES2   0.0000
    72 C38      9.7619   2.0049   5.8172   C.3       2 RES2   0.0000
    73 C39      8.2937   1.6852   5.5757   C.3       2 RES2   0.0000
    74 H34      8.0944   1.7670   4.6189   H         2 RES2   0.0000
    75 H35      7.7352   2.3127   6.0797   H         2 RES2   0.0000
    76 H36      8.1061   0.7697   5.8706   H         2 RES2   0.0000
    77 C40      9.9631   3.4828   5.5396   C.3       2 RES2   0.0000
    78 H37     10.9018   3.7184   5.6886   H         2 RES2   0.0000
    79 H38      9.3959   4.0082   6.1414   H         2 RES2   0.0000
    80 H39      9.7207   3.6770   4.6098   H         2 RES2   0.0000
    81 C41      9.9315   2.1739   2.3532   C.1       2 RES2   0.0000
    82 C42      7.8295  -0.2721   2.2854   C.3       2 RES2   0.0000
    83 H40      7.9120   0.0019   1.3480   H         2 RES2   0.0000
    84 H41      7.4618   0.4686   2.8119   H         2 RES2   0.0000
    85 H42      7.2318  -1.0463   2.3485   H         2 RES2   0.0000
    86 C43      9.8514  -2.1987   1.9483   C.3       2 RES2   0.0000
    87 H43      9.1383  -2.8603   2.0627   H         2 RES2   0.0000
    88 H44     10.7025  -2.5818   2.2462   H         2 RES2   0.0000
    89 H45      9.9193  -1.9533   1.0020   H         2 RES2   0.0000
    90 C44      9.0761  -1.5801   4.4941   C.3       2 RES2   0.0000
    91 H46      8.3414  -2.2111   4.3420   H         2 RES2   0.0000
    92 H47      8.8096  -0.9221   5.1695   H         2 RES2   0.0000
    93 H48      9.8655  -2.0681   4.8084   H         2 RES2   0.0000
    94 C45     12.5628   4.0726   2.7232   C.3       2 RES2   0.0000
    95 H49     13.3890   4.5784   2.8751   H         2 RES2   0.0000
    96 H50     11.8334   4.4730   3.2407   H         2 RES2   0.0000
    97 H51     12.3377   4.0967   1.7693   H         2 RES2   0.0000
    98 C46     13.4648   2.5335   4.9399   C.3       2 RES2   0.0000
    99 H52     13.7198   1.6541   5.2914   H         2 RES2   0.0000
   100 H53     12.7781   2.9300   5.5155   H         2 RES2   0.0000
   101 H54     14.2516   3.1181   4.9198   H         2 RES2   0.0000
   102 C47     14.3623   1.9019   2.4111   C.3       2 RES2   0.0000
   103 H55     14.2085   1.8366   1.4458   H         2 RES2   0.0000
   104 H56     14.6812   1.0406   2.7502   H         2 RES2   0.0000
   105 H57     15.0350   2.5931   2.5878   H         2 RES2   0.0000
   106 Fe1     11.0342   0.9300   2.9952   Fe        2 RES2   1.0000
   107 N1      11.8932   0.2243   1.3192   N.2       2 RES2   0.0000
   108 N2      10.6479   1.1438   4.9536   N.2       2 RES2   0.0000
   109 O1      13.3834  -1.2296   0.4405   O.3       2 RES2   0.0000
   110 O2      11.1277   0.4642   7.0467   O.3       2 RES2   0.0000
   111 O3       9.2004   2.9668   1.9781   O.2       2 RES2   0.0000
   112 P1      12.8035   2.3436   3.2469   P.3       2 RES2   0.0000
   113 P2       9.4732  -0.7205   2.9326   P.3       2 RES2   0.0000
@<TRIPOS>BOND
     1     1     2    1
     2     2     3   ar
     3     3     4    1
     4     5     3   ar
     5     6     5    1
     6     7     5   ar
     7     8     7    1
     8     9     7   ar
     9    10     9    1
    10    11     2   ar
    11    12    11    1
    12    13     1    1
    13    14    13   ar
    14    15    14    1
    15    16    14   ar
    16    17    16    1
    17    18    16   ar
    18    19    18    1
    19    20    18   ar
    20    21    20    1
    21    22    13   ar
    22    23    22    1
    23    24     1    1
    24    25    24   ar
    25    26    25    1
    26    27    25   ar
    27    28    27    1
    28    29    27   ar
    29    30    29    1
    30    31    29   ar
    31    32    31    1
    32    33    24   ar
    33    34    33    1
    34    35     1    1
    35    36    35   ar
    36    37    36    1
    37    38    36   ar
    38    39    38    1
    39    40    38   ar
    40    41    40    1
    41    42    40   ar
    42    43    42    1
    43    44    35   ar
    44    45    44    1
    45     9    11   ar
    46    20    22   ar
    47    31    33   ar
    48    42    44   ar
    49    46    47   ar
    50    47    48   ar
    51    48    49    1
    52    50    48   ar
    53    51    50    1
    54    52    50   ar
    55    53    52    1
    56    54    46   ar
    57    55    47    1
    58    56    57    1
    59    58    56    1
    60    59    56    1
    61    60    59    1
    62    61    60    1
    63    62    60    1
    64    63    60    1
    65    64    59    1
    66    65    64    1
    67    66    64    1
    68    67    64    1
    69    68    54    1
    70    69    70    1
    71    71    69    1
    72    72    69    1
    73    73    72    1
    74    74    73    1
    75    75    73    1
    76    76    73    1
    77    77    72    1
    78    78    77    1
    79    79    77    1
    80    80    77    1
    81    81   106    1
    82    82    83    1
    83    84    82    1
    84    85    82    1
    85    86    87    1
    86    88    86    1
    87    89    86    1
    88    90    91    1
    89    92    90    1
    90    93    90    1
    91    94    95    1
    92    96    94    1
    93    97    94    1
    94    98    99    1
    95   100    98    1
    96   101    98    1
    97   102   103    1
    98   104   102    1
    99   105   102    1
   100   106    46    1
   101   107    55    2
   102   108    68    2
   103   109    55    1
   104   110    68    1
   105   111    81    3
   106   112    94    1
   107   113    82    1
   108    52    54   ar
   109    56   109    1
   110    59   107    1
   111    69   110    1
   112    72   108    1
   113    86   113    1
   114    90   113    1
   115    98   112    1
   116   102   112    1
   117   106   107    1
   118   106   108    1
   119   106   112    1
   120   106   113    1
@<TRIPOS>SUBSTRUCTURE
     1 RES1        1 GROUP             0 ****  ****    0  
     2 RES2       46 GROUP             0 ****  ****    0  
@<TRIPOS>CRYSIN
   15.0715   18.8180   15.2704   90.0000   99.8540   90.0000   231     1
