@<TRIPOS>MOLECULE
QIGTUX
    83    88     1     0     0
SMALL
NO_CHARGES
****
Generated from the CSD

@<TRIPOS>ATOM
     1 Br1      5.4746   6.6827   5.4536   Br        1 RES1   0.0000
     2 C1       1.8567   5.5868   3.0372   C.ar      1 RES1   0.0000
     3 C2       1.0817   4.6070   3.7030   C.ar      1 RES1   0.0000
     4 C3      -0.1403   4.1250   3.2529   C.ar      1 RES1   0.0000
     5 H1      -0.6017   3.4530   3.7401   H         1 RES1   0.0000
     6 C4      -0.6738   4.6330   2.0922   C.ar      1 RES1   0.0000
     7 H2      -1.5185   4.3345   1.7774   H         1 RES1   0.0000
     8 C5       0.0414   5.5868   1.3918   C.ar      1 RES1   0.0000
     9 H3      -0.3253   5.9447   0.5914   H         1 RES1   0.0000
    10 C6       1.2881   6.0392   1.8282   C.ar      1 RES1   0.0000
    11 C7       1.6471   4.1992   4.9660   C.2       1 RES1   0.0000
    12 C8       1.7270   3.3065   6.9982   C.3       1 RES1   0.0000
    13 H4       1.8981   2.3897   7.3268   H         1 RES1   0.0000
    14 H5       1.1971   3.7959   7.6784   H         1 RES1   0.0000
    15 C9       3.0533   4.0388   6.7133   C.3       1 RES1   0.0000
    16 C10      3.4024   4.9927   7.8306   C.3       1 RES1   0.0000
    17 H6       4.2314   5.4663   7.6081   H         1 RES1   0.0000
    18 H7       3.5270   4.4893   8.6630   H         1 RES1   0.0000
    19 H8       2.6763   5.6406   7.9469   H         1 RES1   0.0000
    20 C11      4.1796   3.0451   6.5177   C.3       1 RES1   0.0000
    21 H9       3.9315   2.4046   5.8180   H         1 RES1   0.0000
    22 H10      4.3414   2.5649   7.3556   H         1 RES1   0.0000
    23 H11      4.9929   3.5216   6.2527   H         1 RES1   0.0000
    24 C12      1.9439   6.9819   0.8912   C.2       1 RES1   0.0000
    25 C13      3.4502   7.5437  -0.6780   C.3       1 RES1   0.0000
    26 H12      3.5224   7.2230  -1.6111   H         1 RES1   0.0000
    27 H13      4.3290   7.9006  -0.3932   H         1 RES1   0.0000
    28 C14      2.3589   8.6199  -0.5537   C.3       1 RES1   0.0000
    29 C15      2.9235   9.9890  -0.2382   C.3       1 RES1   0.0000
    30 H14      2.1871  10.6212  -0.0959   H         1 RES1   0.0000
    31 H15      3.4760  10.2949  -0.9878   H         1 RES1   0.0000
    32 H16      3.4703   9.9380   0.5722   H         1 RES1   0.0000
    33 C16      1.4625   8.6709  -1.7729   C.3       1 RES1   0.0000
    34 H17      1.1089   7.7754  -1.9564   H         1 RES1   0.0000
    35 H18      1.9783   8.9833  -2.5446   H         1 RES1   0.0000
    36 H19      0.7189   9.2873  -1.6047   H         1 RES1   0.0000
    37 C17      5.9566   5.3727   1.7681   C.3       1 RES1   0.0000
    38 H20      6.4855   4.6812   1.3170   H         1 RES1   0.0000
    39 H21      6.5520   5.9465   2.2952   H         1 RES1   0.0000
    40 H22      5.4877   5.9131   1.0997   H         1 RES1   0.0000
    41 C18      3.7900   3.5568   1.7051   C.3       1 RES1   0.0000
    42 H23      4.4015   2.9672   1.2179   H         1 RES1   0.0000
    43 H24      3.3210   4.1371   1.0709   H         1 RES1   0.0000
    44 H25      3.1371   3.0164   2.1961   H         1 RES1   0.0000
    45 C19      5.8249   3.3389   3.6730   C.ar      1 RES1   0.0000
    46 C20      7.0007   3.7514   4.3053   C.ar      1 RES1   0.0000
    47 H26      7.2296   4.6729   4.3155   H         1 RES1   0.0000
    48 C21      7.8363   2.8319   4.9184   C.ar      1 RES1   0.0000
    49 H27      8.6290   3.1257   5.3512   H         1 RES1   0.0000
    50 C22      7.5169   1.4832   4.9024   C.ar      1 RES1   0.0000
    51 H28      8.0844   0.8537   5.3321   H         1 RES1   0.0000
    52 C23      6.3728   1.0586   4.2644   C.ar      1 RES1   0.0000
    53 H29      6.1584   0.1335   4.2420   H         1 RES1   0.0000
    54 C24      5.5357   1.9726   3.6551   C.ar      1 RES1   0.0000
    55 H30      4.7492   1.6676   3.2159   H         1 RES1   0.0000
    56 C25      2.7892   8.5244   6.5235   C.3       1 RES1   0.0000
    57 H31      2.1171   9.1566   6.8537   H         1 RES1   0.0000
    58 H32      3.6183   9.0055   6.3230   H         1 RES1   0.0000
    59 H33      2.9632   7.8449   7.2085   H         1 RES1   0.0000
    60 C26      1.8676   9.1844   3.9722   C.3       1 RES1   0.0000
    61 H34      1.5122   8.8989   3.1040   H         1 RES1   0.0000
    62 H35      2.7090   9.6702   3.8360   H         1 RES1   0.0000
    63 H36      1.2196   9.7712   4.4146   H         1 RES1   0.0000
    64 C27      0.4835   7.2294   5.4871   C.ar      1 RES1   0.0000
    65 C28     -0.5710   7.3370   4.5895   C.ar      1 RES1   0.0000
    66 H37     -0.4234   7.7207   3.7337   H         1 RES1   0.0000
    67 C29     -1.8389   6.8902   4.9328   C.ar      1 RES1   0.0000
    68 H38     -2.5552   6.9884   4.3155   H         1 RES1   0.0000
    69 C30     -2.0654   6.3108   6.1501   C.ar      1 RES1   0.0000
    70 H39     -2.9309   5.9882   6.3710   H         1 RES1   0.0000
    71 C31     -1.0348   6.1959   7.0535   C.ar      1 RES1   0.0000
    72 H40     -1.1892   5.7908   7.8990   H         1 RES1   0.0000
    73 C32      0.2249   6.6668   6.7360   C.ar      1 RES1   0.0000
    74 H41      0.9231   6.6065   7.3779   H         1 RES1   0.0000
    75 C33      4.0504   7.3277   2.9748   C.1       1 RES1   0.0000
    76 Fe1      3.4706   6.1087   4.0544   Fe        1 RES1   0.0000
    77 N1       2.7351   4.7146   5.4005   N.2       1 RES1   0.0000
    78 N2       1.5399   8.1332   0.5907   N.2       1 RES1   0.0000
    79 O1       1.0240   3.2704   5.7310   O.3       1 RES1   0.0000
    80 O2       3.0171   6.4740   0.2033   O.3       1 RES1   0.0000
    81 O3       4.4933   8.1731   2.3246   O.2       1 RES1   0.0000
    82 P1       4.7364   4.5799   2.8773   P.3       1 RES1   0.0000
    83 P2       2.1735   7.7205   5.0146   P.3       1 RES1   0.0000
@<TRIPOS>BOND
     1     1    76    1
     2     2     3   ar
     3     3     4   ar
     4     4     5    1
     5     6     4   ar
     6     7     6    1
     7     8     6   ar
     8     9     8    1
     9    10     2   ar
    10    11     3    1
    11    12    13    1
    12    14    12    1
    13    15    12    1
    14    16    15    1
    15    17    16    1
    16    18    16    1
    17    19    16    1
    18    20    15    1
    19    21    20    1
    20    22    20    1
    21    23    20    1
    22    24    10    1
    23    25    26    1
    24    27    25    1
    25    28    25    1
    26    29    28    1
    27    30    29    1
    28    31    29    1
    29    32    29    1
    30    33    28    1
    31    34    33    1
    32    35    33    1
    33    36    33    1
    34    37    38    1
    35    39    37    1
    36    40    37    1
    37    41    42    1
    38    43    41    1
    39    44    41    1
    40    45    46   ar
    41    46    47    1
    42    48    46   ar
    43    49    48    1
    44    50    48   ar
    45    51    50    1
    46    52    50   ar
    47    53    52    1
    48    54    45   ar
    49    55    54    1
    50    56    57    1
    51    58    56    1
    52    59    56    1
    53    60    61    1
    54    62    60    1
    55    63    60    1
    56    64    65   ar
    57    65    66    1
    58    67    65   ar
    59    68    67    1
    60    69    67   ar
    61    70    69    1
    62    71    69   ar
    63    72    71    1
    64    73    64   ar
    65    74    73    1
    66    75    76    1
    67    76     2    1
    68    77    11    2
    69    78    24    2
    70    79    11    1
    71    80    24    1
    72    81    75    3
    73    82    37    1
    74    83    56    1
    75     8    10   ar
    76    12    79    1
    77    15    77    1
    78    25    80    1
    79    28    78    1
    80    41    82    1
    81    45    82    1
    82    52    54   ar
    83    60    83    1
    84    64    83    1
    85    71    73   ar
    86    76    77    1
    87    76    82    1
    88    76    83    1
@<TRIPOS>SUBSTRUCTURE
     1 RES1        1 GROUP             0 ****  ****    0  
@<TRIPOS>CRYSIN
   11.1090    9.2697   32.1300   90.0000   95.7780   90.0000    14     1
