@<TRIPOS>MOLECULE
QIHDAQ
    78    84     3     0     0
SMALL
USER_CHARGES
****
Generated from the CSD

@<TRIPOS>ATOM
     1 O1       1.0857   3.2639  14.8545   O.2       1 RES1   0.0000
     2 N1       0.8089   7.3344  14.4212   N.ar      1 RES1   0.0000
     3 C1       1.2669   7.7887  16.7386   C.ar      1 RES1   0.0000
     4 H1       1.0556   7.6185  17.6493   H         1 RES1   0.0000
     5 F1      -2.5607   2.5493  14.4753   F         1 RES1   0.0000
     6 O2      -0.6528   4.6922  13.9707   O.3       1 RES1   0.0000
     7 N2      -1.5826   7.1375  12.3175   N.ar      1 RES1   0.0000
     8 C2       2.2310   8.6886  16.4090   C.ar      1 RES1   0.0000
     9 H2       2.7367   9.1169  17.0902   H         1 RES1   0.0000
    10 O3      -0.7519   3.9971  16.2841   O.2       1 RES1   0.0000
    11 N3       2.2555   5.6710  12.0918   N.ar      1 RES1   0.0000
    12 C3       2.4790   8.9849  15.0516   C.ar      1 RES1   0.0000
    13 C4       3.4294   9.9467  14.6411   C.ar      1 RES1   0.0000
    14 H3       3.9450  10.4115  15.2900   H         1 RES1   0.0000
    15 C5       3.6073  10.2106  13.3097   C.ar      1 RES1   0.0000
    16 H4       4.2596  10.8451  13.0371   H         1 RES1   0.0000
    17 C6       2.8265   9.5453  12.3389   C.ar      1 RES1   0.0000
    18 H5       2.9521   9.7411  11.4178   H         1 RES1   0.0000
    19 C7       1.8968   8.6270  12.7138   C.ar      1 RES1   0.0000
    20 C8       1.7141   8.3002  14.0836   C.ar      1 RES1   0.0000
    21 C9      -2.7984   6.6850  12.5921   C.ar      1 RES1   0.0000
    22 H6      -2.8832   5.8250  12.9869   H         1 RES1   0.0000
    23 Fe1      0.2143   6.0925  12.7633   Fe        1 RES1   1.0000
    24 S1      -0.2699   3.6934  14.9752   S.o2      1 RES1   0.0000
    25 F2      -1.0744   1.2380  15.2699   F         1 RES1   0.0000
    26 O4      -0.3287   4.9527  11.0391   O.3       1 RES1   0.0000
    27 H7      -0.6810   5.3735  10.3215   H         1 RES1   0.0000
    28 N4       0.9947   7.9951  11.7319   N.3       1 RES1   0.0000
    29 C10      0.5887   7.1158  15.7139   C.ar      1 RES1   0.0000
    30 H8      -0.0623   6.4677  15.9554   H         1 RES1   0.0000
    31 F3      -0.9408   1.8655  13.2336   F         1 RES1   0.0000
    32 C11     -3.9636   7.4151  12.3273   C.ar      1 RES1   0.0000
    33 H9      -4.8168   7.0492  12.5285   H         1 RES1   0.0000
    34 C12     -3.8566   8.6583  11.7768   C.ar      1 RES1   0.0000
    35 H10     -4.6382   9.1654  11.5897   H         1 RES1   0.0000
    36 C13     -2.5746   9.1909  11.4849   C.ar      1 RES1   0.0000
    37 C14     -2.3801  10.4987  10.9797   C.ar      1 RES1   0.0000
    38 H11     -3.1296  11.0589  10.8168   H         1 RES1   0.0000
    39 C15     -1.1249  10.9556  10.7265   C.ar      1 RES1   0.0000
    40 H12     -1.0026  11.8381  10.3983   H         1 RES1   0.0000
    41 C16     -0.0072  10.1310  10.9467   C.ar      1 RES1   0.0000
    42 H13      0.8625  10.4605  10.7512   H         1 RES1   0.0000
    43 C17     -0.1522   8.8677  11.4362   C.ar      1 RES1   0.0000
    44 C18     -1.4540   8.3693  11.7462   C.ar      1 RES1   0.0000
    45 C19      2.9906   4.6161  12.3959   C.ar      1 RES1   0.0000
    46 H14      2.8583   4.1989  13.2390   H         1 RES1   0.0000
    47 C20      3.9583   4.0835  11.5289   C.ar      1 RES1   0.0000
    48 H15      4.5108   3.3645  11.8108   H         1 RES1   0.0000
    49 C21      4.0971   4.6043  10.2903   C.ar      1 RES1   0.0000
    50 H16      4.7008   4.2094   9.6727   H         1 RES1   0.0000
    51 C22      3.3361   5.7443   9.9124   C.ar      1 RES1   0.0000
    52 C23      3.3823   6.3486   8.6266   C.ar      1 RES1   0.0000
    53 H17      3.9691   6.0083   7.9615   H         1 RES1   0.0000
    54 C24      2.5857   7.4137   8.3502   C.ar      1 RES1   0.0000
    55 H18      2.5803   7.7741   7.4712   H         1 RES1   0.0000
    56 C25      1.7635   7.9989   9.3459   C.ar      1 RES1   0.0000
    57 H19      1.2407   8.7655   9.1434   H         1 RES1   0.0000
    58 C26      1.7264   7.4588  10.5879   C.ar      1 RES1   0.0000
    59 C27      2.4671   6.2786  10.8835   C.ar      1 RES1   0.0000
    60 C28      0.1241   3.6663  10.6157   C.3       1 RES1   0.0000
    61 H20     -0.6324   3.1533  10.2629   H         1 RES1   0.0000
    62 H21      0.5150   3.1905  11.3781   H         1 RES1   0.0000
    63 H22      0.8017   3.7729   9.9154   H         1 RES1   0.0000
    64 C29     -1.2678   2.2626  14.4476   C.3       1 RES1   0.0000
    65 F4      -1.0549   9.4856   8.1059   F         2 RES2   0.0000
    66 F5      -2.8327   8.9671   7.0602   F         2 RES2   0.0000
    67 O5      -0.7112   7.0271   6.5231   O.3       2 RES2  -1.0000
    68 F6      -1.6461  10.6273   6.3809   F         2 RES2   0.0000
    69 O6       0.6777   8.8566   5.8184   O.2       2 RES2   0.0000
    70 O7      -1.3545   8.3573   4.5982   O.2       2 RES2   0.0000
    71 S2      -0.6290   8.2850   5.8338   S.o2      2 RES2   0.0000
    72 C30     -1.5842   9.4002   6.9102   C.3       2 RES2   0.0000
    73 C31     -2.8939   6.1861   8.9474   C.3       3 RES3   0.0000
    74 H23     -3.2475   5.5955   9.6452   H         3 RES3   0.0000
    75 H24     -3.1256   5.8253   8.0661   H         3 RES3   0.0000
    76 H25     -3.2832   7.0796   9.0475   H         3 RES3   0.0000
    77 O8      -1.4904   6.2678   9.0678   O.3       3 RES3   0.0000
    78 H26     -1.0755   6.6378   8.2476   H         3 RES3   0.0000
@<TRIPOS>BOND
     1     1    24    2
     2     2    20   ar
     3     3     4    1
     4     5    64    1
     5     6    23    1
     6     7    21   ar
     7     8     3   ar
     8     9     8    1
     9    10    24    2
    10    11    23    1
    11    12     8   ar
    12    13    12   ar
    13    14    13    1
    14    15    13   ar
    15    16    15    1
    16    17    15   ar
    17    18    17    1
    18    19    17   ar
    19    20    12   ar
    20    21    22    1
    21    23     2    1
    22    24     6    1
    23    25    64    1
    24    26    23    1
    25    27    26    1
    26    28    19    1
    27    29     2   ar
    28    30    29    1
    29    31    64    1
    30    32    21   ar
    31    33    32    1
    32    34    32   ar
    33    35    34    1
    34    36    34   ar
    35    37    36   ar
    36    38    37    1
    37    39    37   ar
    38    40    39    1
    39    41    39   ar
    40    42    41    1
    41    43    28    1
    42    44     7   ar
    43    45    11   ar
    44    46    45    1
    45    47    45   ar
    46    48    47    1
    47    49    47   ar
    48    50    49    1
    49    51    49   ar
    50    52    51   ar
    51    53    52    1
    52    54    52   ar
    53    55    54    1
    54    56    54   ar
    55    57    56    1
    56    58    28    1
    57    59    11   ar
    58    60    26    1
    59    61    60    1
    60    62    60    1
    61    63    60    1
    62    64    24    1
    63     3    29   ar
    64     7    23    1
    65    19    20   ar
    66    23    28    1
    67    36    44   ar
    68    41    43   ar
    69    43    44   ar
    70    51    59   ar
    71    56    58   ar
    72    58    59   ar
    73    65    72    1
    74    66    72    1
    75    67    71    1
    76    68    72    1
    77    69    71    2
    78    70    71    2
    79    71    72    1
    80    73    74    1
    81    75    73    1
    82    76    73    1
    83    77    73    1
    84    78    77    1
@<TRIPOS>SUBSTRUCTURE
     1 RES1        1 GROUP             0 ****  ****    0  
     2 RES2       65 GROUP             0 ****  ****    0  
     3 RES3       73 GROUP             0 ****  ****    0  
@<TRIPOS>CRYSIN
   10.1010   11.0030   15.4590   91.7400   95.1600  104.5800     2     1
