@<TRIPOS>MOLECULE
QIHHEY
    84    90     3     0     0
SMALL
USER_CHARGES
****
Generated from the CSD

@<TRIPOS>ATOM
     1 Fe1     11.0760   4.9498   9.8303   Fe        1 RES1   2.0000
     2 N1      12.8948   4.6152  10.6536   N.3       1 RES1   0.0000
     3 C1       9.7101   2.3102  10.1120   C.ar      1 RES1   0.0000
     4 H1       9.1460   2.5448   9.3842   H         1 RES1   0.0000
     5 N2      10.7025   3.1262  10.4296   N.ar      1 RES1   0.0000
     6 C2       9.4520   1.1103  10.8038   C.ar      1 RES1   0.0000
     7 H2       8.7401   0.5428  10.5326   H         1 RES1   0.0000
     8 N3      11.8534   4.3070   8.1763   N.ar      1 RES1   0.0000
     9 C3      10.2335   0.7750  11.8637   C.ar      1 RES1   0.0000
    10 H3      10.0413  -0.0066  12.3688   H         1 RES1   0.0000
    11 N4      11.7668   6.7374   9.4849   N.ar      1 RES1   0.0000
    12 C4      11.3360   1.5927  12.2132   C.ar      1 RES1   0.0000
    13 N5      10.3517   5.5357  11.5433   N.1       1 RES1   0.0000
    14 C5      12.2138   1.3079  13.2800   C.ar      1 RES1   0.0000
    15 H4      12.0816   0.5308  13.8102   H         1 RES1   0.0000
    16 N6       9.3279   5.2736   9.0839   N.1       1 RES1   0.0000
    17 C6      13.2548   2.1517  13.5493   C.ar      1 RES1   0.0000
    18 H5      13.8205   1.9710  14.2908   H         1 RES1   0.0000
    19 C7      13.5057   3.2829  12.7521   C.ar      1 RES1   0.0000
    20 H6      14.2518   3.8385  12.9442   H         1 RES1   0.0000
    21 C8      12.6817   3.5894  11.6991   C.ar      1 RES1   0.0000
    22 C9      11.5585   2.7596  11.4481   C.ar      1 RES1   0.0000
    23 C10     11.2965   4.2147   6.9748   C.ar      1 RES1   0.0000
    24 H7      10.3946   4.4952   6.8713   H         1 RES1   0.0000
    25 C11     11.9767   3.7227   5.8501   C.ar      1 RES1   0.0000
    26 H8      11.5458   3.6961   5.0039   H         1 RES1   0.0000
    27 C12     13.2506   3.2873   5.9804   C.ar      1 RES1   0.0000
    28 H9      13.7067   2.9225   5.2311   H         1 RES1   0.0000
    29 C13     13.9071   3.3752   7.2371   C.ar      1 RES1   0.0000
    30 C14     15.2347   2.9677   7.4693   C.ar      1 RES1   0.0000
    31 H10     15.7486   2.6014   6.7592   H         1 RES1   0.0000
    32 C15     15.7896   3.0983   8.7217   C.ar      1 RES1   0.0000
    33 H11     16.6876   2.8232   8.8651   H         1 RES1   0.0000
    34 C16     15.0519   3.6304   9.7928   C.ar      1 RES1   0.0000
    35 H12     15.4461   3.7118  10.6532   H         1 RES1   0.0000
    36 C17     13.7572   4.0327   9.5839   C.ar      1 RES1   0.0000
    37 C18     13.1556   3.9064   8.3115   C.ar      1 RES1   0.0000
    38 C19     11.2799   7.6944   8.7049   C.ar      1 RES1   0.0000
    39 H13     10.4942   7.5166   8.2013   H         1 RES1   0.0000
    40 C20     11.8790   8.9562   8.5949   C.ar      1 RES1   0.0000
    41 H14     11.5297   9.6012   7.9907   H         1 RES1   0.0000
    42 C21     12.9645   9.2514   9.3603   C.ar      1 RES1   0.0000
    43 H15     13.3713  10.1078   9.3013   H         1 RES1   0.0000
    44 C22     13.4832   8.2796  10.2419   C.ar      1 RES1   0.0000
    45 C23     14.5655   8.5182  11.1115   C.ar      1 RES1   0.0000
    46 H16     14.9563   9.3827  11.1567   H         1 RES1   0.0000
    47 C24     15.0548   7.5063  11.8915   C.ar      1 RES1   0.0000
    48 H17     15.7594   7.6850  12.5031   H         1 RES1   0.0000
    49 C25     14.5284   6.2010  11.8003   C.ar      1 RES1   0.0000
    50 H18     14.9214   5.4970  12.3028   H         1 RES1   0.0000
    51 C26     13.4558   5.9432  10.9925   C.ar      1 RES1   0.0000
    52 C27     12.8893   7.0021  10.2351   C.ar      1 RES1   0.0000
    53 C28      9.8439   5.7734  12.5314   C.1       1 RES1   0.0000
    54 C29      9.1717   6.0294  13.8095   C.3       1 RES1   0.0000
    55 H19      8.2881   6.4416  13.6384   H         1 RES1   0.0000
    56 H20      9.7096   6.6691  14.3403   H         1 RES1   0.0000
    57 C30      8.9862   4.7589  14.5983   C.3       1 RES1   0.0000
    58 H21      8.7074   4.9797  15.5118   H         1 RES1   0.0000
    59 H22      9.8311   4.2643  14.6249   H         1 RES1   0.0000
    60 H23      8.2974   4.2075  14.1714   H         1 RES1   0.0000
    61 C31      8.2679   5.5435   8.7509   C.1       1 RES1   0.0000
    62 C32      6.9147   5.8971   8.3129   C.3       1 RES1   0.0000
    63 H24      6.6920   6.8036   8.6426   H         1 RES1   0.0000
    64 H25      6.2677   5.2615   8.7095   H         1 RES1   0.0000
    65 C33      6.7798   5.8683   6.7999   C.3       1 RES1   0.0000
    66 H26      5.8788   6.1595   6.5467   H         1 RES1   0.0000
    67 H27      6.9317   4.9565   6.4754   H         1 RES1   0.0000
    68 H28      7.4416   6.4716   6.4014   H         1 RES1   0.0000
    69 S1      13.0329   6.6883  15.4208   S.o2      2 RES2   0.0000
    70 F1      11.6973   4.6988  16.4964   F         2 RES2   0.0000
    71 O1      13.5100   7.9304  15.9906   O.3       2 RES2  -1.0000
    72 F2      10.9465   6.6233  17.0455   F         2 RES2   0.0000
    73 O2      14.0434   5.7011  15.1677   O.2       2 RES2   0.0000
    74 F3      12.7780   5.8788  17.9075   F         2 RES2   0.0000
    75 O3      12.0600   6.8445  14.3810   O.2       2 RES2   0.0000
    76 C34     12.0679   5.9450  16.7850   C.3       2 RES2   0.0000
    77 S2       7.2269   1.1526   7.3246   S.o2      3 RES3   0.0000
    78 F4       9.3453   1.8905   5.9676   F         3 RES3   0.0000
    79 O4       8.0798   0.3004   8.1148   O.2       3 RES3   0.0000
    80 F5       8.3704   0.1271   5.2073   F         3 RES3   0.0000
    81 O5       7.1260   2.5175   7.7776   O.3       3 RES3  -1.0000
    82 F6       7.4980   2.0473   4.8778   F         3 RES3   0.0000
    83 O6       6.0061   0.5477   6.8824   O.2       3 RES3   0.0000
    84 C35      8.1554   1.3158   5.7752   C.3       3 RES3   0.0000
@<TRIPOS>BOND
     1     1     2    1
     2     2    21    1
     3     3     4    1
     4     5     1    1
     5     6     3   ar
     6     7     6    1
     7     8     1    1
     8     9     6   ar
     9    10     9    1
    10    11     1    1
    11    12     9   ar
    12    13     1    1
    13    14    12   ar
    14    15    14    1
    15    16     1    1
    16    17    14   ar
    17    18    17    1
    18    19    17   ar
    19    20    19    1
    20    21    19   ar
    21    22     5   ar
    22    23     8   ar
    23    24    23    1
    24    25    23   ar
    25    26    25    1
    26    27    25   ar
    27    28    27    1
    28    29    27   ar
    29    30    29   ar
    30    31    30    1
    31    32    30   ar
    32    33    32    1
    33    34    32   ar
    34    35    34    1
    35    36     2    1
    36    37     8   ar
    37    38    11   ar
    38    39    38    1
    39    40    38   ar
    40    41    40    1
    41    42    40   ar
    42    43    42    1
    43    44    42   ar
    44    45    44   ar
    45    46    45    1
    46    47    45   ar
    47    48    47    1
    48    49    47   ar
    49    50    49    1
    50    51     2    1
    51    52    11   ar
    52    53    13    3
    53    54    53    1
    54    55    54    1
    55    56    54    1
    56    57    54    1
    57    58    57    1
    58    59    57    1
    59    60    57    1
    60    61    16    3
    61    62    61    1
    62    63    62    1
    63    64    62    1
    64    65    62    1
    65    66    65    1
    66    67    65    1
    67    68    65    1
    68     3     5   ar
    69    12    22   ar
    70    21    22   ar
    71    29    37   ar
    72    34    36   ar
    73    36    37   ar
    74    44    52   ar
    75    49    51   ar
    76    51    52   ar
    77    69    71    1
    78    70    76    1
    79    72    76    1
    80    73    69    2
    81    74    76    1
    82    75    69    2
    83    76    69    1
    84    77    79    2
    85    78    84    1
    86    80    84    1
    87    81    77    1
    88    82    84    1
    89    83    77    2
    90    84    77    1
@<TRIPOS>SUBSTRUCTURE
     1 RES1        1 GROUP             0 ****  ****    0  
     2 RES2       69 GROUP             0 ****  ****    0  
     3 RES3       77 GROUP             0 ****  ****    0  
@<TRIPOS>CRYSIN
   20.9780    8.7080   20.6670   90.0000  112.0200   90.0000    14     1
