@<TRIPOS>MOLECULE
QIJDIZ
    89    94     1     0     0
SMALL
NO_CHARGES
****
Generated from the CSD

@<TRIPOS>ATOM
     1 Br1      4.0632  14.3831   6.0052   Br        1 RES1   0.0000
     2 Br2     -0.2868  14.9535   3.7810   Br        1 RES1   0.0000
     3 Fe1      1.8976  14.7789   4.8585   Fe        1 RES1   0.0000
     4 P1       0.8864  14.9554   6.9169   P.3       1 RES1   0.0000
     5 P2       2.8260  14.1674   2.8460   P.3       1 RES1   0.0000
     6 O1       2.4235  17.6154   4.5352   O.2       1 RES1   0.0000
     7 N1       1.5553  12.7443   5.0890   N.3       1 RES1   0.0000
     8 H1       2.3822  12.3914   5.5253   H         1 RES1   0.0000
     9 C1       0.6991  13.1660   7.3282   C.3       1 RES1   0.0000
    10 H2       1.5190  12.8298   7.7681   H         1 RES1   0.0000
    11 H3      -0.0642  13.0355   7.9444   H         1 RES1   0.0000
    12 C2       0.4557  12.4147   6.0236   C.3       1 RES1   0.0000
    13 H4       0.4345  11.4388   6.1935   H         1 RES1   0.0000
    14 H5      -0.4137  12.6829   5.6343   H         1 RES1   0.0000
    15 C3      -0.8437  15.6176   6.9656   C.3       1 RES1   0.0000
    16 H6      -1.3320  15.1660   6.2188   H         1 RES1   0.0000
    17 C4      -1.6616  15.3362   8.2372   C.3       1 RES1   0.0000
    18 H7      -1.6720  14.3628   8.4185   H         1 RES1   0.0000
    19 H8      -1.2420  15.7905   9.0106   H         1 RES1   0.0000
    20 C5       2.2162  16.4914   4.6657   C.1       1 RES1   0.0000
    21 C6       2.6330  12.3363   2.9414   C.3       1 RES1   0.0000
    22 H9       2.5009  11.9678   2.0324   H         1 RES1   0.0000
    23 H10      3.4517  11.9335   3.3230   H         1 RES1   0.0000
    24 C7       1.4443  11.9950   3.8074   C.3       1 RES1   0.0000
    25 H11      0.6066  12.2421   3.3421   H         1 RES1   0.0000
    26 H12      1.4265  11.0225   3.9849   H         1 RES1   0.0000
    27 C8       4.6615  14.3493   2.6397   C.3       1 RES1   0.0000
    28 H13      5.0683  13.9759   3.4739   H         1 RES1   0.0000
    29 C9       2.4890  17.0110   8.0623   C.3       1 RES1   0.0000
    30 H14      3.2776  16.7505   7.5247   H         1 RES1   0.0000
    31 H15      1.9380  17.6247   7.5146   H         1 RES1   0.0000
    32 C10      2.1550  14.7015   1.1829   C.3       1 RES1   0.0000
    33 H16      2.9124  14.5954   0.5388   H         1 RES1   0.0000
    34 C11     -0.8671  17.1217   6.6397   C.3       1 RES1   0.0000
    35 H17     -0.4191  17.6247   7.3650   H         1 RES1   0.0000
    36 H18     -0.3680  17.2843   5.7992   H         1 RES1   0.0000
    37 C12     -3.0902  15.8412   8.0585   C.3       1 RES1   0.0000
    38 H19     -3.5268  15.3375   7.3282   H         1 RES1   0.0000
    39 H20     -3.6006  15.6779   8.8902   H         1 RES1   0.0000
    40 C13      1.6700  15.7641   8.3907   C.3       1 RES1   0.0000
    41 H21      0.8927  16.1187   8.9105   H         1 RES1   0.0000
    42 C14     -2.2981  17.6208   6.4851   C.3       1 RES1   0.0000
    43 H22     -2.2895  18.5969   6.3164   H         1 RES1   0.0000
    44 H23     -2.7170  17.1790   5.7041   H         1 RES1   0.0000
    45 C15      1.8188  16.1980   1.1804   C.3       1 RES1   0.0000
    46 H24      1.0782  16.3684   1.8143   H         1 RES1   0.0000
    47 H25      2.6074  16.7113   1.4872   H         1 RES1   0.0000
    48 C16      5.0971  15.8116   2.5801   C.3       1 RES1   0.0000
    49 H26      4.7510  16.2240   1.7496   H         1 RES1   0.0000
    50 H27      4.7126  16.3023   3.3497   H         1 RES1   0.0000
    51 C17     -3.1218  17.3299   7.7326   C.3       1 RES1   0.0000
    52 H28     -4.0576  17.6174   7.5856   H         1 RES1   0.0000
    53 H29     -2.7584  17.8451   8.4959   H         1 RES1   0.0000
    54 C18      1.0102  13.8745   0.6098   C.3       1 RES1   0.0000
    55 H30      0.2272  13.9293   1.2133   H         1 RES1   0.0000
    56 H31      1.2851  12.9253   0.5477   H         1 RES1   0.0000
    57 C19      0.2790  15.8659  -0.7620   C.3       1 RES1   0.0000
    58 H32      0.0689  16.1701  -1.6799   H         1 RES1   0.0000
    59 H33     -0.5260  16.0060  -0.2016   H         1 RES1   0.0000
    60 C20      2.7813  15.6108  10.6284   C.3       1 RES1   0.0000
    61 H34      1.9776  15.8909  11.1330   H         1 RES1   0.0000
    62 H35      3.3080  14.9995  11.2015   H         1 RES1   0.0000
    63 C21      0.6215  14.3927  -0.7873   C.3       1 RES1   0.0000
    64 H36      1.3746  14.2428  -1.4124   H         1 RES1   0.0000
    65 H37     -0.1579  13.8804  -1.1208   H         1 RES1   0.0000
    66 C22      1.4122  16.6799  -0.2143   C.3       1 RES1   0.0000
    67 H38      1.1407  17.6321  -0.1674   H         1 RES1   0.0000
    68 H39      2.1887  16.6133  -0.8254   H         1 RES1   0.0000
    69 C23      5.2666  13.5449   1.4821   C.3       1 RES1   0.0000
    70 H40      4.9073  13.8730   0.6200   H         1 RES1   0.0000
    71 H41      5.0221  12.5898   1.5734   H         1 RES1   0.0000
    72 C24      3.6229  16.8396  10.2772   C.3       1 RES1   0.0000
    73 H42      3.8194  17.3431  11.1064   H         1 RES1   0.0000
    74 H43      4.4862  16.5399   9.8943   H         1 RES1   0.0000
    75 C25      6.6179  15.9325   2.6105   C.3       1 RES1   0.0000
    76 H44      6.8770  16.8827   2.5319   H         1 RES1   0.0000
    77 H45      6.9602  15.5897   3.4752   H         1 RES1   0.0000
    78 C26      2.9560  17.7391   9.3137   C.3       1 RES1   0.0000
    79 H46      3.5849  18.4574   9.0537   H         1 RES1   0.0000
    80 H47      2.1766  18.1610   9.7523   H         1 RES1   0.0000
    81 C27      7.2383  15.1367   1.4669   C.3       1 RES1   0.0000
    82 H48      6.9716  15.5407   0.6035   H         1 RES1   0.0000
    83 H49      8.2253  15.1807   1.5328   H         1 RES1   0.0000
    84 C28      2.3589  14.8807   9.3479   C.3       1 RES1   0.0000
    85 H50      3.1621  14.4975   8.9130   H         1 RES1   0.0000
    86 H51      1.7565  14.1326   9.5862   H         1 RES1   0.0000
    87 C29      6.8019  13.6942   1.4986   C.3       1 RES1   0.0000
    88 H52      7.1614  13.2632   2.3151   H         1 RES1   0.0000
    89 H53      7.1820  13.2216   0.7163   H         1 RES1   0.0000
@<TRIPOS>BOND
     1     1     3    1
     2     2     3    1
     3     3     4    1
     4     4     9    1
     5     5     3    1
     6     6    20    3
     7     7     3    1
     8     8     7    1
     9     9    10    1
    10    11     9    1
    11    12     7    1
    12    13    12    1
    13    14    12    1
    14    15     4    1
    15    16    15    1
    16    17    15    1
    17    18    17    1
    18    19    17    1
    19    20     3    1
    20    21     5    1
    21    22    21    1
    22    23    21    1
    23    24     7    1
    24    25    24    1
    25    26    24    1
    26    27     5    1
    27    28    27    1
    28    29    30    1
    29    31    29    1
    30    32     5    1
    31    33    32    1
    32    34    15    1
    33    35    34    1
    34    36    34    1
    35    37    17    1
    36    38    37    1
    37    39    37    1
    38    40     4    1
    39    41    40    1
    40    42    34    1
    41    43    42    1
    42    44    42    1
    43    45    32    1
    44    46    45    1
    45    47    45    1
    46    48    27    1
    47    49    48    1
    48    50    48    1
    49    51    37    1
    50    52    51    1
    51    53    51    1
    52    54    32    1
    53    55    54    1
    54    56    54    1
    55    57    58    1
    56    59    57    1
    57    60    61    1
    58    62    60    1
    59    63    54    1
    60    64    63    1
    61    65    63    1
    62    66    45    1
    63    67    66    1
    64    68    66    1
    65    69    27    1
    66    70    69    1
    67    71    69    1
    68    72    60    1
    69    73    72    1
    70    74    72    1
    71    75    48    1
    72    76    75    1
    73    77    75    1
    74    78    29    1
    75    79    78    1
    76    80    78    1
    77    81    75    1
    78    82    81    1
    79    83    81    1
    80    84    40    1
    81    85    84    1
    82    86    84    1
    83    87    69    1
    84    88    87    1
    85    89    87    1
    86     9    12    1
    87    21    24    1
    88    29    40    1
    89    42    51    1
    90    57    63    1
    91    57    66    1
    92    60    84    1
    93    72    78    1
    94    81    87    1
@<TRIPOS>SUBSTRUCTURE
     1 RES1        1 GROUP             0 ****  ****    0  
@<TRIPOS>CRYSIN
   10.2669   24.4890   13.0022   90.0000  102.8110   90.0000   231     1
