@<TRIPOS>MOLECULE
QILJEA
    77    80     1     0     0
SMALL
NO_CHARGES
****
Generated from the CSD

@<TRIPOS>ATOM
     1 Fe1      2.0957   5.0040  14.0762   Fe        1 RES1   0.0000
     2 O1       0.7386   5.2199  12.5732   O.co2     1 RES1   0.0000
     3 O2      -0.2648   3.3815  11.8161   O.co2     1 RES1   0.0000
     4 N1       3.2362   6.6176  12.9422   N.ar      1 RES1   0.0000
     5 N2       3.3258   3.4487  13.0543   N.ar      1 RES1   0.0000
     6 C1      -0.1005   4.5998  11.8330   C.2       1 RES1   0.0000
     7 C2      -0.9819   5.5195  10.9652   C.3       1 RES1   0.0000
     8 C3      -0.1185   6.5532  10.2437   C.3       1 RES1   0.0000
     9 H1       0.4474   7.0873  10.9607   H         1 RES1   0.0000
    10 H2      -0.6614   7.2083   9.7595   H         1 RES1   0.0000
    11 H3       0.4923   6.0674   9.5531   H         1 RES1   0.0000
    12 C4      -1.9634   6.2282  11.9010   C.3       1 RES1   0.0000
    13 H4      -2.5655   6.7762  11.3548   H         1 RES1   0.0000
    14 H5      -1.4607   6.6897  12.6310   H         1 RES1   0.0000
    15 H6      -2.5516   5.6180  12.4246   H         1 RES1   0.0000
    16 C5      -1.7570   4.7018   9.9247   C.3       1 RES1   0.0000
    17 H7      -1.0959   4.2697   9.3841   H         1 RES1   0.0000
    18 H8      -2.3539   5.3068   9.4592   H         1 RES1   0.0000
    19 H9      -2.2431   4.0622  10.2850   H         1 RES1   0.0000
    20 C6       3.2845   6.5625  11.6089   C.ar      1 RES1   0.0000
    21 H10      2.9982   5.7908  11.2384   H         1 RES1   0.0000
    22 C7       3.7068   7.6180  10.8218   C.ar      1 RES1   0.0000
    23 H11      3.6918   7.5713   9.9153   H         1 RES1   0.0000
    24 C8       4.1029   8.7900  11.4336   C.ar      1 RES1   0.0000
    25 H12      4.3558   9.4901  10.9044   H         1 RES1   0.0000
    26 C9       4.0746   8.8564  12.8037   C.ar      1 RES1   0.0000
    27 H13      4.3691   9.6111  13.2316   H         1 RES1   0.0000
    28 C10      3.6547   7.7559  13.5145   C.ar      1 RES1   0.0000
    29 H14      3.6227   7.7632  14.4403   H         1 RES1   0.0000
    30 C11      2.7760   2.4126  12.4113   C.ar      1 RES1   0.0000
    31 H15      1.8267   2.3907  12.3833   H         1 RES1   0.0000
    32 C12      3.5320   1.4206  11.8111   C.ar      1 RES1   0.0000
    33 H16      3.1512   0.7087  11.4036   H         1 RES1   0.0000
    34 C13      4.9080   1.5056  11.8576   C.ar      1 RES1   0.0000
    35 H17      5.4293   0.8816  11.4205   H         1 RES1   0.0000
    36 C14      5.4863   2.5687  12.5188   C.ar      1 RES1   0.0000
    37 H18      6.3430   2.6448  12.5935   H         1 RES1   0.0000
    38 C15      4.6621   3.5075  13.1040   C.ar      1 RES1   0.0000
    39 H19      5.0429   4.2005  13.5901   H         1 RES1   0.0000
    40 O1F      3.4528   5.2199  15.5792   O.co2     1 RES1   0.0000
    41 C1F      4.2919   4.5998  16.3194   C.2       1 RES1   0.0000
    42 O2F      4.4562   3.3815  16.3363   O.co2     1 RES1   0.0000
    43 C2F      5.1733   5.5195  17.1872   C.3       1 RES1   0.0000
    44 C3F      4.3100   6.5532  17.9087   C.3       1 RES1   0.0000
    45 H1F      3.7440   7.0873  17.1917   H         1 RES1   0.0000
    46 H2F      4.8528   7.2083  18.3929   H         1 RES1   0.0000
    47 H3F      3.6991   6.0674  18.5994   H         1 RES1   0.0000
    48 C4F      6.1549   6.2282  16.2514   C.3       1 RES1   0.0000
    49 H4F      6.7569   6.7762  16.7976   H         1 RES1   0.0000
    50 H5F      5.6521   6.6897  15.5214   H         1 RES1   0.0000
    51 H6F      6.7430   5.6180  15.7278   H         1 RES1   0.0000
    52 C5F      5.9484   4.7018  18.2277   C.3       1 RES1   0.0000
    53 H7F      5.2873   4.2697  18.7683   H         1 RES1   0.0000
    54 H8F      6.5454   5.3068  18.6932   H         1 RES1   0.0000
    55 H9F      6.4345   4.0622  17.8674   H         1 RES1   0.0000
    56 N1F      0.9552   6.6176  15.2102   N.ar      1 RES1   0.0000
    57 C6F      0.9069   6.5625  16.5435   C.ar      1 RES1   0.0000
    58 H10F     1.1932   5.7908  16.9140   H         1 RES1   0.0000
    59 C7F      0.4846   7.6180  17.3306   C.ar      1 RES1   0.0000
    60 H11F     0.4997   7.5713  18.2371   H         1 RES1   0.0000
    61 C8F      0.0885   8.7900  16.7188   C.ar      1 RES1   0.0000
    62 H12F    -0.1644   9.4901  17.2480   H         1 RES1   0.0000
    63 C9F      0.1169   8.8564  15.3487   C.ar      1 RES1   0.0000
    64 H13F    -0.1777   9.6111  14.9208   H         1 RES1   0.0000
    65 C10F     0.5367   7.7559  14.6379   C.ar      1 RES1   0.0000
    66 H14F     0.5687   7.7632  13.7121   H         1 RES1   0.0000
    67 N2F      0.8656   3.4487  15.0981   N.ar      1 RES1   0.0000
    68 C11F     1.4154   2.4126  15.7411   C.ar      1 RES1   0.0000
    69 H15F     2.3647   2.3907  15.7691   H         1 RES1   0.0000
    70 C12F     0.6594   1.4206  16.3413   C.ar      1 RES1   0.0000
    71 H16F     1.0402   0.7087  16.7488   H         1 RES1   0.0000
    72 C13F    -0.7165   1.5056  16.2948   C.ar      1 RES1   0.0000
    73 H17F    -1.2378   0.8816  16.7319   H         1 RES1   0.0000
    74 C14F    -1.2949   2.5687  15.6336   C.ar      1 RES1   0.0000
    75 H18F    -2.1516   2.6448  15.5589   H         1 RES1   0.0000
    76 C15F    -0.4707   3.5075  15.0484   C.ar      1 RES1   0.0000
    77 H19F    -0.8514   4.2005  14.5623   H         1 RES1   0.0000
@<TRIPOS>BOND
     1     1     2    1
     2     2     6    1
     3     3     6    2
     4     4     1    1
     5     5     1    1
     6     6     7    1
     7     7     8    1
     8     8     9    1
     9    10     8    1
    10    11     8    1
    11    12     7    1
    12    13    12    1
    13    14    12    1
    14    15    12    1
    15    16     7    1
    16    17    16    1
    17    18    16    1
    18    19    16    1
    19    20     4   ar
    20    21    20    1
    21    22    20   ar
    22    23    22    1
    23    24    22   ar
    24    25    24    1
    25    26    24   ar
    26    27    26    1
    27    28     4   ar
    28    29    28    1
    29    30     5   ar
    30    31    30    1
    31    32    30   ar
    32    33    32    1
    33    34    32   ar
    34    35    34    1
    35    36    34   ar
    36    37    36    1
    37    38     5   ar
    38    39    38    1
    39    40     1    1
    40    41    40    1
    41    42    41    2
    42    43    41    1
    43    44    43    1
    44    45    44    1
    45    46    44    1
    46    47    44    1
    47    48    43    1
    48    49    48    1
    49    50    48    1
    50    51    48    1
    51    52    43    1
    52    53    52    1
    53    54    52    1
    54    55    52    1
    55    56     1    1
    56    57    56   ar
    57    58    57    1
    58    59    57   ar
    59    60    59    1
    60    61    59   ar
    61    62    61    1
    62    63    61   ar
    63    64    63    1
    64    65    56   ar
    65    66    65    1
    66    67     1    1
    67    68    67   ar
    68    69    68    1
    69    70    68   ar
    70    71    70    1
    71    72    70   ar
    72    73    72    1
    73    74    72   ar
    74    75    74    1
    75    76    67   ar
    76    77    76    1
    77    26    28   ar
    78    36    38   ar
    79    63    65   ar
    80    74    76   ar
@<TRIPOS>SUBSTRUCTURE
     1 RES1        1 GROUP             0 ****  ****    0  
@<TRIPOS>CRYSIN
    9.0876   17.2861   19.0500   90.0000   99.8660   90.0000    15     1
