@<TRIPOS>MOLECULE
QIMWAM
   103   107     5     0     0
SMALL
USER_CHARGES
****
Generated from the CSD

@<TRIPOS>ATOM
     1 N1       4.3960   8.4722  -1.8366   N.1       1 RES1   0.0000
     2 C1       5.1306   7.8887  -1.2664   C.1       1 RES1   0.0000
     3 C2       6.1061   7.1271  -0.5163   C.3       1 RES1   0.0000
     4 H1       5.9880   7.2913   0.4227   H         1 RES1   0.0000
     5 H2       6.9913   7.3926  -0.7789   H         1 RES1   0.0000
     6 H3       5.9882   6.1908  -0.6943   H         1 RES1   0.0000
     7 C3       5.8832   2.1399   4.0455   C.ar      2 RES2   0.0000
     8 C4       7.3098   1.9198   4.3603   C.ar      2 RES2   0.0000
     9 H4       7.7970   2.3425   5.0295   H         2 RES2   0.0000
    10 C5       7.7847   0.9660   3.4771   C.ar      2 RES2   0.0000
    11 H5       8.6823   0.7337   3.5491   H         2 RES2   0.0000
    12 C6       6.9930   0.2847   2.4284   C.ar      2 RES2   0.0000
    13 H6       7.3493  -0.3861   1.8906   H         2 RES2   0.0000
    14 C7       5.8950   0.6533   2.3277   C.ar      2 RES2   0.0000
    15 H7       5.4086   0.2550   1.6423   H         2 RES2   0.0000
    16 C8       5.2542   1.5163   3.0130   C.ar      2 RES2   0.0000
    17 H8       4.3693   1.7171   2.8115   H         2 RES2   0.0000
    18 C9       5.3803   3.1408   4.7758   C.3       2 RES2   0.0000
    19 H9       4.9175   3.7557   4.2002   H         2 RES2   0.0000
    20 H10      6.0935   3.6002   5.2256   H         2 RES2   0.0000
    21 H11      4.7685   2.7880   5.4252   H         2 RES2   0.0000
    22 P1       4.2174   3.4133  -1.3272   P.3       3 RES3  -1.0000
    23 F1       4.4438   2.0683  -0.5918   F         3 RES3   0.0000
    24 F2       5.7903   3.5740  -1.4768   F         3 RES3   0.0000
    25 F3       4.1483   2.6325  -2.6371   F         3 RES3   0.0000
    26 F4       4.0313   4.7724  -2.0327   F         3 RES3   0.0000
    27 F5       2.6651   3.2771  -1.1368   F         3 RES3   0.0000
    28 F6       4.3370   4.2081   0.0468   F         3 RES3   0.0000
    29 P2       3.9393   7.9424   3.6545   P.3       4 RES4  -1.0000
    30 F7       3.4001   9.3858   3.7379   F         4 RES4   0.0000
    31 F8       4.7387   8.3132   4.8370   F         4 RES4   0.0000
    32 F9       4.9892   8.5298   2.7450   F         4 RES4   0.0000
    33 F10      4.2516   6.5000   3.4573   F         4 RES4   0.0000
    34 F11      2.8476   7.7280   2.5849   F         4 RES4   0.0000
    35 F12      2.8146   7.4450   4.6625   F         4 RES4   0.0000
    36 Fe1     -1.3628   4.3374   1.8850   Fe        5 RES5   2.0000
    37 N2      -0.6006   5.8610   0.3241   N.ar      5 RES5   0.0000
    38 N3      -3.6717   4.6597   1.8474   N.ar      5 RES5   0.0000
    39 N4      -1.3553   2.3313   0.7897   N.ar      5 RES5   0.0000
    40 N5       0.0974   4.5021   4.7649   N.3       5 RES5   0.0000
    41 N6      -1.6819   6.0154   3.1758   N.2       5 RES5   0.0000
    42 N7      -1.7906   2.8580   3.4177   N.2       5 RES5   0.0000
    43 N8       0.7821   4.2712   2.0307   N.2       5 RES5   0.0000
    44 C10      1.4634   4.2518   4.3585   C.3       5 RES5   0.0000
    45 H12      1.9123   3.7313   5.0439   H         5 RES5   0.0000
    46 H13      1.9318   5.0955   4.2668   H         5 RES5   0.0000
    47 C11      1.5142   3.4972   3.0400   C.3       5 RES5   0.0000
    48 H14      2.4350   3.3784   2.7612   H         5 RES5   0.0000
    49 H15      1.1105   2.6220   3.1425   H         5 RES5   0.0000
    50 C12     -0.2432   5.8764   5.1272   C.3       5 RES5   0.0000
    51 H16      0.5142   6.2886   5.5709   H         5 RES5   0.0000
    52 H17     -0.9885   5.8694   5.7490   H         5 RES5   0.0000
    53 C13     -0.6195   6.7009   3.9016   C.3       5 RES5   0.0000
    54 H18     -0.9226   7.5813   4.1750   H         5 RES5   0.0000
    55 H19      0.1549   6.8109   3.3260   H         5 RES5   0.0000
    56 C14     -0.5906   3.4535   5.4705   C.3       5 RES5   0.0000
    57 H20     -0.7149   3.7173   6.3948   H         5 RES5   0.0000
    58 H21     -0.0457   2.6500   5.4612   H         5 RES5   0.0000
    59 C15     -1.9499   3.1426   4.8496   C.3       5 RES5   0.0000
    60 H22     -2.3467   2.3774   5.2939   H         5 RES5   0.0000
    61 H23     -2.5446   3.9007   4.9683   H         5 RES5   0.0000
    62 C16     -1.9001   1.6605   3.0287   C.2       5 RES5   0.0000
    63 H24     -2.0955   0.9887   3.6426   H         5 RES5   0.0000
    64 C17     -1.7203   1.3269   1.6135   C.ar      5 RES5   0.0000
    65 C18     -1.9478   0.0279   1.1998   C.ar      5 RES5   0.0000
    66 H25     -2.1759  -0.6358   1.8096   H         5 RES5   0.0000
    67 C19     -1.8283  -0.2568  -0.1457   C.ar      5 RES5   0.0000
    68 H26     -2.0096  -1.1092  -0.4677   H         5 RES5   0.0000
    69 C20     -1.4363   0.7424  -0.9983   C.ar      5 RES5   0.0000
    70 H27     -1.3345   0.5625  -1.9049   H         5 RES5   0.0000
    71 C21     -1.1853   2.0333  -0.5119   C.ar      5 RES5   0.0000
    72 C22     -0.7391   3.1076  -1.4373   C.3       5 RES5   0.0000
    73 H28     -1.3838   3.8203  -1.4373   H         5 RES5   0.0000
    74 H29     -0.6545   2.7530  -2.3259   H         5 RES5   0.0000
    75 H30      0.1112   3.4465  -1.1476   H         5 RES5   0.0000
    76 C23     -2.8862   6.3305   3.3944   C.2       5 RES5   0.0000
    77 H31     -3.0752   7.0345   3.9718   H         5 RES5   0.0000
    78 C24     -3.9885   5.6143   2.7626   C.ar      5 RES5   0.0000
    79 C25     -5.2965   5.9096   3.1101   C.ar      5 RES5   0.0000
    80 H32     -5.4827   6.5594   3.7505   H         5 RES5   0.0000
    81 C26     -6.3171   5.2248   2.4914   C.ar      5 RES5   0.0000
    82 H33     -7.2035   5.4047   2.7090   H         5 RES5   0.0000
    83 C27     -6.0196   4.2920   1.5722   C.ar      5 RES5   0.0000
    84 H34     -6.7017   3.8203   1.1530   H         5 RES5   0.0000
    85 C28     -4.6807   4.0300   1.2430   C.ar      5 RES5   0.0000
    86 C29     -4.3938   3.0447   0.1709   C.3       5 RES5   0.0000
    87 H35     -3.6547   3.3539  -0.3580   H         5 RES5   0.0000
    88 H36     -5.1682   2.9469  -0.3885   H         5 RES5   0.0000
    89 H37     -4.1741   2.1975   0.5648   H         5 RES5   0.0000
    90 C30      1.4376   5.0379   1.2714   C.2       5 RES5   0.0000
    91 H38      2.3678   5.0379   1.3095   H         5 RES5   0.0000
    92 C31      0.7563   5.9230   0.3348   C.ar      5 RES5   0.0000
    93 C32      1.4867   6.7795  -0.4641   C.ar      5 RES5   0.0000
    94 H39      2.4155   6.7917  -0.4191   H         5 RES5   0.0000
    95 C33      0.8229   7.6040  -1.3185   C.ar      5 RES5   0.0000
    96 H40      1.2908   8.1874  -1.8708   H         5 RES5   0.0000
    97 C34     -0.5448   7.5621  -1.3545   C.ar      5 RES5   0.0000
    98 H41     -1.0117   8.1193  -1.9355   H         5 RES5   0.0000
    99 C35     -1.2388   6.6834  -0.5188   C.ar      5 RES5   0.0000
   100 C36     -2.7418   6.6467  -0.5486   C.3       5 RES5   0.0000
   101 H42     -3.0413   5.7401  -0.4443   H         5 RES5   0.0000
   102 H43     -3.0535   6.9909  -1.3887   H         5 RES5   0.0000
   103 H44     -3.0897   7.1830   0.1655   H         5 RES5   0.0000
@<TRIPOS>BOND
     1     1     2    3
     2     2     3    1
     3     3     4    1
     4     5     3    1
     5     6     3    1
     6     7     8   ar
     7     8     9    1
     8    10     8   ar
     9    11    10    1
    10    12    10   ar
    11    13    12    1
    12    14    12   ar
    13    15    14    1
    14    16     7   ar
    15    17    16    1
    16    18     7    1
    17    19    18    1
    18    20    18    1
    19    21    18    1
    20    14    16   ar
    21    22    23    1
    22    24    22    1
    23    25    22    1
    24    26    22    1
    25    27    22    1
    26    28    22    1
    27    29    30    1
    28    31    29    1
    29    32    29    1
    30    33    29    1
    31    34    29    1
    32    35    29    1
    33    36    37    1
    34    37    92   ar
    35    38    36    1
    36    39    36    1
    37    40    44    1
    38    41    36    1
    39    42    36    1
    40    43    36    1
    41    44    45    1
    42    46    44    1
    43    47    43    1
    44    48    47    1
    45    49    47    1
    46    50    40    1
    47    51    50    1
    48    52    50    1
    49    53    41    1
    50    54    53    1
    51    55    53    1
    52    56    40    1
    53    57    56    1
    54    58    56    1
    55    59    42    1
    56    60    59    1
    57    61    59    1
    58    62    42    2
    59    63    62    1
    60    64    39   ar
    61    65    64   ar
    62    66    65    1
    63    67    65   ar
    64    68    67    1
    65    69    67   ar
    66    70    69    1
    67    71    39   ar
    68    72    71    1
    69    73    72    1
    70    74    72    1
    71    75    72    1
    72    76    41    2
    73    77    76    1
    74    78    38   ar
    75    79    78   ar
    76    80    79    1
    77    81    79   ar
    78    82    81    1
    79    83    81   ar
    80    84    83    1
    81    85    38   ar
    82    86    85    1
    83    87    86    1
    84    88    86    1
    85    89    86    1
    86    90    43    2
    87    91    90    1
    88    92    90    1
    89    93    92   ar
    90    94    93    1
    91    95    93   ar
    92    96    95    1
    93    97    95   ar
    94    98    97    1
    95    99    37   ar
    96   100    99    1
    97   101   100    1
    98   102   100    1
    99   103   100    1
   100    44    47    1
   101    50    53    1
   102    56    59    1
   103    62    64    1
   104    69    71   ar
   105    76    78    1
   106    83    85   ar
   107    97    99   ar
@<TRIPOS>SUBSTRUCTURE
     1 RES1        1 GROUP             0 ****  ****    0  
     2 RES2        7 GROUP             0 ****  ****    0  
     3 RES3       22 GROUP             0 ****  ****    0  
     4 RES4       29 GROUP             0 ****  ****    0  
     5 RES5       36 GROUP             0 ****  ****    0  
@<TRIPOS>CRYSIN
   13.4040   17.4684   18.3855   90.0000  101.9340   90.0000   231     1
