@<TRIPOS>MOLECULE
QIMWAM03
   103   107     5     0     0
SMALL
USER_CHARGES
****
Generated from the CSD

@<TRIPOS>ATOM
     1 N1       4.3071   8.1649  -1.9627   N.1       1 RES1   0.0000
     2 C1       5.1198   7.6185  -1.3618   C.1       1 RES1   0.0000
     3 C2       6.1629   6.9245  -0.6043   C.3       1 RES1   0.0000
     4 H1       7.0421   7.2681  -0.8673   H         1 RES1   0.0000
     5 H2       6.1180   5.9632  -0.7928   H         1 RES1   0.0000
     6 H3       6.0264   7.0776   0.3547   H         1 RES1   0.0000
     7 C3       5.6697   1.9385   3.8061   C.ar      2 RES2   0.0000
     8 C4       6.9949   1.5853   4.0184   C.ar      2 RES2   0.0000
     9 H4       7.4742   1.9759   4.7392   H         2 RES2   0.0000
    10 C5       7.6311   0.6643   3.1885   C.ar      2 RES2   0.0000
    11 H5       8.5396   0.4333   3.3487   H         2 RES2   0.0000
    12 C6       6.9525   0.0845   2.1318   C.ar      2 RES2   0.0000
    13 H6       7.3885  -0.5395   1.5644   H         2 RES2   0.0000
    14 C7       5.6394   0.4203   1.9133   C.ar      2 RES2   0.0000
    15 H7       5.1660   0.0270   1.1901   H         2 RES2   0.0000
    16 C8       4.9986   1.3334   2.7456   C.ar      2 RES2   0.0000
    17 H8       4.0869   1.5477   2.5878   H         2 RES2   0.0000
    18 C9       4.9772   2.9481   4.6701   C.3       2 RES2   0.0000
    19 H9       4.0657   3.0887   4.3402   H         2 RES2   0.0000
    20 H10      5.4696   3.7951   4.6417   H         2 RES2   0.0000
    21 H11      4.9440   2.6200   5.5924   H         2 RES2   0.0000
    22 P1       4.1010   3.4601  -1.3923   P.3       3 RES3  -1.0000
    23 F1       4.3359   2.2123  -0.4165   F         3 RES3   0.0000
    24 F2       5.6934   3.5862  -1.6030   F         3 RES3   0.0000
    25 F3       4.0122   2.4689  -2.6509   F         3 RES3   0.0000
    26 F4       3.8770   4.7191  -2.3537   F         3 RES3   0.0000
    27 F5       2.5145   3.3421  -1.1662   F         3 RES3   0.0000
    28 F6       4.2033   4.4560  -0.1268   F         3 RES3   0.0000
    29 P2       3.5883   7.6610   3.6571   P.3       4 RES4  -1.0000
    30 F7       3.0601   9.1746   3.5443   F         4 RES4   0.0000
    31 F8       4.4846   8.0732   4.9198   F         4 RES4   0.0000
    32 F9       4.8142   8.0108   2.6800   F         4 RES4   0.0000
    33 F10      4.0972   6.1436   3.7813   F         4 RES4   0.0000
    34 F11      2.6865   7.2573   2.3953   F         4 RES4   0.0000
    35 F12      2.3596   7.3204   4.6374   F         4 RES4   0.0000
    36 Fe1     -1.4881   4.1734   1.8627   Fe        5 RES5   2.0000
    37 N2      -0.6270   5.6564   0.3507   N.ar      5 RES5   0.0000
    38 N3      -3.7861   4.4843   1.7680   N.ar      5 RES5   0.0000
    39 N4      -1.4621   2.1944   0.7769   N.ar      5 RES5   0.0000
    40 N5      -0.1463   4.3322   4.8089   N.3       5 RES5   0.0000
    41 N6      -1.8436   5.8464   3.1413   N.2       5 RES5   0.0000
    42 N7      -1.9983   2.7279   3.3964   N.2       5 RES5   0.0000
    43 N8       0.6465   4.0446   2.1066   N.2       5 RES5   0.0000
    44 C10      1.2357   4.0453   4.4718   C.3       5 RES5   0.0000
    45 H12      1.6482   3.5152   5.1986   H         5 RES5   0.0000
    46 H13      1.7378   4.8943   4.3916   H         5 RES5   0.0000
    47 C11      1.3361   3.2672   3.1534   C.3       5 RES5   0.0000
    48 H14      2.2850   3.1342   2.9088   H         5 RES5   0.0000
    49 H15      0.9114   2.3789   3.2511   H         5 RES5   0.0000
    50 C12     -0.4811   5.7049   5.1493   C.3       5 RES5   0.0000
    51 H16      0.2783   6.1149   5.6332   H         5 RES5   0.0000
    52 H17     -1.2640   5.7069   5.7573   H         5 RES5   0.0000
    53 C13     -0.8034   6.5452   3.9171   C.3       5 RES5   0.0000
    54 H18     -1.1271   7.4401   4.1912   H         5 RES5   0.0000
    55 H19      0.0109   6.6629   3.3646   H         5 RES5   0.0000
    56 C14     -0.8771   3.2837   5.4851   C.3       5 RES5   0.0000
    57 H20     -1.0268   3.5456   6.4278   H         5 RES5   0.0000
    58 H21     -0.3363   2.4547   5.4806   H         5 RES5   0.0000
    59 C15     -2.2186   3.0126   4.8191   C.3       5 RES5   0.0000
    60 H22     -2.6590   2.2389   5.2536   H         5 RES5   0.0000
    61 H23     -2.8077   3.8018   4.9166   H         5 RES5   0.0000
    62 C16     -2.0651   1.5275   3.0037   C.2       5 RES5   0.0000
    63 H24     -2.2818   0.8447   3.6272   H         5 RES5   0.0000
    64 C17     -1.8142   1.1716   1.6084   C.ar      5 RES5   0.0000
    65 C18     -1.9919  -0.1298   1.1921   C.ar      5 RES5   0.0000
    66 H25     -2.2266  -0.8109   1.8127   H         5 RES5   0.0000
    67 C19     -1.8200  -0.4242  -0.1531   C.ar      5 RES5   0.0000
    68 H26     -1.9580  -1.3049  -0.4789   H         5 RES5   0.0000
    69 C20     -1.4473   0.5860  -0.9995   C.ar      5 RES5   0.0000
    70 H27     -1.3122   0.4013  -1.9209   H         5 RES5   0.0000
    71 C21     -1.2619   1.8876  -0.5218   C.ar      5 RES5   0.0000
    72 C22     -0.8359   2.9939  -1.4555   C.3       5 RES5   0.0000
    73 H28     -1.4898   3.7226  -1.4172   H         5 RES5   0.0000
    74 H29     -0.7857   2.6469  -2.3714   H         5 RES5   0.0000
    75 H30      0.0439   3.3298  -1.1848   H         5 RES5   0.0000
    76 C23     -3.0640   6.1423   3.3533   C.2       5 RES5   0.0000
    77 H31     -3.2735   6.8483   3.9535   H         5 RES5   0.0000
    78 C24     -4.1458   5.4186   2.6935   C.ar      5 RES5   0.0000
    79 C25     -5.4532   5.7080   3.0094   C.ar      5 RES5   0.0000
    80 H32     -5.6572   6.3661   3.6626   H         5 RES5   0.0000
    81 C26     -6.4727   5.0194   2.3549   C.ar      5 RES5   0.0000
    82 H33     -7.3848   5.1927   2.5523   H         5 RES5   0.0000
    83 C27     -6.1197   4.0878   1.4212   C.ar      5 RES5   0.0000
    84 H34     -6.7966   3.6029   0.9631   H         5 RES5   0.0000
    85 C28     -4.7841   3.8382   1.1307   C.ar      5 RES5   0.0000
    86 C29     -4.4488   2.8302   0.0649   C.3       5 RES5   0.0000
    87 H35     -3.7066   3.1662  -0.4807   H         5 RES5   0.0000
    88 H36     -5.2337   2.6840  -0.5037   H         5 RES5   0.0000
    89 H37     -4.1884   1.9844   0.4860   H         5 RES5   0.0000
    90 C30      1.3657   4.7508   1.3240   C.2       5 RES5   0.0000
    91 H38      2.3127   4.6920   1.3657   H         5 RES5   0.0000
    92 C31      0.7274   5.6513   0.3615   C.ar      5 RES5   0.0000
    93 C32      1.5065   6.4575  -0.4510   C.ar      5 RES5   0.0000
    94 H39      2.4546   6.4167  -0.4133   H         5 RES5   0.0000
    95 C33      0.8622   7.3285  -1.3251   C.ar      5 RES5   0.0000
    96 H40      1.3624   7.8902  -1.9049   H         5 RES5   0.0000
    97 C34     -0.5116   7.3587  -1.3301   C.ar      5 RES5   0.0000
    98 H41     -0.9692   7.9526  -1.9138   H         5 RES5   0.0000
    99 C35     -1.2383   6.5214  -0.4830   C.ar      5 RES5   0.0000
   100 C36     -2.7425   6.5649  -0.4596   C.3       5 RES5   0.0000
   101 H42     -3.0977   5.6665  -0.6261   H         5 RES5   0.0000
   102 H43     -3.0624   7.1771  -1.1547   H         5 RES5   0.0000
   103 H44     -3.0468   6.8787   0.4168   H         5 RES5   0.0000
@<TRIPOS>BOND
     1     1     2    3
     2     2     3    1
     3     3     4    1
     4     5     3    1
     5     6     3    1
     6     7     8   ar
     7     8     9    1
     8    10     8   ar
     9    11    10    1
    10    12    10   ar
    11    13    12    1
    12    14    12   ar
    13    15    14    1
    14    16     7   ar
    15    17    16    1
    16    18     7    1
    17    19    18    1
    18    20    18    1
    19    21    18    1
    20    14    16   ar
    21    22    23    1
    22    24    22    1
    23    25    22    1
    24    26    22    1
    25    27    22    1
    26    28    22    1
    27    29    30    1
    28    31    29    1
    29    32    29    1
    30    33    29    1
    31    34    29    1
    32    35    29    1
    33    36    37    1
    34    37    92   ar
    35    38    36    1
    36    39    36    1
    37    40    44    1
    38    41    36    1
    39    42    36    1
    40    43    36    1
    41    44    45    1
    42    46    44    1
    43    47    43    1
    44    48    47    1
    45    49    47    1
    46    50    40    1
    47    51    50    1
    48    52    50    1
    49    53    41    1
    50    54    53    1
    51    55    53    1
    52    56    40    1
    53    57    56    1
    54    58    56    1
    55    59    42    1
    56    60    59    1
    57    61    59    1
    58    62    42    2
    59    63    62    1
    60    64    39   ar
    61    65    64   ar
    62    66    65    1
    63    67    65   ar
    64    68    67    1
    65    69    67   ar
    66    70    69    1
    67    71    39   ar
    68    72    71    1
    69    73    72    1
    70    74    72    1
    71    75    72    1
    72    76    41    2
    73    77    76    1
    74    78    38   ar
    75    79    78   ar
    76    80    79    1
    77    81    79   ar
    78    82    81    1
    79    83    81   ar
    80    84    83    1
    81    85    38   ar
    82    86    85    1
    83    87    86    1
    84    88    86    1
    85    89    86    1
    86    90    43    2
    87    91    90    1
    88    92    90    1
    89    93    92   ar
    90    94    93    1
    91    95    93   ar
    92    96    95    1
    93    97    95   ar
    94    98    97    1
    95    99    37   ar
    96   100    99    1
    97   101   100    1
    98   102   100    1
    99   103   100    1
   100    44    47    1
   101    50    53    1
   102    56    59    1
   103    62    64    1
   104    69    71   ar
   105    76    78    1
   106    83    85   ar
   107    97    99   ar
@<TRIPOS>SUBSTRUCTURE
     1 RES1        1 GROUP             0 ****  ****    0  
     2 RES2        7 GROUP             0 ****  ****    0  
     3 RES3       22 GROUP             0 ****  ****    0  
     4 RES4       29 GROUP             0 ****  ****    0  
     5 RES5       36 GROUP             0 ****  ****    0  
@<TRIPOS>CRYSIN
   13.2599   16.8595   18.2715   90.0000  103.8970   90.0000   231     1
