@<TRIPOS>MOLECULE
QIMWAM02
   103   107     5     0     0
SMALL
USER_CHARGES
****
Generated from the CSD

@<TRIPOS>ATOM
     1 N1       4.2161   8.2155  -1.9700   N.1       1 RES1   0.0000
     2 C1       4.9597   7.6578  -1.3118   C.1       1 RES1   0.0000
     3 C2       5.9073   6.9371  -0.4675   C.3       1 RES1   0.0000
     4 H1       6.8216   7.2033  -0.7013   H         1 RES1   0.0000
     5 H2       5.8031   5.9723  -0.6088   H         1 RES1   0.0000
     6 H3       5.7360   7.1508   0.4727   H         1 RES1   0.0000
     7 C3       5.5532   1.9356   3.7275   C.ar      2 RES2   0.0000
     8 C4       6.8538   1.5563   4.0601   C.ar      2 RES2   0.0000
     9 H4       7.2806   1.9382   4.8181   H         2 RES2   0.0000
    10 C5       7.5278   0.6183   3.2830   C.ar      2 RES2   0.0000
    11 H5       8.4145   0.3646   3.5098   H         2 RES2   0.0000
    12 C6       6.9106   0.0534   2.1770   C.ar      2 RES2   0.0000
    13 H6       7.3721  -0.5901   1.6502   H         2 RES2   0.0000
    14 C7       5.6314   0.4255   1.8421   C.ar      2 RES2   0.0000
    15 H7       5.2106   0.0492   1.0763   H         2 RES2   0.0000
    16 C8       4.9481   1.3600   2.6306   C.ar      2 RES2   0.0000
    17 H8       4.0566   1.6007   2.4073   H         2 RES2   0.0000
    18 C9       4.8287   2.9692   4.5496   C.3       2 RES2   0.0000
    19 H9       3.9227   3.0913   4.1971   H         2 RES2   0.0000
    20 H10      5.3144   3.8204   4.5058   H         2 RES2   0.0000
    21 H11      4.7787   2.6690   5.4810   H         2 RES2   0.0000
    22 P1       3.9261   3.4034  -1.3003   P.3       3 RES3  -1.0000
    23 F1       4.1471   2.1069  -0.3981   F         3 RES3   0.0000
    24 F2       5.5234   3.5381  -1.4910   F         3 RES3   0.0000
    25 F3       3.8448   2.4850  -2.6100   F         3 RES3   0.0000
    26 F4       3.7202   4.7205  -2.1872   F         3 RES3   0.0000
    27 F5       2.3413   3.2768  -1.0943   F         3 RES3   0.0000
    28 F6       4.0225   4.3242   0.0159   F         3 RES3   0.0000
    29 P2       3.6489   7.6515   3.5588   P.3       4 RES4  -1.0000
    30 F7       3.2004   9.1875   3.4342   F         4 RES4   0.0000
    31 F8       4.4721   8.0100   4.8847   F         4 RES4   0.0000
    32 F9       4.9544   7.9620   2.6780   F         4 RES4   0.0000
    33 F10      4.0800   6.1191   3.6950   F         4 RES4   0.0000
    34 F11      2.8295   7.3037   2.2266   F         4 RES4   0.0000
    35 F12      2.3442   7.3539   4.4404   F         4 RES4   0.0000
    36 Fe1     -1.5593   4.1633   1.8969   Fe        5 RES5   2.0000
    37 N2      -0.8536   5.5251   0.4743   N.ar      5 RES5   0.0000
    38 N3      -3.6394   4.4292   1.7786   N.ar      5 RES5   0.0000
    39 N4      -1.4905   2.3704   0.8207   N.ar      5 RES5   0.0000
    40 N5      -0.0411   4.3423   5.1030   N.3       5 RES5   0.0000
    41 N6      -1.7395   5.7210   3.0763   N.2       5 RES5   0.0000
    42 N7      -2.0084   2.8951   3.3482   N.2       5 RES5   0.0000
    43 N8       0.3677   3.9666   2.1797   N.2       5 RES5   0.0000
    44 C10      1.1837   3.8955   4.5105   C.3       5 RES5   0.0000
    45 H12      1.6470   3.3100   5.1600   H         5 RES5   0.0000
    46 H13      1.7598   4.6852   4.3576   H         5 RES5   0.0000
    47 C11      1.0487   3.1342   3.1888   C.3       5 RES5   0.0000
    48 H14      1.9481   2.8827   2.8591   H         5 RES5   0.0000
    49 H15      0.5312   2.3028   3.3371   H         5 RES5   0.0000
    50 C12     -0.3755   5.7506   5.1427   C.3       5 RES5   0.0000
    51 H16      0.3738   6.2351   5.5717   H         5 RES5   0.0000
    52 H17     -1.1715   5.8654   5.7200   H         5 RES5   0.0000
    53 C13     -0.6635   6.4123   3.7901   C.3       5 RES5   0.0000
    54 H18     -0.9213   7.3576   3.9354   H         5 RES5   0.0000
    55 H19      0.1576   6.3996   3.2376   H         5 RES5   0.0000
    56 C14     -0.9942   3.3641   5.5671   C.3       5 RES5   0.0000
    57 H20     -1.2402   3.5915   6.4980   H         5 RES5   0.0000
    58 H21     -0.5442   2.4825   5.5874   H         5 RES5   0.0000
    59 C15     -2.2749   3.2256   4.7577   C.3       5 RES5   0.0000
    60 H22     -2.8378   2.5147   5.1582   H         5 RES5   0.0000
    61 H23     -2.7818   4.0748   4.8024   H         5 RES5   0.0000
    62 C16     -2.0610   1.6791   3.0083   C.2       5 RES5   0.0000
    63 H24     -2.2768   1.0123   3.6493   H         5 RES5   0.0000
    64 C17     -1.7913   1.3099   1.6373   C.ar      5 RES5   0.0000
    65 C18     -1.9207   0.0185   1.2031   C.ar      5 RES5   0.0000
    66 H25     -2.1368  -0.6766   1.8142   H         5 RES5   0.0000
    67 C19     -1.7342  -0.2586  -0.1333   C.ar      5 RES5   0.0000
    68 H26     -1.8249  -1.1429  -0.4675   H         5 RES5   0.0000
    69 C20     -1.4138   0.7832  -0.9654   C.ar      5 RES5   0.0000
    70 H27     -1.2816   0.6138  -1.8910   H         5 RES5   0.0000
    71 C21     -1.2771   2.0820  -0.4876   C.ar      5 RES5   0.0000
    72 C22     -0.9306   3.1732  -1.4486   C.3       5 RES5   0.0000
    73 H28     -0.0791   3.5813  -1.1862   H         5 RES5   0.0000
    74 H29     -1.6352   3.8543  -1.4391   H         5 RES5   0.0000
    75 H30     -0.8499   2.7996  -2.3515   H         5 RES5   0.0000
    76 C23     -2.9255   6.1125   3.2828   C.2       5 RES5   0.0000
    77 H31     -3.0930   6.8659   3.8360   H         5 RES5   0.0000
    78 C24     -4.0227   5.4018   2.6679   C.ar      5 RES5   0.0000
    79 C25     -5.3335   5.7164   2.9491   C.ar      5 RES5   0.0000
    80 H32     -5.5431   6.4097   3.5656   H         5 RES5   0.0000
    81 C26     -6.3325   5.0110   2.3237   C.ar      5 RES5   0.0000
    82 H33     -7.2458   5.1871   2.5120   H         5 RES5   0.0000
    83 C27     -5.9707   4.0405   1.4159   C.ar      5 RES5   0.0000
    84 H34     -6.6459   3.5457   0.9682   H         5 RES5   0.0000
    85 C28     -4.6364   3.7719   1.1450   C.ar      5 RES5   0.0000
    86 C29     -4.3549   2.7696   0.0637   C.3       5 RES5   0.0000
    87 H35     -3.6545   3.1150  -0.5286   H         5 RES5   0.0000
    88 H36     -5.1716   2.6097  -0.4553   H         5 RES5   0.0000
    89 H37     -4.0556   1.9280   0.4675   H         5 RES5   0.0000
    90 C30      1.1285   4.6566   1.4107   C.2       5 RES5   0.0000
    91 H38      2.0741   4.5750   1.4566   H         5 RES5   0.0000
    92 C31      0.5065   5.5590   0.4736   C.ar      5 RES5   0.0000
    93 C32      1.2593   6.3902  -0.3361   C.ar      5 RES5   0.0000
    94 H39      2.2083   6.3657  -0.3035   H         5 RES5   0.0000
    95 C33      0.6054   7.2574  -1.1935   C.ar      5 RES5   0.0000
    96 H40      1.0892   7.8409  -1.7671   H         5 RES5   0.0000
    97 C34     -0.7718   7.2452  -1.1874   C.ar      5 RES5   0.0000
    98 H41     -1.2432   7.8358  -1.7636   H         5 RES5   0.0000
    99 C35     -1.4892   6.3885  -0.3574   C.ar      5 RES5   0.0000
   100 C36     -2.9807   6.4165  -0.4164   C.3       5 RES5   0.0000
   101 H42     -3.3160   5.5212  -0.6262   H         5 RES5   0.0000
   102 H43     -3.2678   7.0456  -1.1112   H         5 RES5   0.0000
   103 H44     -3.3359   6.7031   0.4501   H         5 RES5   0.0000
@<TRIPOS>BOND
     1     1     2    3
     2     2     3    1
     3     3     4    1
     4     5     3    1
     5     6     3    1
     6     7     8   ar
     7     8     9    1
     8    10     8   ar
     9    11    10    1
    10    12    10   ar
    11    13    12    1
    12    14    12   ar
    13    15    14    1
    14    16     7   ar
    15    17    16    1
    16    18     7    1
    17    19    18    1
    18    20    18    1
    19    21    18    1
    20    14    16   ar
    21    22    23    1
    22    24    22    1
    23    25    22    1
    24    26    22    1
    25    27    22    1
    26    28    22    1
    27    29    30    1
    28    31    29    1
    29    32    29    1
    30    33    29    1
    31    34    29    1
    32    35    29    1
    33    36    37    1
    34    37    92   ar
    35    38    36    1
    36    39    36    1
    37    40    44    1
    38    41    36    1
    39    42    36    1
    40    43    36    1
    41    44    45    1
    42    46    44    1
    43    47    43    1
    44    48    47    1
    45    49    47    1
    46    50    40    1
    47    51    50    1
    48    52    50    1
    49    53    41    1
    50    54    53    1
    51    55    53    1
    52    56    40    1
    53    57    56    1
    54    58    56    1
    55    59    42    1
    56    60    59    1
    57    61    59    1
    58    62    42    2
    59    63    62    1
    60    64    39   ar
    61    65    64   ar
    62    66    65    1
    63    67    65   ar
    64    68    67    1
    65    69    67   ar
    66    70    69    1
    67    71    39   ar
    68    72    71    1
    69    73    72    1
    70    74    72    1
    71    75    72    1
    72    76    41    2
    73    77    76    1
    74    78    38   ar
    75    79    78   ar
    76    80    79    1
    77    81    79   ar
    78    82    81    1
    79    83    81   ar
    80    84    83    1
    81    85    38   ar
    82    86    85    1
    83    87    86    1
    84    88    86    1
    85    89    86    1
    86    90    43    2
    87    91    90    1
    88    92    90    1
    89    93    92   ar
    90    94    93    1
    91    95    93   ar
    92    96    95    1
    93    97    95   ar
    94    98    97    1
    95    99    37   ar
    96   100    99    1
    97   101   100    1
    98   102   100    1
    99   103   100    1
   100    44    47    1
   101    50    53    1
   102    56    59    1
   103    62    64    1
   104    69    71   ar
   105    76    78    1
   106    83    85   ar
   107    97    99   ar
@<TRIPOS>SUBSTRUCTURE
     1 RES1        1 GROUP             0 ****  ****    0  
     2 RES2        7 GROUP             0 ****  ****    0  
     3 RES3       22 GROUP             0 ****  ****    0  
     4 RES4       29 GROUP             0 ****  ****    0  
     5 RES5       36 GROUP             0 ****  ****    0  
@<TRIPOS>CRYSIN
   13.0765   16.9570   17.9940   90.0000  104.2000   90.0000   231     1
