@<TRIPOS>MOLECULE
QINZEU
   104   109     2     0     0
SMALL
NO_CHARGES
****
Generated from the CSD

@<TRIPOS>ATOM
     1 Fe1     10.3501   3.4049   3.0035   Fe        1 RES1   0.0000
     2 Si1      8.1839   3.3550   2.0967   Si        1 RES1   0.0000
     3 C1      10.4913   4.9137   2.0591   C.1       1 RES1   0.0000
     4 O1      10.5702   5.8531   1.4060   O.2       1 RES1   0.0000
     5 C2      10.1352   1.6731   3.3391   C.1       1 RES1   0.0000
     6 O2      10.0233   0.5371   3.5011   O.2       1 RES1   0.0000
     7 C3       9.6956   4.0723   4.5252   C.1       1 RES1   0.0000
     8 O3       9.1796   4.4889   5.4696   O.2       1 RES1   0.0000
     9 C4      12.2974   3.2774   3.4276   C.3       1 RES1   0.0000
    10 N1      12.9025   3.2823   4.6381   N.pl3     1 RES1   0.0000
    11 C5      14.2607   3.0020   4.5343   C.2       1 RES1   0.0000
    12 H1      14.8848   2.9465   5.2482   H         1 RES1   0.0000
    13 C6      14.5143   2.8251   3.2354   C.2       1 RES1   0.0000
    14 H2      15.3579   2.6200   2.8480   H         1 RES1   0.0000
    15 N2      13.3178   2.9986   2.5615   N.pl3     1 RES1   0.0000
    16 C7      12.3271   3.7465   5.8802   C.ar      1 RES1   0.0000
    17 C8      11.8798   2.8227   6.8306   C.ar      1 RES1   0.0000
    18 C9      11.3720   3.3188   8.0255   C.ar      1 RES1   0.0000
    19 H3      11.0537   2.7086   8.6796   H         1 RES1   0.0000
    20 C10     11.3156   4.6914   8.2928   C.ar      1 RES1   0.0000
    21 C11     11.7796   5.5743   7.3180   C.ar      1 RES1   0.0000
    22 H4      11.7417   6.5087   7.4845   H         1 RES1   0.0000
    23 C12     12.2954   5.1227   6.1121   C.ar      1 RES1   0.0000
    24 C13     11.9584   1.3340   6.5836   C.3       1 RES1   0.0000
    25 H5      12.3387   1.1692   5.6961   H         1 RES1   0.0000
    26 H6      11.0592   0.9479   6.6302   H         1 RES1   0.0000
    27 H7      12.5272   0.9189   7.2648   H         1 RES1   0.0000
    28 C14     10.7704   5.2127   9.6077   C.3       1 RES1   0.0000
    29 H8      10.2206   4.5209  10.0301   H         1 RES1   0.0000
    30 H9      10.2245   6.0087   9.4426   H         1 RES1   0.0000
    31 H10     11.5161   5.4445  10.2013   H         1 RES1   0.0000
    32 C15     12.7809   6.0933   5.0638   C.3       1 RES1   0.0000
    33 H11     13.7012   5.8682   4.8118   H         1 RES1   0.0000
    34 H12     12.7540   7.0036   5.4251   H         1 RES1   0.0000
    35 H13     12.2046   6.0377   4.2742   H         1 RES1   0.0000
    36 C16     13.2672   3.0483   1.1200   C.ar      1 RES1   0.0000
    37 C17     13.5927   4.2552   0.4963   C.ar      1 RES1   0.0000
    38 C18     13.5508   4.2881  -0.8949   C.ar      1 RES1   0.0000
    39 H14     13.7619   5.0996  -1.3434   H         1 RES1   0.0000
    40 C19     13.2116   3.1759  -1.6421   C.ar      1 RES1   0.0000
    41 C20     12.9204   1.9893  -0.9895   C.ar      1 RES1   0.0000
    42 H15     12.6910   1.2237  -1.5032   H         1 RES1   0.0000
    43 C21     12.9562   1.8899   0.4045   C.ar      1 RES1   0.0000
    44 C22     13.9968   5.4726   1.2823   C.3       1 RES1   0.0000
    45 H16     13.3059   5.6761   1.9467   H         1 RES1   0.0000
    46 H17     14.1003   6.2343   0.6746   H         1 RES1   0.0000
    47 H18     14.8472   5.3001   1.7371   H         1 RES1   0.0000
    48 C23     13.1639   3.2375  -3.1594   C.3       1 RES1   0.0000
    49 H19     12.9056   2.3605  -3.5140   H         1 RES1   0.0000
    50 H20     14.0487   3.4817  -3.5041   H         1 RES1   0.0000
    51 H21     12.5085   3.9086  -3.4385   H         1 RES1   0.0000
    52 C24     12.6767   0.5739   1.0810   C.3       1 RES1   0.0000
    53 H22     12.7448   0.6842   2.0522   H         1 RES1   0.0000
    54 H23     13.3305  -0.0923   0.7815   H         1 RES1   0.0000
    55 H24     11.7734   0.2731   0.8486   H         1 RES1   0.0000
    56 C25      7.1870   4.9083   2.5722   C.ar      1 RES1   0.0000
    57 C26      7.1568   6.0177   1.7178   C.ar      1 RES1   0.0000
    58 H25      7.6060   5.9670   0.8814   H         1 RES1   0.0000
    59 C27      6.4915   7.1899   2.0549   C.ar      1 RES1   0.0000
    60 H26      6.4860   7.9234   1.4504   H         1 RES1   0.0000
    61 C28      5.8345   7.2908   3.2739   C.ar      1 RES1   0.0000
    62 H27      5.3742   8.0884   3.5083   H         1 RES1   0.0000
    63 C29      5.8594   6.2124   4.1457   C.ar      1 RES1   0.0000
    64 H28      5.4255   6.2766   4.9887   H         1 RES1   0.0000
    65 C30      6.5162   5.0373   3.7937   C.ar      1 RES1   0.0000
    66 H29      6.5100   4.3045   4.3983   H         1 RES1   0.0000
    67 C31      7.1461   1.8558   2.6719   C.ar      1 RES1   0.0000
    68 C32      6.9316   1.6074   4.0384   C.ar      1 RES1   0.0000
    69 H30      7.3425   2.1758   4.6806   H         1 RES1   0.0000
    70 C33      6.1339   0.5529   4.4810   C.ar      1 RES1   0.0000
    71 H31      5.9879   0.4240   5.4108   H         1 RES1   0.0000
    72 C34      5.5534  -0.3092   3.5605   C.ar      1 RES1   0.0000
    73 H32      5.0061  -1.0268   3.8563   H         1 RES1   0.0000
    74 C35      5.7762  -0.1169   2.2154   C.ar      1 RES1   0.0000
    75 H33      5.3960  -0.7152   1.5830   H         1 RES1   0.0000
    76 C36      6.5586   0.9530   1.7763   C.ar      1 RES1   0.0000
    77 H34      6.6964   1.0724   0.8443   H         1 RES1   0.0000
    78 C37      8.0985   3.2799   0.1981   C.ar      1 RES1   0.0000
    79 C38      9.1852   3.0097  -0.6388   C.ar      1 RES1   0.0000
    80 H35     10.0477   2.9011  -0.2567   H         1 RES1   0.0000
    81 C39      9.0337   2.8956  -2.0223   C.ar      1 RES1   0.0000
    82 H36      9.7878   2.7071  -2.5685   H         1 RES1   0.0000
    83 C40      7.7883   3.0570  -2.5960   C.ar      1 RES1   0.0000
    84 H37      7.6815   2.9759  -3.5369   H         1 RES1   0.0000
    85 C41      6.6944   3.3374  -1.7907   C.ar      1 RES1   0.0000
    86 H38      5.8362   3.4547  -2.1806   H         1 RES1   0.0000
    87 C42      6.8511   3.4470  -0.4214   C.ar      1 RES1   0.0000
    88 H39      6.0911   3.6410   0.1155   H         1 RES1   0.0000
    89 H40     10.6836   2.8013   1.7470   H         1 RES1   0.0000
    90 C43      8.1018   1.7411   7.5348   C.3       2 RES2   0.0000
    91 H41      8.0485   1.0494   6.8413   H         2 RES2   0.0000
    92 H42      8.4138   1.3397   8.3730   H         2 RES2   0.0000
    93 H43      8.7297   2.4383   7.2534   H         2 RES2   0.0000
    94 C44      6.7382   2.3469   7.7450   C.ar      2 RES2   0.0000
    95 C45      5.6785   1.5867   8.2486   C.ar      2 RES2   0.0000
    96 H44      5.8130   0.6632   8.4300   H         2 RES2   0.0000
    97 C46      4.4477   2.1491   8.4856   C.ar      2 RES2   0.0000
    98 H45      3.7437   1.6152   8.8350   H         2 RES2   0.0000
    99 C47      4.2276   3.4781   8.2208   C.ar      2 RES2   0.0000
   100 H46      3.3779   3.8649   8.3929   H         2 RES2   0.0000
   101 C48      5.2511   4.2522   7.7037   C.ar      2 RES2   0.0000
   102 H47      5.1030   5.1719   7.5116   H         2 RES2   0.0000
   103 C49      6.5003   3.6792   7.4642   C.ar      2 RES2   0.0000
   104 H48      7.1976   4.2133   7.1022   H         2 RES2   0.0000
@<TRIPOS>BOND
     1     1     2    1
     2     2    56    1
     3     3     1    1
     4     4     3    3
     5     5     1    1
     6     6     5    3
     7     7     1    1
     8     8     7    3
     9     9     1    1
    10    10     9    1
    11    11    10    1
    12    12    11    1
    13    13    11    2
    14    14    13    1
    15    15     9    1
    16    16    10    1
    17    17    16   ar
    18    18    17   ar
    19    19    18    1
    20    20    18   ar
    21    21    20   ar
    22    22    21    1
    23    23    16   ar
    24    24    17    1
    25    25    24    1
    26    26    24    1
    27    27    24    1
    28    28    20    1
    29    29    28    1
    30    30    28    1
    31    31    28    1
    32    32    23    1
    33    33    32    1
    34    34    32    1
    35    35    32    1
    36    36    15    1
    37    37    36   ar
    38    38    37   ar
    39    39    38    1
    40    40    38   ar
    41    41    40   ar
    42    42    41    1
    43    43    36   ar
    44    44    37    1
    45    45    44    1
    46    46    44    1
    47    47    44    1
    48    48    40    1
    49    49    48    1
    50    50    48    1
    51    51    48    1
    52    52    43    1
    53    53    52    1
    54    54    52    1
    55    55    52    1
    56    56    57   ar
    57    57    58    1
    58    59    57   ar
    59    60    59    1
    60    61    59   ar
    61    62    61    1
    62    63    61   ar
    63    64    63    1
    64    65    56   ar
    65    66    65    1
    66    67     2    1
    67    68    67   ar
    68    69    68    1
    69    70    68   ar
    70    71    70    1
    71    72    70   ar
    72    73    72    1
    73    74    72   ar
    74    75    74    1
    75    76    67   ar
    76    77    76    1
    77    78     2    1
    78    79    78   ar
    79    80    79    1
    80    81    79   ar
    81    82    81    1
    82    83    81   ar
    83    84    83    1
    84    85    83   ar
    85    86    85    1
    86    87    78   ar
    87    88    87    1
    88    89     1    1
    89    13    15    1
    90    21    23   ar
    91    41    43   ar
    92    63    65   ar
    93    74    76   ar
    94    85    87   ar
    95    90    91    1
    96    92    90    1
    97    93    90    1
    98    94    90    1
    99    95    94   ar
   100    96    95    1
   101    97    95   ar
   102    98    97    1
   103    99    97   ar
   104   100    99    1
   105   101    99   ar
   106   102   101    1
   107   103    94   ar
   108   104   103    1
   109   101   103   ar
@<TRIPOS>SUBSTRUCTURE
     1 RES1        1 GROUP             0 ****  ****    0  
     2 RES2       90 GROUP             0 ****  ****    0  
@<TRIPOS>CRYSIN
   10.7671   14.3348   15.1484   85.7400   70.3730   72.3520     2     1
