@<TRIPOS>MOLECULE
QIQNIN
    92    96     2     0     0
SMALL
NO_CHARGES
****
Generated from the CSD

@<TRIPOS>ATOM
     1 Sn1      8.4592   4.2395   3.1453   Sn        1 RES1   0.0000
     2 Fe1      8.5610   1.5681   4.1445   Fe        1 RES1   0.0000
     3 P1       7.2605   1.9241   5.8952   P.3       1 RES1   0.0000
     4 P2       6.2175   4.6111   4.8276   P.3       1 RES1   0.0000
     5 Si1     10.0978   1.2824   2.5021   Si        1 RES1   0.0000
     6 O1       9.6133   0.6781   1.0486   O.3       1 RES1   0.0000
     7 O2      10.7087   2.7356   2.0645   O.3       1 RES1   0.0000
     8 O3      11.3274   0.3443   3.0181   O.3       1 RES1   0.0000
     9 O4       9.3011   5.1440   4.7733   O.3       1 RES1   0.0000
    10 O5      10.8833   2.6294   5.5767   O.2       1 RES1   0.0000
    11 O6       8.8460  -1.2796   4.7284   O.2       1 RES1   0.0000
    12 O7       6.6504   1.5453   1.9228   O.2       1 RES1   0.0000
    13 C1       6.8426   3.6667   6.2729   C.3       1 RES1   0.0000
    14 H1       7.6323   4.1088   6.6184   H         1 RES1   0.0000
    15 H2       6.1686   3.6815   6.9708   H         1 RES1   0.0000
    16 C2       8.0052   1.4199   7.5202   C.ar      1 RES1   0.0000
    17 C3       7.8998   0.1148   7.8795   C.ar      1 RES1   0.0000
    18 H3       7.4800  -0.4825   7.3043   H         1 RES1   0.0000
    19 C4       8.4254  -0.3614   9.1269   C.ar      1 RES1   0.0000
    20 H4       8.3124  -1.2435   9.3998   H         1 RES1   0.0000
    21 C5       9.1155   0.5697   9.9147   C.ar      1 RES1   0.0000
    22 H5       9.4797   0.3103  10.7301   H         1 RES1   0.0000
    23 C6       9.2493   1.8174   9.4931   C.ar      1 RES1   0.0000
    24 H6       9.7310   2.4104  10.0235   H         1 RES1   0.0000
    25 C7       8.7159   2.2914   8.3063   C.ar      1 RES1   0.0000
    26 H7       8.8352   3.1778   8.0506   H         1 RES1   0.0000
    27 C8       5.6393   1.0968   5.9844   C.ar      1 RES1   0.0000
    28 C9       4.8503   1.2137   7.0987   C.ar      1 RES1   0.0000
    29 H8       5.1534   1.7047   7.8277   H         1 RES1   0.0000
    30 C10      3.6117   0.6079   7.1505   C.ar      1 RES1   0.0000
    31 H9       3.0788   0.6972   7.9072   H         1 RES1   0.0000
    32 C11      3.1669  -0.1275   6.0811   C.ar      1 RES1   0.0000
    33 H10      2.3309  -0.5314   6.1278   H         1 RES1   0.0000
    34 C12      3.9010  -0.2763   4.9737   C.ar      1 RES1   0.0000
    35 H11      3.5793  -0.7801   4.2620   H         1 RES1   0.0000
    36 C13      5.1644   0.3316   4.8977   C.ar      1 RES1   0.0000
    37 H12      5.6855   0.2317   4.1341   H         1 RES1   0.0000
    38 C14      4.5839   3.9451   4.3933   C.ar      1 RES1   0.0000
    39 C15      3.6238   3.7729   5.3555   C.ar      1 RES1   0.0000
    40 H13      3.8142   3.9834   6.2418   H         1 RES1   0.0000
    41 C16      2.3536   3.2798   5.0117   C.ar      1 RES1   0.0000
    42 H14      1.6976   3.1501   5.6579   H         1 RES1   0.0000
    43 C17      2.1110   2.9907   3.6625   C.ar      1 RES1   0.0000
    44 H15      1.2646   2.7059   3.4034   H         1 RES1   0.0000
    45 C18      3.0511   3.1140   2.7624   C.ar      1 RES1   0.0000
    46 H16      2.8739   2.8547   1.8883   H         1 RES1   0.0000
    47 C19      4.3069   3.6220   3.0751   C.ar      1 RES1   0.0000
    48 H17      4.9492   3.7432   2.4134   H         1 RES1   0.0000
    49 C20      5.8310   6.1940   5.5577   C.ar      1 RES1   0.0000
    50 C21      4.7009   6.9188   5.2018   C.ar      1 RES1   0.0000
    51 H18      4.1372   6.5915   4.5384   H         1 RES1   0.0000
    52 C22      4.4026   8.1113   5.8168   C.ar      1 RES1   0.0000
    53 H19      3.6256   8.5598   5.5680   H         1 RES1   0.0000
    54 C23      5.1988   8.6682   6.7808   C.ar      1 RES1   0.0000
    55 H20      4.9747   9.4759   7.1833   H         1 RES1   0.0000
    56 C24      6.3385   7.9923   7.1298   C.ar      1 RES1   0.0000
    57 H21      6.9009   8.3472   7.7811   H         1 RES1   0.0000
    58 C25      6.6599   6.8104   6.5372   C.ar      1 RES1   0.0000
    59 H22      7.4506   6.3874   6.7825   H         1 RES1   0.0000
    60 C26      9.0703  -0.5867   0.8448   C.3       1 RES1   0.0000
    61 H23      8.8658  -0.7014  -0.0864   H         1 RES1   0.0000
    62 H24      8.2651  -0.6759   1.3613   H         1 RES1   0.0000
    63 H25      9.7025  -1.2541   1.1178   H         1 RES1   0.0000
    64 C27     11.2442   3.1289   0.8569   C.3       1 RES1   0.0000
    65 H26     11.5199   4.0471   0.9139   H         1 RES1   0.0000
    66 H27     10.5831   3.0354   0.1676   H         1 RES1   0.0000
    67 H28     12.0045   2.5805   0.6496   H         1 RES1   0.0000
    68 C28     12.4127  -0.0957   2.2372   C.3       1 RES1   0.0000
    69 H29     12.9978  -0.6334   2.7745   H         1 RES1   0.0000
    70 H30     12.8951   0.6632   1.9021   H         1 RES1   0.0000
    71 H31     12.0864  -0.6164   1.4996   H         1 RES1   0.0000
    72 C29     10.2000   6.2535   4.6317   C.3       1 RES1   0.0000
    73 C30     10.6912   6.5660   6.0500   C.3       1 RES1   0.0000
    74 H32      9.9430   6.7934   6.6046   H         1 RES1   0.0000
    75 H33     11.3052   7.3014   6.0207   H         1 RES1   0.0000
    76 H34     11.1345   5.7944   6.4111   H         1 RES1   0.0000
    77 C31     11.3501   5.9049   3.7592   C.3       1 RES1   0.0000
    78 H35     11.0337   5.7157   2.8730   H         1 RES1   0.0000
    79 H36     11.7950   5.1291   4.1117   H         1 RES1   0.0000
    80 H37     11.9653   6.6404   3.7299   H         1 RES1   0.0000
    81 C32      9.4726   7.4779   4.0806   C.3       1 RES1   0.0000
    82 H38      8.7355   7.6989   4.6524   H         1 RES1   0.0000
    83 H39      9.1461   7.2866   3.1978   H         1 RES1   0.0000
    84 H40     10.0802   8.2218   4.0408   H         1 RES1   0.0000
    85 C33      9.9541   2.2595   4.9927   C.1       1 RES1   0.0000
    86 C34      8.7341  -0.1445   4.5142   C.1       1 RES1   0.0000
    87 C35      7.3813   1.5793   2.8229   C.1       1 RES1   0.0000
    88 C36      4.3007   3.8048   9.8715   C.3       2 RES2   0.0000
    89 C37      2.5243   5.2056   8.6587   C.3       2 RES2   0.0000
    90 C38      1.7030   4.1449   9.4257   C.3       2 RES2   0.0000
    91 C39      2.8734   3.2713  10.1565   C.3       2 RES2   0.0000
    92 O8       4.0702   5.0632   8.9075   O.3       2 RES2   0.0000
@<TRIPOS>BOND
     1     1     2    1
     2     2     3    1
     3     3    13    1
     4     4     1    1
     5     5     2    1
     6     6     5    1
     7     7     5    1
     8     8     5    1
     9     9     1    1
    10    10    85    3
    11    11    86    3
    12    12    87    3
    13    13     4    1
    14    14    13    1
    15    15    13    1
    16    16     3    1
    17    17    16   ar
    18    18    17    1
    19    19    17   ar
    20    20    19    1
    21    21    19   ar
    22    22    21    1
    23    23    21   ar
    24    24    23    1
    25    25    16   ar
    26    26    25    1
    27    27     3    1
    28    28    27   ar
    29    29    28    1
    30    30    28   ar
    31    31    30    1
    32    32    30   ar
    33    33    32    1
    34    34    32   ar
    35    35    34    1
    36    36    27   ar
    37    37    36    1
    38    38     4    1
    39    39    38   ar
    40    40    39    1
    41    41    39   ar
    42    42    41    1
    43    43    41   ar
    44    44    43    1
    45    45    43   ar
    46    46    45    1
    47    47    38   ar
    48    48    47    1
    49    49     4    1
    50    50    49   ar
    51    51    50    1
    52    52    50   ar
    53    53    52    1
    54    54    52   ar
    55    55    54    1
    56    56    54   ar
    57    57    56    1
    58    58    49   ar
    59    59    58    1
    60    60     6    1
    61    61    60    1
    62    62    60    1
    63    63    60    1
    64    64     7    1
    65    65    64    1
    66    66    64    1
    67    67    64    1
    68    68     8    1
    69    69    68    1
    70    70    68    1
    71    71    68    1
    72    72     9    1
    73    73    72    1
    74    74    73    1
    75    75    73    1
    76    76    73    1
    77    77    72    1
    78    78    77    1
    79    79    77    1
    80    80    77    1
    81    81    72    1
    82    82    81    1
    83    83    81    1
    84    84    81    1
    85    85     2    1
    86    86     2    1
    87    87     2    1
    88    23    25   ar
    89    34    36   ar
    90    45    47   ar
    91    56    58   ar
    92    88    91    1
    93    89    90    1
    94    90    91    1
    95    92    88    1
    96    89    92    1
@<TRIPOS>SUBSTRUCTURE
     1 RES1        1 GROUP             0 ****  ****    0  
     2 RES2       88 GROUP             0 ****  ****    0  
@<TRIPOS>CRYSIN
   11.8850   21.2560   17.5770   90.0000  100.6200   90.0000    14     1
