@<TRIPOS>MOLECULE
QITCII
   103   109     3     0     0
SMALL
USER_CHARGES
****
Generated from the CSD

@<TRIPOS>ATOM
     1 Fe1      6.4209  16.6900   7.4482   Fe        1 RES1   2.0000
     2 N1       7.4610  16.7808   9.1243   N.ar      1 RES1   0.0000
     3 C1       6.9164  17.5587  10.0923   C.ar      1 RES1   0.0000
     4 C2       7.5011  17.6658  11.3498   C.ar      1 RES1   0.0000
     5 H1       7.1002  18.2062  12.0201   H         1 RES1   0.0000
     6 C3       8.6771  16.9751  11.6180   C.ar      1 RES1   0.0000
     7 H2       9.0775  17.0301  12.4775   H         1 RES1   0.0000
     8 C4       9.2648  16.2060  10.6218   C.ar      1 RES1   0.0000
     9 C5       8.6114  16.1403   9.3922   C.ar      1 RES1   0.0000
    10 H3       9.0012  15.6132   8.7056   H         1 RES1   0.0000
    11 C6      10.5274  15.4198  10.8268   C.3       1 RES1   0.0000
    12 H4      10.9987  15.7586  11.6170   H         1 RES1   0.0000
    13 H5      11.1024  15.5129  10.0391   H         1 RES1   0.0000
    14 H6      10.3058  14.4747  10.9581   H         1 RES1   0.0000
    15 N2       5.3416  18.0379   8.3842   N.ar      1 RES1   0.0000
    16 C7       5.7054  18.2731   9.6737   C.ar      1 RES1   0.0000
    17 C8       4.9757  19.1263  10.4896   C.ar      1 RES1   0.0000
    18 H7       5.2268  19.2594  11.3955   H         1 RES1   0.0000
    19 C9       3.8761  19.7816   9.9622   C.ar      1 RES1   0.0000
    20 H8       3.3666  20.3654  10.5122   H         1 RES1   0.0000
    21 C10      3.5112  19.5927   8.6325   C.ar      1 RES1   0.0000
    22 C11      4.2740  18.6934   7.8931   C.ar      1 RES1   0.0000
    23 H9       4.0264  18.5322   6.9905   H         1 RES1   0.0000
    24 C12      2.3387  20.2999   8.0169   C.3       1 RES1   0.0000
    25 H10      2.0128  19.7861   7.2492   H         1 RES1   0.0000
    26 H11      2.6146  21.1904   7.7180   H         1 RES1   0.0000
    27 H12      1.6223  20.3854   8.6813   H         1 RES1   0.0000
    28 N3       7.4795  18.0550   6.5263   N.ar      1 RES1   0.0000
    29 C13      7.2273  18.1779   5.1951   C.ar      1 RES1   0.0000
    30 C14      8.0146  18.9771   4.3773   C.ar      1 RES1   0.0000
    31 H13      7.8313  19.0388   3.4474   H         1 RES1   0.0000
    32 C15      9.0706  19.6822   4.9314   C.ar      1 RES1   0.0000
    33 H14      9.6281  20.2174   4.3793   H         1 RES1   0.0000
    34 C16      9.3108  19.6015   6.3012   C.ar      1 RES1   0.0000
    35 C17      8.4884  18.7697   7.0468   C.ar      1 RES1   0.0000
    36 H15      8.6487  18.7027   7.9810   H         1 RES1   0.0000
    37 C18     10.4046  20.3721   6.9798   C.3       1 RES1   0.0000
    38 H16     10.8241  19.8111   7.6651   H         1 RES1   0.0000
    39 H17     10.0279  21.1728   7.4007   H         1 RES1   0.0000
    40 H18     11.0773  20.6362   6.3173   H         1 RES1   0.0000
    41 N4       5.4313  16.7274   5.7402   N.ar      1 RES1   0.0000
    42 C19      6.0662  17.4020   4.7463   C.ar      1 RES1   0.0000
    43 C20      5.5999  17.3686   3.4372   C.ar      1 RES1   0.0000
    44 H19      6.0707  17.8300   2.7528   H         1 RES1   0.0000
    45 C21      4.4482  16.6629   3.1344   C.ar      1 RES1   0.0000
    46 H20      4.1334  16.6213   2.2382   H         1 RES1   0.0000
    47 C22      3.7544  16.0147   4.1536   C.ar      1 RES1   0.0000
    48 C23      4.2921  16.0721   5.4379   C.ar      1 RES1   0.0000
    49 H21      3.8314  15.6257   6.1387   H         1 RES1   0.0000
    50 C24      2.4718  15.2736   3.8995   C.3       1 RES1   0.0000
    51 H22      1.9466  15.2370   4.7251   H         1 RES1   0.0000
    52 H23      2.6743  14.3618   3.6017   H         1 RES1   0.0000
    53 H24      1.9589  15.7386   3.2058   H         1 RES1   0.0000
    54 N5       7.5167  15.2300   6.7145   N.ar      1 RES1   0.0000
    55 C25      7.0689  13.9751   6.9718   C.ar      1 RES1   0.0000
    56 C26      7.7409  12.8532   6.4951   C.ar      1 RES1   0.0000
    57 H25      7.4030  11.9820   6.6689   H         1 RES1   0.0000
    58 C27      8.9078  13.0189   5.7648   C.ar      1 RES1   0.0000
    59 H26      9.3698  12.2603   5.4269   H         1 RES1   0.0000
    60 C28      9.4017  14.2986   5.5271   C.ar      1 RES1   0.0000
    61 C29      8.6607  15.3634   6.0205   C.ar      1 RES1   0.0000
    62 H27      8.9824  16.2426   5.8571   H         1 RES1   0.0000
    63 C30     10.6778  14.5652   4.7905   C.3       1 RES1   0.0000
    64 H28     11.3472  13.8979   5.0453   H         1 RES1   0.0000
    65 H29     11.0060  15.4602   5.0181   H         1 RES1   0.0000
    66 H30     10.5143  14.5123   3.8261   H         1 RES1   0.0000
    67 N6       5.3868  15.1605   8.1588   N.ar      1 RES1   0.0000
    68 C31      5.8656  13.9363   7.8109   C.ar      1 RES1   0.0000
    69 C32      5.2589  12.7674   8.2460   C.ar      1 RES1   0.0000
    70 H31      5.6079  11.9218   7.9939   H         1 RES1   0.0000
    71 C33      4.1340  12.8519   9.0554   C.ar      1 RES1   0.0000
    72 H32      3.7118  12.0597   9.3645   H         1 RES1   0.0000
    73 C34      3.6269  14.0912   9.4135   C.ar      1 RES1   0.0000
    74 C35      4.2891  15.2165   8.9339   C.ar      1 RES1   0.0000
    75 H33      3.9474  16.0721   9.1673   H         1 RES1   0.0000
    76 C36      2.4195  14.2402  10.2977   C.3       1 RES1   0.0000
    77 H34      1.7903  13.5117  10.1163   H         1 RES1   0.0000
    78 H35      1.9856  15.0991  10.1149   H         1 RES1   0.0000
    79 H36      2.6970  14.2063  11.2369   H         1 RES1   0.0000
    80 C37      1.8309  13.5955   0.8714   C.2       2 RES2   0.0000
    81 C38      2.4927  12.3948   1.1620   C.2       2 RES2   0.0000
    82 C39      2.0269  11.4127   2.0443   C.2       2 RES2  -1.0000
    83 C40      2.5217  14.7265   0.3599   C.1       2 RES2   0.0000
    84 N7       3.0482  15.6811  -0.0130   N.1       2 RES2   0.0000
    85 C41      0.4431  13.7888   1.1171   C.1       2 RES2   0.0000
    86 N8      -0.6833  13.9721   1.2848   N.1       2 RES2   0.0000
    87 S1       4.0741  12.0677   0.4546   S.3       2 RES2   0.0000
    88 C42      3.8404  12.4349  -1.3215   C.3       2 RES2   0.0000
    89 H37      2.8807  12.5964  -1.5064   H         2 RES2   0.0000
    90 H38      4.3444  13.2534  -1.5636   H         2 RES2   0.0000
    91 C43      4.3330  11.2658  -2.1482   C.3       2 RES2   0.0000
    92 H39      3.8156  10.4648  -1.9224   H         2 RES2   0.0000
    93 H40      5.2805  11.1068  -1.9567   H         2 RES2   0.0000
    94 H41      4.2218  11.4679  -3.1001   H         2 RES2   0.0000
    95 C44      2.6214  10.1227   2.1300   C.1       2 RES2   0.0000
    96 N9       3.0590   9.0720   2.2940   N.1       2 RES2   0.0000
    97 C45      0.9741  11.6294   2.9819   C.1       2 RES2   0.0000
    98 N10      0.1581  11.7390   3.7835   N.1       2 RES2   0.0000
    99 B1       7.0407   8.3934   6.8087   B         3 RES3  -1.0000
   100 F1       6.4805   7.6428   7.8438   F         3 RES3   0.0000
   101 F2       6.6267   9.7185   6.9648   F         3 RES3   0.0000
   102 F3       6.5861   7.9124   5.5847   F         3 RES3   0.0000
   103 F4       8.4135   8.3129   6.8646   F         3 RES3   0.0000
@<TRIPOS>BOND
     1     1     2    1
     2     2     3   ar
     3     3     4   ar
     4     4     5    1
     5     6     4   ar
     6     7     6    1
     7     8     6   ar
     8     9     2   ar
     9    10     9    1
    10    11     8    1
    11    12    11    1
    12    13    11    1
    13    14    11    1
    14    15     1    1
    15    16     3    1
    16    17    16   ar
    17    18    17    1
    18    19    17   ar
    19    20    19    1
    20    21    19   ar
    21    22    15   ar
    22    23    22    1
    23    24    21    1
    24    25    24    1
    25    26    24    1
    26    27    24    1
    27    28     1    1
    28    29    28   ar
    29    30    29   ar
    30    31    30    1
    31    32    30   ar
    32    33    32    1
    33    34    32   ar
    34    35    28   ar
    35    36    35    1
    36    37    34    1
    37    38    37    1
    38    39    37    1
    39    40    37    1
    40    41     1    1
    41    42    29    1
    42    43    42   ar
    43    44    43    1
    44    45    43   ar
    45    46    45    1
    46    47    45   ar
    47    48    41   ar
    48    49    48    1
    49    50    47    1
    50    51    50    1
    51    52    50    1
    52    53    50    1
    53    54     1    1
    54    55    54   ar
    55    56    55   ar
    56    57    56    1
    57    58    56   ar
    58    59    58    1
    59    60    58   ar
    60    61    54   ar
    61    62    61    1
    62    63    60    1
    63    64    63    1
    64    65    63    1
    65    66    63    1
    66    67     1    1
    67    68    55    1
    68    69    68   ar
    69    70    69    1
    70    71    69   ar
    71    72    71    1
    72    73    71   ar
    73    74    67   ar
    74    75    74    1
    75    76    73    1
    76    77    76    1
    77    78    76    1
    78    79    76    1
    79     8     9   ar
    80    15    16   ar
    81    21    22   ar
    82    34    35   ar
    83    41    42   ar
    84    47    48   ar
    85    60    61   ar
    86    67    68   ar
    87    73    74   ar
    88    80    81    2
    89    81    82    1
    90    82    95    1
    91    83    80    1
    92    84    83    3
    93    85    80    1
    94    86    85    3
    95    87    81    1
    96    88    87    1
    97    89    88    1
    98    90    88    1
    99    91    88    1
   100    92    91    1
   101    93    91    1
   102    94    91    1
   103    95    96    3
   104    97    82    1
   105    98    97    3
   106    99   100    1
   107   101    99    1
   108   102    99    1
   109   103    99    1
@<TRIPOS>SUBSTRUCTURE
     1 RES1        1 GROUP             0 ****  ****    0  
     2 RES2       80 GROUP             0 ****  ****    0  
     3 RES3       99 GROUP             0 ****  ****    0  
@<TRIPOS>CRYSIN
   11.6027   25.0774   14.7438   90.0000  104.2110   90.0000   231     1
