@<TRIPOS>MOLECULE
QITZAX
   101   106     3     0     0
SMALL
USER_CHARGES
****
Generated from the CSD

@<TRIPOS>ATOM
     1 As1      6.7367  -2.6915  20.0793   As        1 RES1  -1.0000
     2 F1       5.6821  -2.6537  21.4161   F         1 RES1   0.0000
     3 F2       6.2220  -4.2639  19.7096   F         1 RES1   0.0000
     4 F3       7.9780  -3.3206  21.0781   F         1 RES1   0.0000
     5 F4       7.8093  -2.7304  18.7467   F         1 RES1   0.0000
     6 F5       7.2909  -1.1237  20.4241   F         1 RES1   0.0000
     7 F6       5.5183  -2.0479  19.0810   F         1 RES1   0.0000
     8 As2      8.7946  -2.5095  14.0540   As        2 RES2  -1.0000
     9 F7       7.8029  -2.1663  15.4070   F         2 RES2   0.0000
    10 F8       8.1439  -4.0652  14.0170   F         2 RES2   0.0000
    11 F9      10.0091  -3.0192  15.1040   F         2 RES2   0.0000
    12 F10      9.7720  -2.8522  12.7161   F         2 RES2   0.0000
    13 F11      9.3676  -0.9069  14.1556   F         2 RES2   0.0000
    14 F12      7.5696  -1.9279  13.0422   F         2 RES2   0.0000
    15 Fe1      4.4562   2.3600  17.1205   Fe        3 RES3   2.0000
    16 N1       4.4089   2.2758  14.8950   N.2       3 RES3   0.0000
    17 N2       6.1326   1.0735  16.5676   N.2       3 RES3   0.0000
    18 N3       2.9072   0.7918  17.3232   N.2       3 RES3   0.0000
    19 N4       4.2873   2.0198  19.2814   N.2       3 RES3   0.0000
    20 N5       2.8822   3.8424  16.8864   N.2       3 RES3   0.0000
    21 N6       5.5200   4.2762  16.9542   N.2       3 RES3   0.0000
    22 N7       6.9602   2.6074  18.7414   N.3       3 RES3   0.0000
    23 N8       5.5318   1.7204  13.0840   N.pl3     3 RES3   0.0000
    24 N9       1.7600  -0.4806  18.7150   N.pl3     3 RES3   0.0000
    25 N10      2.3980   5.8918  16.2021   N.pl3     3 RES3   0.0000
    26 C1       3.7893   2.8091  13.8124   C.2       3 RES3   0.0000
    27 H1       3.0180   3.3271  13.8402   H         3 RES3   0.0000
    28 C2       4.4654   2.4744  12.6747   C.2       3 RES3   0.0000
    29 H2       4.2466   2.7106  11.8024   H         3 RES3   0.0000
    30 C3       5.4664   1.6225  14.4241   C.2       3 RES3   0.0000
    31 C4       6.3676   0.9472  15.3241   C.2       3 RES3   0.0000
    32 H3       7.0840   0.4436  15.0129   H         3 RES3   0.0000
    33 C5       7.0442   0.4868  17.5290   C.3       3 RES3   0.0000
    34 H4       7.6409  -0.1355  17.0846   H         3 RES3   0.0000
    35 H5       6.5464   0.0024  18.2065   H         3 RES3   0.0000
    36 C6       7.8479   1.6118  18.1759   C.3       3 RES3   0.0000
    37 H6       8.4143   1.2466  18.8735   H         3 RES3   0.0000
    38 H7       8.4194   2.0262  17.5100   H         3 RES3   0.0000
    39 C7       6.6421   1.2432  12.2082   C.3       3 RES3   0.0000
    40 H8       6.2725   0.8726  11.3908   H         3 RES3   0.0000
    41 H9       7.1325   0.5400  12.6615   H         3 RES3   0.0000
    42 C8       7.6159   2.4142  11.8539   C.3       3 RES3   0.0000
    43 H10      8.2213   2.1063  11.1623   H         3 RES3   0.0000
    44 H11      7.0932   3.1403  11.4802   H         3 RES3   0.0000
    45 C9       8.3494   2.9045  12.8618   C.3       3 RES3   0.0000
    46 H12      8.8018   2.1656  13.2992   H         3 RES3   0.0000
    47 H13      7.7491   3.3028  13.5122   H         3 RES3   0.0000
    48 C10      9.3866   3.9376  12.4701   C.3       3 RES3   0.0000
    49 H14      9.8591   4.2287  13.2537   H         3 RES3   0.0000
    50 H15     10.0054   3.5492  11.8485   H         3 RES3   0.0000
    51 H16      8.9504   4.6889  12.0620   H         3 RES3   0.0000
    52 C11      2.0220   0.0324  16.6114   C.2       3 RES3   0.0000
    53 H17      1.9183   0.0577  15.6866   H         3 RES3   0.0000
    54 C12      1.3203  -0.7613  17.4541   C.2       3 RES3   0.0000
    55 H18      0.6649  -1.3782  17.2185   H         3 RES3   0.0000
    56 C13      2.7259   0.4547  18.5896   C.2       3 RES3   0.0000
    57 C14      3.4594   1.1182  19.6436   C.2       3 RES3   0.0000
    58 H19      3.3349   0.9006  20.5401   H         3 RES3   0.0000
    59 C15      5.0849   2.6938  20.3126   C.3       3 RES3   0.0000
    60 H20      4.7869   2.4211  21.1953   H         3 RES3   0.0000
    61 H21      4.9802   3.6554  20.2390   H         3 RES3   0.0000
    62 C16      6.5350   2.3153  20.1167   C.3       3 RES3   0.0000
    63 H22      7.0878   2.8113  20.7406   H         3 RES3   0.0000
    64 H23      6.6507   1.3690  20.2986   H         3 RES3   0.0000
    65 C17      1.2477  -1.0621  19.9649   C.3       3 RES3   0.0000
    66 H24      1.2404  -0.3806  20.6553   H         3 RES3   0.0000
    67 H25      0.3340  -1.3588  19.8288   H         3 RES3   0.0000
    68 C18      2.0610  -2.1923  20.4116   C.3       3 RES3   0.0000
    69 H26      2.9551  -1.8683  20.6014   H         3 RES3   0.0000
    70 H27      1.6898  -2.5256  21.2430   H         3 RES3   0.0000
    71 C19      2.1661  -3.2966  19.4874   C.3       3 RES3   0.0000
    72 C20      1.5351   3.9378  16.6444   C.2       3 RES3   0.0000
    73 H28      0.9233   3.2461  16.7534   H         3 RES3   0.0000
    74 C21      1.2352   5.1570  16.2351   C.2       3 RES3   0.0000
    75 H29      0.3869   5.4642  16.0098   H         3 RES3   0.0000
    76 C22      3.3751   5.0471  16.6070   C.2       3 RES3   0.0000
    77 C23      4.7948   5.2850  16.7038   C.2       3 RES3   0.0000
    78 H30      5.1585   6.1326  16.5874   H         3 RES3   0.0000
    79 C24      6.9721   4.4611  17.1373   C.3       3 RES3   0.0000
    80 H31      7.2014   5.3979  17.0299   H         3 RES3   0.0000
    81 H32      7.4562   3.9514  16.4689   H         3 RES3   0.0000
    82 C25      7.3606   3.9927  18.5214   C.3       3 RES3   0.0000
    83 H33      8.3217   4.0713  18.6298   H         3 RES3   0.0000
    84 H34      6.9371   4.5604  19.1841   H         3 RES3   0.0000
    85 C26      2.5413   7.2522  15.6982   C.3       3 RES3   0.0000
    86 H35      3.3946   7.6175  15.9794   H         3 RES3   0.0000
    87 H36      1.8372   7.8117  16.0632   H         3 RES3   0.0000
    88 C27      2.4546   7.2444  14.1116   C.3       3 RES3   0.0000
    89 H37      3.2065   6.7525  13.7465   H         3 RES3   0.0000
    90 H38      1.6388   6.8005  13.8315   H         3 RES3   0.0000
    91 C28      2.4690   8.6263  13.5901   C.3       3 RES3   0.0000
    92 H39      3.3143   9.0488  13.8076   H         3 RES3   0.0000
    93 H40      1.7581   9.1394  14.0064   H         3 RES3   0.0000
    94 C29      2.2754   8.6106  12.0872   C.3       3 RES3   0.0000
    95 H41      2.2854   9.5105  11.7542   H         3 RES3   0.0000
    96 H42      2.9857   8.1099  11.6791   H         3 RES3   0.0000
    97 H43      1.4333   8.2004  11.8774   H         3 RES3   0.0000
    98 C30      2.7664  -4.6516  20.1673   C.3       3 RES3   0.0000
    99 H44      2.7568  -5.3632  19.5223   H         3 RES3   0.0000
   100 H45      2.2284  -4.8964  20.9225   H         3 RES3   0.0000
   101 H46      3.6689  -4.4927  20.4539   H         3 RES3   0.0000
@<TRIPOS>BOND
     1     1     2    1
     2     3     1    1
     3     4     1    1
     4     5     1    1
     5     6     1    1
     6     7     1    1
     7     8     9    1
     8    10     8    1
     9    11     8    1
    10    12     8    1
    11    13     8    1
    12    14     8    1
    13    15    16    1
    14    16    26    1
    15    17    15    1
    16    18    15    1
    17    19    15    1
    18    20    15    1
    19    21    15    1
    20    22    36    1
    21    23    28    1
    22    24    54    1
    23    25    74    1
    24    26    27    1
    25    28    26    2
    26    29    28    1
    27    30    16    2
    28    31    17    2
    29    32    31    1
    30    33    17    1
    31    34    33    1
    32    35    33    1
    33    36    33    1
    34    37    36    1
    35    38    36    1
    36    39    23    1
    37    40    39    1
    38    41    39    1
    39    42    39    1
    40    43    42    1
    41    44    42    1
    42    45    42    1
    43    46    45    1
    44    47    45    1
    45    48    45    1
    46    49    48    1
    47    50    48    1
    48    51    48    1
    49    52    18    1
    50    53    52    1
    51    54    52    2
    52    55    54    1
    53    56    18    2
    54    57    19    2
    55    58    57    1
    56    59    19    1
    57    60    59    1
    58    61    59    1
    59    62    22    1
    60    63    62    1
    61    64    62    1
    62    65    24    1
    63    66    65    1
    64    67    65    1
    65    68    65    1
    66    69    68    1
    67    70    68    1
    68    71    68    1
    69    72    20    1
    70    73    72    1
    71    74    72    2
    72    75    74    1
    73    76    20    2
    74    77    21    2
    75    78    77    1
    76    79    21    1
    77    80    79    1
    78    81    79    1
    79    82    22    1
    80    83    82    1
    81    84    82    1
    82    85    25    1
    83    86    85    1
    84    87    85    1
    85    88    85    1
    86    89    88    1
    87    90    88    1
    88    91    88    1
    89    92    91    1
    90    93    91    1
    91    94    91    1
    92    95    94    1
    93    96    94    1
    94    97    94    1
    95    98    71    1
    96    99    98    1
    97   100    98    1
    98   101    98    1
    99    23    30    1
   100    24    56    1
   101    25    76    1
   102    30    31    1
   103    56    57    1
   104    59    62    1
   105    76    77    1
   106    79    82    1
@<TRIPOS>SUBSTRUCTURE
     1 RES1        1 GROUP             0 ****  ****    0  
     2 RES2        8 GROUP             0 ****  ****    0  
     3 RES3       15 GROUP             0 ****  ****    0  
@<TRIPOS>CRYSIN
    9.4189   10.3506   22.4440   91.4280  100.8940   99.0010     2     1
