@<TRIPOS>MOLECULE
QIXJOZ
    74    81     3     0     0
SMALL
USER_CHARGES
****
Generated from the CSD

@<TRIPOS>ATOM
     1 Fe1      2.7018   0.8385   3.4994   Fe        1 RES1   1.0000
     2 O1       3.3318   1.8463   1.9968   O.3       1 RES1   0.0000
     3 O2       4.3964   0.1150   3.9968   O.3       1 RES1   0.0000
     4 N1       2.6433   2.6679   4.5790   N.2       1 RES1   0.0000
     5 N2       1.7811   0.3052   5.3933   N.ar      1 RES1   0.0000
     6 N3       2.2267  -1.0549   2.6495   N.2       1 RES1   0.0000
     7 N4       0.6906   1.0999   2.7580   N.ar      1 RES1   0.0000
     8 C1       3.8250   3.0542   1.8691   C.ar      1 RES1   0.0000
     9 C2       4.3179   3.4691   0.6202   C.ar      1 RES1   0.0000
    10 H1       4.2435   2.8995  -0.1114   H         1 RES1   0.0000
    11 C3       4.9098   4.7014   0.4588   C.ar      1 RES1   0.0000
    12 H2       5.2383   4.9477  -0.3757   H         1 RES1   0.0000
    13 C4       5.0233   5.5832   1.5292   C.ar      1 RES1   0.0000
    14 H3       5.4442   6.4047   1.4193   H         1 RES1   0.0000
    15 C5       4.5073   5.2270   2.7431   C.ar      1 RES1   0.0000
    16 H4       4.5651   5.8256   3.4525   H         1 RES1   0.0000
    17 C6       3.8904   3.9742   2.9482   C.ar      1 RES1   0.0000
    18 C7       3.2768   3.7483   4.2168   C.2       1 RES1   0.0000
    19 H5       3.3334   4.4343   4.8421   H         1 RES1   0.0000
    20 C8       1.9280   2.6470   5.8073   C.ar      1 RES1   0.0000
    21 C9       1.6023   3.7321   6.5867   C.ar      1 RES1   0.0000
    22 H6       1.8745   4.5830   6.3292   H         1 RES1   0.0000
    23 C10      0.8620   3.5634   7.7711   C.ar      1 RES1   0.0000
    24 H7       0.6739   4.3062   8.2991   H         1 RES1   0.0000
    25 C11      0.4134   2.3390   8.1607   C.ar      1 RES1   0.0000
    26 H8      -0.0877   2.2534   8.9392   H         1 RES1   0.0000
    27 C12      0.7097   1.2047   7.3846   C.ar      1 RES1   0.0000
    28 C13      1.4719   1.3627   6.2006   C.ar      1 RES1   0.0000
    29 C14      0.2867  -0.1012   7.7148   C.ar      1 RES1   0.0000
    30 H9      -0.2275  -0.2489   8.4757   H         1 RES1   0.0000
    31 C15      0.6349  -1.1392   6.9145   C.ar      1 RES1   0.0000
    32 H10      0.3791  -2.0058   7.1354   H         1 RES1   0.0000
    33 C16      1.3816  -0.8994   5.7572   C.ar      1 RES1   0.0000
    34 H11      1.6080  -1.6232   5.2182   H         1 RES1   0.0000
    35 C17      4.9625  -1.0643   3.8785   C.ar      1 RES1   0.0000
    36 C18      6.2664  -1.2623   4.3654   C.ar      1 RES1   0.0000
    37 H12      6.7115  -0.5605   4.7832   H         1 RES1   0.0000
    38 C19      6.8924  -2.4802   4.2317   C.ar      1 RES1   0.0000
    39 H13      7.7583  -2.5834   4.5538   H         1 RES1   0.0000
    40 C20      6.2594  -3.5596   3.6264   C.ar      1 RES1   0.0000
    41 H14      6.6972  -4.3751   3.5411   H         1 RES1   0.0000
    42 C21      4.9914  -3.4073   3.1608   C.ar      1 RES1   0.0000
    43 H15      4.5601  -4.1312   2.7681   H         1 RES1   0.0000
    44 C22      4.3106  -2.1602   3.2621   C.ar      1 RES1   0.0000
    45 C23      3.0023  -2.1055   2.7051   C.2       1 RES1   0.0000
    46 H16      2.6662  -2.8944   2.3452   H         1 RES1   0.0000
    47 C24      0.9430  -1.1687   2.0472   C.ar      1 RES1   0.0000
    48 C25      0.4066  -2.2746   1.4422   C.ar      1 RES1   0.0000
    49 H17      0.8893  -3.0691   1.4288   H         1 RES1   0.0000
    50 C26     -0.8594  -2.2264   0.8437   C.ar      1 RES1   0.0000
    51 H18     -1.1964  -2.9882   0.4296   H         1 RES1   0.0000
    52 C27     -1.6081  -1.0839   0.8561   C.ar      1 RES1   0.0000
    53 H19     -2.4375  -1.0641   0.4356   H         1 RES1   0.0000
    54 C28     -1.1176   0.0614   1.5085   C.ar      1 RES1   0.0000
    55 C29      0.1626   0.0224   2.1074   C.ar      1 RES1   0.0000
    56 C30     -1.8431   1.2696   1.6158   C.ar      1 RES1   0.0000
    57 H20     -2.6946   1.3354   1.2477   H         1 RES1   0.0000
    58 C31     -1.2973   2.3341   2.2559   C.ar      1 RES1   0.0000
    59 H21     -1.7678   3.1329   2.3223   H         1 RES1   0.0000
    60 C32     -0.0163   2.2189   2.8174   C.ar      1 RES1   0.0000
    61 H22      0.3511   2.9571   3.2478   H         1 RES1   0.0000
    62 S1       0.5776   6.3333   2.6464   S.o2      2 RES2   0.0000
    63 O3       1.5553   7.3969   2.6961   O.3       2 RES2  -1.0000
    64 O4       0.7353   5.4013   3.7333   O.2       2 RES2   0.0000
    65 O5      -0.7470   6.8479   2.5020   O.2       2 RES2   0.0000
    66 C33      0.9360   5.4449   1.1750   C.3       2 RES2   0.0000
    67 H23      0.3160   4.7176   1.0815   H         2 RES2   0.0000
    68 H24      1.8303   5.0986   1.2202   H         2 RES2   0.0000
    69 H25      0.8574   6.0315   0.4197   H         2 RES2   0.0000
    70 C34      2.6706  -4.6829   5.9915   C.3       3 RES3   0.0000
    71 H26      2.8725  -5.5414   5.6129   H         3 RES3   0.0000
    72 H27      2.3417  -4.7972   6.8865   H         3 RES3   0.0000
    73 H28      3.4653  -4.1452   6.0090   H         3 RES3   0.0000
    74 O6       1.6227  -4.0007   5.1561   O.3       3 RES3   0.0000
@<TRIPOS>BOND
     1     1     2    1
     2     2     8    1
     3     3     1    1
     4     4     1    1
     5     5     1    1
     6     6     1    1
     7     7     1    1
     8     8     9   ar
     9     9    10    1
    10    11     9   ar
    11    12    11    1
    12    13    11   ar
    13    14    13    1
    14    15    13   ar
    15    16    15    1
    16    17     8   ar
    17    18     4    2
    18    19    18    1
    19    20     4    1
    20    21    20   ar
    21    22    21    1
    22    23    21   ar
    23    24    23    1
    24    25    23   ar
    25    26    25    1
    26    27    25   ar
    27    28     5   ar
    28    29    27   ar
    29    30    29    1
    30    31    29   ar
    31    32    31    1
    32    33     5   ar
    33    34    33    1
    34    35     3    1
    35    36    35   ar
    36    37    36    1
    37    38    36   ar
    38    39    38    1
    39    40    38   ar
    40    41    40    1
    41    42    40   ar
    42    43    42    1
    43    44    35   ar
    44    45     6    2
    45    46    45    1
    46    47     6    1
    47    48    47   ar
    48    49    48    1
    49    50    48   ar
    50    51    50    1
    51    52    50   ar
    52    53    52    1
    53    54    52   ar
    54    55     7   ar
    55    56    54   ar
    56    57    56    1
    57    58    56   ar
    58    59    58    1
    59    60     7   ar
    60    61    60    1
    61    15    17   ar
    62    17    18    1
    63    20    28   ar
    64    27    28   ar
    65    31    33   ar
    66    42    44   ar
    67    44    45    1
    68    47    55   ar
    69    54    55   ar
    70    58    60   ar
    71    62    63    1
    72    64    62    2
    73    65    62    2
    74    66    62    1
    75    67    66    1
    76    68    66    1
    77    69    66    1
    78    70    71    1
    79    72    70    1
    80    73    70    1
    81    74    70    1
@<TRIPOS>SUBSTRUCTURE
     1 RES1        1 GROUP             0 ****  ****    0  
     2 RES2       62 GROUP             0 ****  ****    0  
     3 RES3       70 GROUP             0 ****  ****    0  
@<TRIPOS>CRYSIN
    8.6110   12.6981   15.1480  114.7000   94.1660   92.3320     2     1
