@<TRIPOS>MOLECULE
QOCDAP
   133   143     2     0     0
SMALL
USER_CHARGES
****
Generated from the CSD

@<TRIPOS>ATOM
     1 Fe1      5.6149   3.5513   3.8743   Fe        1 RES1   1.0000
     2 Br1      5.6920   1.2007   3.1194   Br        1 RES1   0.0000
     3 S1       6.5806   7.7066   7.0025   S.o2      1 RES1   0.0000
     4 P1       3.5615   3.5999   2.9753   P.3       1 RES1   0.0000
     5 P2       7.1259   4.3208   2.3852   P.3       1 RES1   0.0000
     6 O1       6.4900   9.0721   7.4316   O.2       1 RES1   0.0000
     7 O2       6.1935   6.6520   7.8910   O.2       1 RES1   0.0000
     8 N1       4.6538   2.9217   5.4737   N.2       1 RES1   0.0000
     9 N2       7.1991   3.1554   4.9668   N.2       1 RES1   0.0000
    10 N3       5.5279   6.2835   5.0272   N.1       1 RES1   0.0000
    11 C1       2.6241   2.6350   4.2486   C.3       1 RES1   0.0000
    12 H1       1.7540   3.0709   4.4282   H         1 RES1   0.0000
    13 H2       2.4503   1.7181   3.9167   H         1 RES1   0.0000
    14 C2       3.4291   2.5794   5.4952   C.2       1 RES1   0.0000
    15 H3       3.0316   2.2892   6.3067   H         1 RES1   0.0000
    16 C3       5.5069   2.8731   6.6758   C.3       1 RES1   0.0000
    17 H4       5.1433   2.2248   7.3312   H         1 RES1   0.0000
    18 H5       5.5493   3.7643   7.1038   H         1 RES1   0.0000
    19 C4       6.8875   2.4403   6.2142   C.3       1 RES1   0.0000
    20 H6       7.5598   2.6565   6.9072   H         1 RES1   0.0000
    21 H7       6.9021   1.4626   6.0578   H         1 RES1   0.0000
    22 C5       8.4002   3.3968   4.6254   C.2       1 RES1   0.0000
    23 H8       9.1107   3.1802   5.2177   H         1 RES1   0.0000
    24 C6       8.6992   4.0123   3.3138   C.3       1 RES1   0.0000
    25 H9       9.2832   3.4098   2.7893   H         1 RES1   0.0000
    26 H10      9.1804   4.8668   3.4482   H         1 RES1   0.0000
    27 C7       5.5382   5.2271   4.5365   C.1       1 RES1   0.0000
    28 C8       5.5687   7.6062   5.5098   C.3       1 RES1   0.0000
    29 H11      4.6498   7.9138   5.7123   H         1 RES1   0.0000
    30 H12      5.9456   8.2015   4.8137   H         1 RES1   0.0000
    31 C9       8.2147   7.3615   6.4566   C.ar      1 RES1   0.0000
    32 C10      8.8917   8.3195   5.7221   C.ar      1 RES1   0.0000
    33 H13      8.4599   9.1236   5.4604   H         1 RES1   0.0000
    34 C11     10.2085   8.0831   5.3759   C.ar      1 RES1   0.0000
    35 H14     10.6731   8.7262   4.8552   H         1 RES1   0.0000
    36 C12     10.8691   6.9245   5.7743   C.ar      1 RES1   0.0000
    37 C13     10.1505   5.9549   6.4537   C.ar      1 RES1   0.0000
    38 H15     10.5722   5.1361   6.6830   H         1 RES1   0.0000
    39 C14      8.8246   6.1632   6.8039   C.ar      1 RES1   0.0000
    40 H16      8.3404   5.4948   7.2743   H         1 RES1   0.0000
    41 C15     12.3355   6.7480   5.4880   C.3       1 RES1   0.0000
    42 H17     12.6556   5.9261   5.9165   H         1 RES1   0.0000
    43 H18     12.8318   7.5148   5.8413   H         1 RES1   0.0000
    44 H19     12.4733   6.6861   4.5188   H         1 RES1   0.0000
    45 C16      2.6683   5.1911   2.9349   C.ar      1 RES1   0.0000
    46 C17      2.2918   5.7984   1.7381   C.ar      1 RES1   0.0000
    47 H20      2.4283   5.3468   0.9139   H         1 RES1   0.0000
    48 C18      1.7170   7.0587   1.7475   C.ar      1 RES1   0.0000
    49 H21      1.4536   7.4621   0.9277   H         1 RES1   0.0000
    50 C19      1.5255   7.7353   2.9346   C.ar      1 RES1   0.0000
    51 H22      1.1561   8.6114   2.9291   H         1 RES1   0.0000
    52 C20      1.8728   7.1345   4.1350   C.ar      1 RES1   0.0000
    53 H23      1.7220   7.5896   4.9550   H         1 RES1   0.0000
    54 C21      2.4371   5.8753   4.1376   C.ar      1 RES1   0.0000
    55 H24      2.6719   5.4673   4.9627   H         1 RES1   0.0000
    56 C22      7.0351   6.1319   2.1382   C.ar      1 RES1   0.0000
    57 C23      8.0901   7.0088   2.3526   C.ar      1 RES1   0.0000
    58 H25      8.9633   6.6708   2.5128   H         1 RES1   0.0000
    59 C24      7.8653   8.3874   2.3322   C.ar      1 RES1   0.0000
    60 H26      8.5882   8.9825   2.4913   H         1 RES1   0.0000
    61 C25      6.6196   8.8914   2.0861   C.ar      1 RES1   0.0000
    62 H27      6.4748   9.8300   2.1012   H         1 RES1   0.0000
    63 C26      5.5665   8.0344   1.8147   C.ar      1 RES1   0.0000
    64 H28      4.7039   8.3775   1.6128   H         1 RES1   0.0000
    65 C27      5.7883   6.6665   1.8435   C.ar      1 RES1   0.0000
    66 H29      5.0669   6.0781   1.6558   H         1 RES1   0.0000
    67 C28      3.0833   2.8465   1.3871   C.ar      1 RES1   0.0000
    68 C29      4.0225   2.6285   0.3914   C.ar      1 RES1   0.0000
    69 H30      4.9364   2.8301   0.5529   H         1 RES1   0.0000
    70 C30      3.6361   2.1156  -0.8432   C.ar      1 RES1   0.0000
    71 H31      4.2827   1.9816  -1.5252   H         1 RES1   0.0000
    72 C31      2.3140   1.8024  -1.0752   C.ar      1 RES1   0.0000
    73 H32      2.0497   1.4595  -1.9215   H         1 RES1   0.0000
    74 C32      1.3695   1.9866  -0.0753   C.ar      1 RES1   0.0000
    75 H33      0.4632   1.7469  -0.2289   H         1 RES1   0.0000
    76 C33      1.7469   2.5224   1.1515   C.ar      1 RES1   0.0000
    77 H34      1.0957   2.6668   1.8278   H         1 RES1   0.0000
    78 C34      7.4786   3.6526   0.7187   C.ar      1 RES1   0.0000
    79 C35      7.3487   4.4272  -0.4299   C.ar      1 RES1   0.0000
    80 H35      7.1189   5.3453  -0.3579   H         1 RES1   0.0000
    81 C36      7.5558   3.8617  -1.6819   C.ar      1 RES1   0.0000
    82 H36      7.4688   4.3992  -2.4606   H         1 RES1   0.0000
    83 C37      7.8852   2.5247  -1.8078   C.ar      1 RES1   0.0000
    84 H37      8.0149   2.1431  -2.6680   H         1 RES1   0.0000
    85 C38      8.0248   1.7557  -0.6820   C.ar      1 RES1   0.0000
    86 H38      8.2583   0.8390  -0.7664   H         1 RES1   0.0000
    87 C39      7.8280   2.3056   0.5821   C.ar      1 RES1   0.0000
    88 H39      7.9303   1.7624   1.3547   H         1 RES1   0.0000
    89 C40     13.6457  -0.3306  -4.4328   C.ar      2 RES2   0.0000
    90 C41     12.8750   0.0188  -5.5633   C.ar      2 RES2   0.0000
    91 H40     13.2153  -0.1815  -6.4280   H         2 RES2   0.0000
    92 C42     11.6476   0.6409  -5.4588   C.ar      2 RES2   0.0000
    93 H41     11.1597   0.8619  -6.2452   H         2 RES2   0.0000
    94 C43     11.1246   0.9391  -4.2254   C.ar      2 RES2   0.0000
    95 H42     10.2780   1.3631  -4.1579   H         2 RES2   0.0000
    96 C44     11.8386   0.6210  -3.0750   C.ar      2 RES2   0.0000
    97 H43     11.4819   0.8244  -2.2179   H         2 RES2   0.0000
    98 C45     13.0946  -0.0075  -3.1917   C.ar      2 RES2   0.0000
    99 H44     13.5798  -0.2178  -2.4022   H         2 RES2   0.0000
   100 C46     15.3385  -1.7568  -6.0305   C.ar      2 RES2   0.0000
   101 C47     14.3656  -2.6101  -6.5933   C.ar      2 RES2   0.0000
   102 H45     13.5392  -2.7178  -6.1362   H         2 RES2   0.0000
   103 C48     14.5607  -3.3035  -7.7935   C.ar      2 RES2   0.0000
   104 H46     13.8830  -3.8808  -8.1191   H         2 RES2   0.0000
   105 C49     15.7305  -3.1540  -8.5037   C.ar      2 RES2   0.0000
   106 H47     15.8635  -3.6155  -9.3233   H         2 RES2   0.0000
   107 C50     16.7008  -2.3229  -8.0016   C.ar      2 RES2   0.0000
   108 H48     17.5151  -2.2040  -8.4770   H         2 RES2   0.0000
   109 C51     16.4933  -1.6517  -6.7926   C.ar      2 RES2   0.0000
   110 H49     17.1870  -1.0880  -6.4726   H         2 RES2   0.0000
   111 C52     15.3099  -2.1378  -3.3628   C.ar      2 RES2   0.0000
   112 C53     16.2562   0.1906  -4.4987   C.ar      2 RES2   0.0000
   113 C54     17.5713   0.0220  -4.0525   C.ar      2 RES2   0.0000
   114 H50     17.8083  -0.7967  -3.6326   H         2 RES2   0.0000
   115 C55     15.7599  -1.8187  -2.0728   C.ar      2 RES2   0.0000
   116 H51     16.0399  -0.9270  -1.9000   H         2 RES2   0.0000
   117 C56     18.5479   1.0019  -4.1964   C.ar      2 RES2   0.0000
   118 H52     19.4272   0.8516  -3.8691   H         2 RES2   0.0000
   119 C57     15.8154  -2.7441  -1.0351   C.ar      2 RES2   0.0000
   120 H53     16.1370  -2.4803  -0.1797   H         2 RES2   0.0000
   121 C58     15.4050  -4.0468  -1.2481   C.ar      2 RES2   0.0000
   122 H54     15.4348  -4.6855  -0.5453   H         2 RES2   0.0000
   123 C59     18.2331   2.1953  -4.8191   C.ar      2 RES2   0.0000
   124 H55     18.8976   2.8651  -4.9335   H         2 RES2   0.0000
   125 C60     14.9525  -4.4033  -2.4986   C.ar      2 RES2   0.0000
   126 H56     14.6664  -5.2935  -2.6572   H         2 RES2   0.0000
   127 C61     16.9500   2.4072  -5.2722   C.ar      2 RES2   0.0000
   128 H57     16.7278   3.2227  -5.7061   H         2 RES2   0.0000
   129 C62     14.9109  -3.4727  -3.5327   C.ar      2 RES2   0.0000
   130 H58     14.6005  -3.7514  -4.3867   H         2 RES2   0.0000
   131 C63     15.9815   1.4279  -5.0948   C.ar      2 RES2   0.0000
   132 H59     15.0960   1.6052  -5.3897   H         2 RES2   0.0000
   133 B1      15.1403  -1.0158  -4.5610   B         2 RES2  -1.0000
@<TRIPOS>BOND
     1     1     2    1
     2     3     6    2
     3     4     1    1
     4     5     1    1
     5     7     3    2
     6     8     1    1
     7     9     1    1
     8    10    27    3
     9    11     4    1
    10    12    11    1
    11    13    11    1
    12    14     8    2
    13    15    14    1
    14    16     8    1
    15    17    16    1
    16    18    16    1
    17    19     9    1
    18    20    19    1
    19    21    19    1
    20    22     9    2
    21    23    22    1
    22    24     5    1
    23    25    24    1
    24    26    24    1
    25    27     1    1
    26    28     3    1
    27    29    28    1
    28    30    28    1
    29    31     3    1
    30    32    31   ar
    31    33    32    1
    32    34    32   ar
    33    35    34    1
    34    36    34   ar
    35    37    36   ar
    36    38    37    1
    37    39    31   ar
    38    40    39    1
    39    41    36    1
    40    42    41    1
    41    43    41    1
    42    44    41    1
    43    45     4    1
    44    46    45   ar
    45    47    46    1
    46    48    46   ar
    47    49    48    1
    48    50    48   ar
    49    51    50    1
    50    52    50   ar
    51    53    52    1
    52    54    45   ar
    53    55    54    1
    54    56     5    1
    55    57    56   ar
    56    58    57    1
    57    59    57   ar
    58    60    59    1
    59    61    59   ar
    60    62    61    1
    61    63    61   ar
    62    64    63    1
    63    65    56   ar
    64    66    65    1
    65    67     4    1
    66    68    67   ar
    67    69    68    1
    68    70    68   ar
    69    71    70    1
    70    72    70   ar
    71    73    72    1
    72    74    72   ar
    73    75    74    1
    74    76    67   ar
    75    77    76    1
    76    78     5    1
    77    79    78   ar
    78    80    79    1
    79    81    79   ar
    80    82    81    1
    81    83    81   ar
    82    84    83    1
    83    85    83   ar
    84    86    85    1
    85    87    78   ar
    86    88    87    1
    87    10    28    1
    88    11    14    1
    89    16    19    1
    90    22    24    1
    91    37    39   ar
    92    52    54   ar
    93    63    65   ar
    94    74    76   ar
    95    85    87   ar
    96    89    90   ar
    97    90    91    1
    98    92    90   ar
    99    93    92    1
   100    94    92   ar
   101    95    94    1
   102    96    94   ar
   103    97    96    1
   104    98    89   ar
   105    99    98    1
   106   100   101   ar
   107   101   102    1
   108   103   101   ar
   109   104   103    1
   110   105   103   ar
   111   106   105    1
   112   107   105   ar
   113   108   107    1
   114   109   100   ar
   115   110   109    1
   116   111   115   ar
   117   112   113   ar
   118   113   114    1
   119   115   116    1
   120   117   113   ar
   121   118   117    1
   122   119   115   ar
   123   120   119    1
   124   121   119   ar
   125   122   121    1
   126   123   117   ar
   127   124   123    1
   128   125   121   ar
   129   126   125    1
   130   127   123   ar
   131   128   127    1
   132   129   111   ar
   133   130   129    1
   134   131   112   ar
   135   132   131    1
   136   133    89    1
   137    96    98   ar
   138   100   133    1
   139   107   109   ar
   140   111   133    1
   141   112   133    1
   142   125   129   ar
   143   127   131   ar
@<TRIPOS>SUBSTRUCTURE
     1 RES1        1 GROUP             0 ****  ****    0  
     2 RES2       89 GROUP             0 ****  ****    0  
@<TRIPOS>CRYSIN
   13.5738   14.1207   15.8419   79.8470   76.8730   65.9040     2     1
