@<TRIPOS>MOLECULE
QOKKAD
   105   118     1     0     0
SMALL
NO_CHARGES
****
Generated from the CSD

@<TRIPOS>ATOM
     1 Fe1      3.7273   0.0000  12.5171   Fe        1 RES1   0.0000
     2 P1       4.1571  -1.8996  11.3710   P.3       1 RES1   0.0000
     3 F1       6.0124   0.2222  17.5051   F         1 RES1   0.0000
     4 F2       7.2434  -0.7393  19.6636   F         1 RES1   0.0000
     5 F3       7.9827  -3.3433  19.7692   F         1 RES1   0.0000
     6 F4       7.4607  -4.9635  17.6621   F         1 RES1   0.0000
     7 F5       6.2503  -3.9982  15.4764   F         1 RES1   0.0000
     8 F6       0.1607  -4.0540  12.4452   F         1 RES1   0.0000
     9 F7      -1.9394  -5.5178  13.2128   F         1 RES1   0.0000
    10 F8      -3.6507  -4.5564  15.0903   F         1 RES1   0.0000
    11 F9      -3.2107  -2.1342  16.2049   F         1 RES1   0.0000
    12 F10     -1.1026  -0.6742  15.4376   F         1 RES1   0.0000
    13 N1       3.2176  -1.1650  14.0559   N.2       1 RES1   0.0000
    14 N2       5.6108   0.0658  13.1870   N.2       1 RES1   0.0000
    15 C1       1.9734  -1.7022  14.3226   C.2       1 RES1   0.0000
    16 C2       2.0207  -2.4686  15.5325   C.2       1 RES1   0.0000
    17 H1       1.3125  -2.9253  15.9242   H         1 RES1   0.0000
    18 C3       3.2801  -2.4028  15.9913   C.2       1 RES1   0.0000
    19 H2       3.6058  -2.8077  16.7629   H         1 RES1   0.0000
    20 C4       4.0263  -1.5993  15.0811   C.2       1 RES1   0.0000
    21 C5       5.3800  -1.2974  15.2090   C.2       1 RES1   0.0000
    22 C6       6.1094  -0.5295  14.3341   C.2       1 RES1   0.0000
    23 C7       7.5099  -0.2044  14.4790   C.2       1 RES1   0.0000
    24 H3       8.0758  -0.4954  15.1582   H         1 RES1   0.0000
    25 C8       7.8405   0.5875  13.4621   C.2       1 RES1   0.0000
    26 H4       8.6798   0.9576  13.3057   H         1 RES1   0.0000
    27 C9       6.6711   0.7679  12.6505   C.2       1 RES1   0.0000
    28 C10      0.8501  -1.5389  13.5280   C.2       1 RES1   0.0000
    29 C11      6.0853  -1.8547  16.4152   C.ar      1 RES1   0.0000
    30 C12      6.3688  -1.0597  17.5061   C.ar      1 RES1   0.0000
    31 C13      7.0034  -1.5497  18.6319   C.ar      1 RES1   0.0000
    32 C14      7.3728  -2.8642  18.6722   C.ar      1 RES1   0.0000
    33 C15      7.1134  -3.6847  17.6188   C.ar      1 RES1   0.0000
    34 C16      6.4877  -3.1607  16.4998   C.ar      1 RES1   0.0000
    35 C17     -0.3779  -2.3146  13.9243   C.ar      1 RES1   0.0000
    36 C18     -0.6483  -3.5508  13.3788   C.ar      1 RES1   0.0000
    37 C19     -1.7396  -4.3055  13.7690   C.ar      1 RES1   0.0000
    38 C20     -2.5914  -3.8295  14.7151   C.ar      1 RES1   0.0000
    39 C21     -2.3720  -2.6110  15.2683   C.ar      1 RES1   0.0000
    40 C22     -1.2751  -1.8718  14.8648   C.ar      1 RES1   0.0000
    41 C23      4.9327  -1.8253   9.7456   C.ar      1 RES1   0.0000
    42 C24      6.3194  -1.7092   9.6597   C.ar      1 RES1   0.0000
    43 H5       6.8132  -1.6457  10.4468   H         1 RES1   0.0000
    44 C25      6.9783  -1.6844   8.4691   C.ar      1 RES1   0.0000
    45 H6       7.9065  -1.6364   8.4340   H         1 RES1   0.0000
    46 C26      6.2521  -1.7309   7.3575   C.ar      1 RES1   0.0000
    47 H7       6.7001  -1.7317   6.5439   H         1 RES1   0.0000
    48 C27      4.8716  -1.7773   7.3395   C.ar      1 RES1   0.0000
    49 H8       4.4021  -1.7704   6.5364   H         1 RES1   0.0000
    50 C28      4.1935  -1.8354   8.5875   C.ar      1 RES1   0.0000
    51 H9       3.2647  -1.8795   8.6193   H         1 RES1   0.0000
    52 H10      3.0878  -2.6629  11.1202   H         1 RES1   0.0000
    53 H11      5.0165  -2.6939  11.9789   H         1 RES1   0.0000
    54 P1B      3.2976   1.8996  13.6632   P.3       1 RES1   0.0000
    55 F1B      1.4422  -0.2222   7.5290   F         1 RES1   0.0000
    56 F2B      0.2112   0.7393   5.3706   F         1 RES1   0.0000
    57 F3B     -0.5281   3.3433   5.2649   F         1 RES1   0.0000
    58 F4B     -0.0060   4.9635   7.3721   F         1 RES1   0.0000
    59 F5B      1.2043   3.9982   9.5578   F         1 RES1   0.0000
    60 F6B      7.2939   4.0540  12.5889   F         1 RES1   0.0000
    61 F7B      9.3941   5.5178  11.8214   F         1 RES1   0.0000
    62 F8B     11.1053   4.5564   9.9438   F         1 RES1   0.0000
    63 F9B     10.6654   2.1342   8.8293   F         1 RES1   0.0000
    64 F10B     8.5573   0.6742   9.5966   F         1 RES1   0.0000
    65 N1B      4.2371   1.1650  10.9782   N.2       1 RES1   0.0000
    66 N2B      1.8438  -0.0658  11.8472   N.2       1 RES1   0.0000
    67 C1B      5.4812   1.7022  10.7116   C.2       1 RES1   0.0000
    68 C2B      5.4340   2.4686   9.5017   C.2       1 RES1   0.0000
    69 H1B      6.1421   2.9253   9.1099   H         1 RES1   0.0000
    70 C3B      4.1745   2.4028   9.0428   C.2       1 RES1   0.0000
    71 H2B      3.8488   2.8077   8.2713   H         1 RES1   0.0000
    72 C4B      3.4283   1.5993   9.9531   C.2       1 RES1   0.0000
    73 C5B      2.0746   1.2974   9.8252   C.2       1 RES1   0.0000
    74 C6B      1.3452   0.5295  10.7001   C.2       1 RES1   0.0000
    75 C7B     -0.0553   0.2044  10.5552   C.2       1 RES1   0.0000
    76 H3B     -0.6211   0.4954   9.8760   H         1 RES1   0.0000
    77 C8B     -0.3858  -0.5875  11.5720   C.2       1 RES1   0.0000
    78 H4B     -1.2252  -0.9576  11.7285   H         1 RES1   0.0000
    79 C9B      0.7835  -0.7679  12.3837   C.2       1 RES1   0.0000
    80 C10B     6.6045   1.5389  11.5062   C.2       1 RES1   0.0000
    81 C11B     1.3694   1.8547   8.6190   C.ar      1 RES1   0.0000
    82 C12B     1.0859   1.0597   7.5280   C.ar      1 RES1   0.0000
    83 C13B     0.4512   1.5497   6.4022   C.ar      1 RES1   0.0000
    84 C14B     0.0819   2.8642   6.3619   C.ar      1 RES1   0.0000
    85 C15B     0.3412   3.6847   7.4154   C.ar      1 RES1   0.0000
    86 C16B     0.9669   3.1607   8.5344   C.ar      1 RES1   0.0000
    87 C17B     7.8326   2.3146  11.1099   C.ar      1 RES1   0.0000
    88 C18B     8.1029   3.5508  11.6554   C.ar      1 RES1   0.0000
    89 C19B     9.1942   4.3055  11.2651   C.ar      1 RES1   0.0000
    90 C20B    10.0460   3.8295  10.3191   C.ar      1 RES1   0.0000
    91 C21B     9.8267   2.6110   9.7658   C.ar      1 RES1   0.0000
    92 C22B     8.7298   1.8718  10.1694   C.ar      1 RES1   0.0000
    93 C23B     2.5219   1.8253  15.2886   C.ar      1 RES1   0.0000
    94 C24B     1.1353   1.7092  15.3745   C.ar      1 RES1   0.0000
    95 H5B      0.6414   1.6457  14.5874   H         1 RES1   0.0000
    96 C25B     0.4763   1.6844  16.5651   C.ar      1 RES1   0.0000
    97 H6B     -0.4518   1.6364  16.6002   H         1 RES1   0.0000
    98 C26B     1.2025   1.7309  17.6766   C.ar      1 RES1   0.0000
    99 H7B      0.7545   1.7317  18.4902   H         1 RES1   0.0000
   100 C27B     2.5830   1.7773  17.6947   C.ar      1 RES1   0.0000
   101 H8B      3.0525   1.7704  18.4978   H         1 RES1   0.0000
   102 C28B     3.2612   1.8354  16.4467   C.ar      1 RES1   0.0000
   103 H9B      4.1899   1.8795  16.4149   H         1 RES1   0.0000
   104 H10B     4.3669   2.6629  13.9140   H         1 RES1   0.0000
   105 H11B     2.4381   2.6939  13.0553   H         1 RES1   0.0000
@<TRIPOS>BOND
     1     1     2    1
     2     2    41    1
     3     3    30    1
     4     4    31    1
     5     5    32    1
     6     6    33    1
     7     7    34    1
     8     8    36    1
     9     9    37    1
    10    10    38    1
    11    11    39    1
    12    12    40    1
    13    13     1    1
    14    14     1    1
    15    15    13    1
    16    16    15    1
    17    17    16    1
    18    18    16    2
    19    19    18    1
    20    20    13    1
    21    21    20    2
    22    22    14    2
    23    23    22    1
    24    24    23    1
    25    25    23    2
    26    26    25    1
    27    27    14    1
    28    28    15    2
    29    29    21    1
    30    30    29   ar
    31    31    30   ar
    32    32    31   ar
    33    33    32   ar
    34    34    29   ar
    35    35    28    1
    36    36    35   ar
    37    37    36   ar
    38    38    37   ar
    39    39    38   ar
    40    40    35   ar
    41    41    42   ar
    42    42    43    1
    43    44    42   ar
    44    45    44    1
    45    46    44   ar
    46    47    46    1
    47    48    46   ar
    48    49    48    1
    49    50    41   ar
    50    51    50    1
    51    52     2    1
    52    53     2    1
    53    54     1    1
    54    55    82    1
    55    56    83    1
    56    57    84    1
    57    58    85    1
    58    59    86    1
    59    60    88    1
    60    61    89    1
    61    62    90    1
    62    63    91    1
    63    64    92    1
    64    65     1    1
    65    66     1    1
    66    67    65    1
    67    68    67    2
    68    69    68    1
    69    70    68    1
    70    71    70    1
    71    72    65    1
    72    73    72    1
    73    74    66    1
    74    75    74    1
    75    76    75    1
    76    77    75    2
    77    78    77    1
    78    79    28    1
    79    80    27    2
    80    81    73    1
    81    82    81   ar
    82    83    82   ar
    83    84    83   ar
    84    85    84   ar
    85    86    81   ar
    86    87    80    1
    87    88    87   ar
    88    89    88   ar
    89    90    89   ar
    90    91    90   ar
    91    92    87   ar
    92    93    54    1
    93    94    93   ar
    94    95    94    1
    95    96    94   ar
    96    97    96    1
    97    98    96   ar
    98    99    98    1
    99   100    98   ar
   100   101   100    1
   101   102    93   ar
   102   103   102    1
   103   104    54    1
   104   105    54    1
   105    18    20    1
   106    21    22    1
   107    25    27    1
   108    33    34   ar
   109    39    40   ar
   110    48    50   ar
   111    66    79    2
   112    67    80    1
   113    70    72    2
   114    73    74    2
   115    77    79    1
   116    85    86   ar
   117    91    92   ar
   118   100   102   ar
@<TRIPOS>SUBSTRUCTURE
     1 RES1        1 GROUP             0 ****  ****    0  
@<TRIPOS>CRYSIN
   13.0000    7.7410   25.6410   90.0000  102.4900   90.0000    14     1
