@<TRIPOS>MOLECULE
QOKSUI
    99    98     5     0     0
SMALL
USER_CHARGES
****
Generated from the CSD

@<TRIPOS>ATOM
     1 O1       4.5310   0.2281  28.9496   O.3       1 RES1   0.0000
     2 H1       4.2833  -0.4984  28.6618   H         1 RES1   0.0000
     3 O2       2.4244   0.7988  28.5457   O.2       1 RES1   0.0000
     4 O3       3.2230   7.8394  17.4830   O.2       1 RES1   0.0000
     5 O4       4.8766   9.2043  17.6550   O.3       1 RES1   0.0000
     6 H2       5.2857   8.9438  16.9935   H         1 RES1   0.0000
     7 N1       3.0126   4.0402  27.8828   N.ar      1 RES1   1.0000
     8 C1       3.5246   1.0683  28.9378   C.2       1 RES1   0.0000
     9 N2       3.6286   6.3516  21.3395   N.ar      1 RES1   1.0000
    10 C2       3.9181   2.4095  29.5001   C.3       1 RES1   0.0000
    11 H3       4.7627   2.6752  29.1046   H         1 RES1   0.0000
    12 H4       4.0582   2.3154  30.4554   H         1 RES1   0.0000
    13 C3       2.9095   3.5085  29.2671   C.3       1 RES1   0.0000
    14 H5       2.0156   3.1622  29.4145   H         1 RES1   0.0000
    15 H6       3.0625   4.2260  29.9011   H         1 RES1   0.0000
    16 C4       2.3328   3.4624  26.8817   C.ar      1 RES1   0.0000
    17 H7       1.7571   2.7554  27.0674   H         1 RES1   0.0000
    18 C5       2.4715   3.8937  25.5973   C.ar      1 RES1   0.0000
    19 H8       2.0052   3.4724  24.9114   H         1 RES1   0.0000
    20 C6       3.8130   5.0872  27.6466   C.ar      1 RES1   0.0000
    21 H9       4.2625   5.4901  28.3545   H         1 RES1   0.0000
    22 C7       3.9792   5.5729  26.3818   C.ar      1 RES1   0.0000
    23 H10      4.5321   6.3043  26.2294   H         1 RES1   0.0000
    24 C8       3.3097   4.9596  25.3140   C.ar      1 RES1   0.0000
    25 C9       3.4734   5.4405  23.9236   C.ar      1 RES1   0.0000
    26 C10      3.4640   4.5602  22.8586   C.ar      1 RES1   0.0000
    27 H11      3.3981   3.6448  23.0123   H         1 RES1   0.0000
    28 C11      3.5522   5.0364  21.5724   C.ar      1 RES1   0.0000
    29 H12      3.5582   4.4409  20.8587   H         1 RES1   0.0000
    30 C12      3.6266   6.8042  23.6532   C.ar      1 RES1   0.0000
    31 H13      3.6726   7.4185  24.3494   H         1 RES1   0.0000
    32 C13      3.7067   7.2226  22.3595   C.ar      1 RES1   0.0000
    33 H14      3.8173   8.1277  22.1788   H         1 RES1   0.0000
    34 C14      3.4572   6.8621  19.9562   C.3       1 RES1   0.0000
    35 H15      3.4500   6.1050  19.3492   H         1 RES1   0.0000
    36 H16      2.5912   7.2937  19.8937   H         1 RES1   0.0000
    37 C15      4.4734   7.8004  19.5077   C.3       1 RES1   0.0000
    38 H17      5.3440   7.3737  19.5189   H         1 RES1   0.0000
    39 H18      4.5016   8.5646  20.1050   H         1 RES1   0.0000
    40 C16      4.1432   8.2601  18.0995   C.2       1 RES1   0.0000
    41 Fe1      3.6495  -0.0753  22.9029   Fe        2 RES2  -3.0000
    42 N3       3.8129  -2.1259  25.1963   N.1       2 RES2   0.0000
    43 C17      3.7529  -1.3637  24.3393   C.1       2 RES2   0.0000
    44 N4       6.1018  -1.4275  21.5953   N.1       2 RES2   0.0000
    45 C18      5.2234  -0.8875  22.0983   C.1       2 RES2   0.0000
    46 N5       1.9811  -2.0089  21.1871   N.1       2 RES2   0.0000
    47 C19      2.5920  -1.2892  21.8272   C.1       2 RES2   0.0000
    48 N6       1.0457   1.1108  24.0592   N.1       2 RES2   0.0000
    49 C20      2.0192   0.6712  23.6650   C.1       2 RES2   0.0000
    50 N7       3.3111   1.9155  20.5763   N.1       2 RES2   0.0000
    51 C21      3.4933   1.2018  21.4515   C.1       2 RES2   0.0000
    52 N8       5.3064   1.8446  24.6554   N.1       2 RES2   0.0000
    53 C22      4.6944   1.1356  23.9914   C.1       2 RES2   0.0000
    54 O5       0.3053   6.0846  21.3559   O.3       3 RES3   0.0000
    55 H19     -0.0606   6.8143  21.2753   H         3 RES3   0.0000
    56 O6      -1.6541   5.2432  20.7775   O.2       3 RES3   0.0000
    57 N9      -0.8779   1.9356  20.6919   N.ar      3 RES3   1.0000
    58 C23     -0.5934   5.1392  21.3095   C.2       3 RES3   0.0000
    59 C24     -0.1386   3.8972  22.0359   C.3       3 RES3   0.0000
    60 H20      0.7217   3.6269  21.6784   H         3 RES3   0.0000
    61 H21     -0.0106   4.1156  22.9724   H         3 RES3   0.0000
    62 C25     -1.0862   2.7297  21.9406   C.3       3 RES3   0.0000
    63 H22     -0.9593   2.1528  22.7102   H         3 RES3   0.0000
    64 H23     -1.9987   3.0576  21.9614   H         3 RES3   0.0000
    65 C26     -1.6452   2.1011  19.6137   C.ar      3 RES3   0.0000
    66 H24     -2.3319   2.7283  19.6334   H         3 RES3   0.0000
    67 C27     -1.4392   1.3684  18.4834   C.ar      3 RES3   0.0000
    68 H25     -1.9764   1.5172  17.7392   H         3 RES3   0.0000
    69 C28      0.0386   0.9855  20.6626   C.ar      3 RES3   0.0000
    70 H26      0.5474   0.8297  21.4252   H         3 RES3   0.0000
    71 C29      0.2627   0.2328  19.5680   C.ar      3 RES3   0.0000
    72 H27      0.9201  -0.4249  19.5933   H         3 RES3   0.0000
    73 C30     -0.4567   0.4171  18.4217   C.ar      3 RES3   0.0000
    74 O5B     -1.0047  -6.0846  14.3223   O.3       3 RES3   0.0000
    75 H19B    -0.6388  -6.8143  14.4029   H         3 RES3   0.0000
    76 O6B      0.9548  -5.2432  14.9006   O.2       3 RES3   0.0000
    77 N9B      0.1785  -1.9356  14.9862   N.ar      3 RES3   1.0000
    78 C23B    -0.1060  -5.1392  14.3687   C.2       3 RES3   0.0000
    79 C24B    -0.5608  -3.8972  13.6423   C.3       3 RES3   0.0000
    80 H20B    -1.4211  -3.6269  13.9998   H         3 RES3   0.0000
    81 H21B    -0.6888  -4.1156  12.7058   H         3 RES3   0.0000
    82 C25B     0.3868  -2.7297  13.7375   C.3       3 RES3   0.0000
    83 H22B     0.2599  -2.1528  12.9680   H         3 RES3   0.0000
    84 H23B     1.2993  -3.0576  13.7167   H         3 RES3   0.0000
    85 C26B     0.9458  -2.1011  16.0644   C.ar      3 RES3   0.0000
    86 H24B     1.6325  -2.7283  16.0448   H         3 RES3   0.0000
    87 C27B     0.7398  -1.3684  17.1947   C.ar      3 RES3   0.0000
    88 H25B     1.2770  -1.5172  17.9389   H         3 RES3   0.0000
    89 C28B    -0.7380  -0.9855  15.0155   C.ar      3 RES3   0.0000
    90 H26B    -1.2468  -0.8297  14.2530   H         3 RES3   0.0000
    91 C29B    -0.9621  -0.2328  16.1101   C.ar      3 RES3   0.0000
    92 H27B    -1.6195   0.4249  16.0849   H         3 RES3   0.0000
    93 C30B    -0.2427  -0.4171  17.2564   C.ar      3 RES3   0.0000
    94 O7       7.1506   3.7968  25.4867   O.3       4 RES4   0.0000
    95 H28      7.2023   3.6741  26.3262   H         4 RES4   0.0000
    96 H29      6.6200   3.1915  25.2145   H         4 RES4   0.0000
    97 O8      -0.2924   8.4858  20.3362   O.3       5 RES5   0.0000
    98 H30     -0.8376   9.1383  20.3135   H         5 RES5   0.0000
    99 H31      0.4526   8.8397  20.5462   H         5 RES5   0.0000
@<TRIPOS>BOND
     1     1     2    1
     2     3     8    2
     3     4    40    2
     4     5     6    1
     5     7    13    1
     6     8     1    1
     7     9    28   ar
     8    10     8    1
     9    11    10    1
    10    12    10    1
    11    13    10    1
    12    14    13    1
    13    15    13    1
    14    16     7   ar
    15    17    16    1
    16    18    16   ar
    17    19    18    1
    18    20     7   ar
    19    21    20    1
    20    22    20   ar
    21    23    22    1
    22    24    18   ar
    23    25    24    1
    24    26    25   ar
    25    27    26    1
    26    28    26   ar
    27    29    28    1
    28    30    25   ar
    29    31    30    1
    30    32     9   ar
    31    33    32    1
    32    34     9    1
    33    35    34    1
    34    36    34    1
    35    37    34    1
    36    38    37    1
    37    39    37    1
    38    40     5    1
    39    22    24   ar
    40    30    32   ar
    41    37    40    1
    42    41    43    1
    43    42    43    3
    44    44    45    3
    45    45    41    1
    46    46    47    3
    47    47    41    1
    48    48    49    3
    49    49    41    1
    50    50    51    3
    51    51    41    1
    52    52    53    3
    53    53    41    1
    54    54    55    1
    55    56    58    2
    56    57    62    1
    57    58    54    1
    58    59    58    1
    59    60    59    1
    60    61    59    1
    61    62    59    1
    62    63    62    1
    63    64    62    1
    64    65    57   ar
    65    66    65    1
    66    67    65   ar
    67    68    67    1
    68    69    57   ar
    69    70    69    1
    70    71    69   ar
    71    72    71    1
    72    73    67   ar
    73    74    75    1
    74    76    78    2
    75    77    82    1
    76    78    74    1
    77    79    78    1
    78    80    79    1
    79    81    79    1
    80    82    79    1
    81    83    82    1
    82    84    82    1
    83    85    77   ar
    84    86    85    1
    85    87    85   ar
    86    88    87    1
    87    89    77   ar
    88    90    89    1
    89    91    89   ar
    90    92    91    1
    91    93    73    1
    92    71    73   ar
    93    87    93   ar
    94    91    93   ar
    95    94    95    1
    96    96    94    1
    97    97    98    1
    98    99    97    1
@<TRIPOS>SUBSTRUCTURE
     1 RES1        1 GROUP             0 ****  ****    0  
     2 RES2       41 GROUP             0 ****  ****    0  
     3 RES3       54 GROUP             0 ****  ****    0  
     4 RES4       94 GROUP             0 ****  ****    0  
     5 RES5       97 GROUP             0 ****  ****    0  
@<TRIPOS>CRYSIN
    8.1707   11.8170   35.6850   90.0000   91.1230   90.0000   231     1
