@<TRIPOS>MOLECULE
QOKSUI01
    99    98     5     0     0
SMALL
USER_CHARGES
****
Generated from the CSD

@<TRIPOS>ATOM
     1 Fe1      3.7114   5.9765  22.8025   Fe        1 RES1  -3.0000
     2 N1       2.0577   7.9082  21.0747   N.1       1 RES1   0.0000
     3 N2       3.8718   8.0216  25.0943   N.1       1 RES1   0.0000
     4 N3       5.3609   4.0569  24.5609   N.1       1 RES1   0.0000
     5 C1       2.6601   7.1876  21.7229   C.1       1 RES1   0.0000
     6 C2       3.8097   7.2620  24.2421   C.1       1 RES1   0.0000
     7 C3       2.0819   5.2324  23.5697   C.1       1 RES1   0.0000
     8 N4       1.1082   4.7953  23.9706   N.1       1 RES1   0.0000
     9 C4       5.2817   6.7835  21.9930   C.1       1 RES1   0.0000
    10 N5       6.1632   7.3199  21.4933   N.1       1 RES1   0.0000
    11 C5       3.5507   4.7008  21.3632   C.1       1 RES1   0.0000
    12 C6       4.7594   4.7657  23.9042   C.1       1 RES1   0.0000
    13 N6       3.3535   3.9766  20.4919   N.1       1 RES1   0.0000
    14 O1       3.4404  -8.0216   7.6142   O.3       2 RES2   0.0000
    15 H1       2.7122  -8.4499   7.5193   H         2 RES2   0.0000
    16 H2       3.5438  -7.9614   8.4561   H         2 RES2   0.0000
    17 O2       2.9724  -5.6919   6.6913   O.3       3 RES3   0.0000
    18 H3       3.1406  -6.3193   7.1915   H         3 RES3   0.0000
    19 N7       4.4678  -1.8831   7.7436   N.ar      3 RES3   1.0000
    20 O3       5.0648  -5.1225   7.0900   O.2       3 RES3   0.0000
    21 N8       3.8582   0.4607  14.2753   N.ar      3 RES3   1.0000
    22 C7       5.0015  -2.0178  10.0212   C.ar      3 RES3   0.0000
    23 H4       5.4726  -2.4300  10.7087   H         3 RES3   0.0000
    24 C8       4.0004  -0.4513  11.6864   C.ar      3 RES3   0.0000
    25 C9       4.1564  -0.9463  10.3005   C.ar      3 RES3   0.0000
    26 C10      3.4950  -0.3473   9.2386   C.ar      3 RES3   0.0000
    27 H5       2.9382   0.3826   9.3869   H         3 RES3   0.0000
    28 C11      5.1376  -2.4585   8.7447   C.ar      3 RES3   0.0000
    29 H6       5.7056  -3.1725   8.5647   H         3 RES3   0.0000
    30 C12      3.6659  -0.8352   7.9749   C.ar      3 RES3   0.0000
    31 H7       3.2188  -0.4338   7.2647   H         3 RES3   0.0000
    32 C13      3.9627  -4.8543   6.7009   C.2       3 RES3   0.0000
    33 C14      4.0178  -1.3373  12.7682   C.ar      3 RES3   0.0000
    34 H8       4.0778  -2.2539  12.6211   H         3 RES3   0.0000
    35 C15      3.8587   0.8931  11.9590   C.ar      3 RES3   0.0000
    36 H9       3.8114   1.5044  11.2600   H         3 RES3   0.0000
    37 C16      4.5895  -2.4159   6.3566   C.3       3 RES3   0.0000
    38 H10      5.4843  -2.7645   6.2197   H         3 RES3   0.0000
    39 H11      4.4436  -1.7001   5.7188   H         3 RES3   0.0000
    40 C17      3.7886   1.3267  13.2440   C.ar      3 RES3   0.0000
    41 H12      3.6902   2.2356  13.4152   H         3 RES3   0.0000
    42 C18      3.5810  -3.5123   6.1241   C.3       3 RES3   0.0000
    43 H13      3.4475  -3.6122   5.1688   H         3 RES3   0.0000
    44 H14      2.7337  -3.2392   6.5107   H         3 RES3   0.0000
    45 C19      3.9462  -0.8506  14.0411   C.ar      3 RES3   0.0000
    46 H15      3.9587  -1.4428  14.7581   H         3 RES3   0.0000
    47 C20      4.0105   0.9664  15.6687   C.3       3 RES3   0.0000
    48 H16      4.0214   0.2059  16.2707   H         3 RES3   0.0000
    49 H17      4.8704   1.4084  15.7420   H         3 RES3   0.0000
    50 C21      2.9954   1.8760  16.1080   C.3       3 RES3   0.0000
    51 H18      2.1305   1.4373  16.0905   H         3 RES3   0.0000
    52 H19      2.9603   2.6416  15.5136   H         3 RES3   0.0000
    53 O4       4.2267   1.9068  18.1468   O.2       3 RES3   0.0000
    54 C22      3.3176   2.3403  17.5401   C.2       3 RES3   0.0000
    55 O5       2.5735   3.2394  17.9698   O.3       3 RES3   0.0000
    56 H20      2.8711   3.5250  18.6787   H         3 RES3   0.0000
    57 N9      -0.8216  15.7668  20.6113   N.ar      4 RES4   1.0000
    58 O6       0.4021  11.6485  21.1873   O.3       4 RES4   0.0000
    59 H21      0.0572  10.9272  21.0036   H         4 RES4   0.0000
    60 O7      -1.5756  12.4530  20.6671   O.2       4 RES4   0.0000
    61 C23     -0.4102  17.3003  18.3600   C.ar      4 RES4   0.0000
    62 C24     -0.0576  13.8116  21.9251   C.3       4 RES4   0.0000
    63 H22      0.0775  13.5842  22.8584   H         4 RES4   0.0000
    64 H23      0.7971  14.0957  21.5652   H         4 RES4   0.0000
    65 C25     -0.5076  12.5759  21.1863   C.2       4 RES4   0.0000
    66 C26     -1.0230  14.9623  21.8433   C.3       4 RES4   0.0000
    67 H24     -1.9304  14.6206  21.8573   H         4 RES4   0.0000
    68 H25     -0.9068  15.5328  22.6196   H         4 RES4   0.0000
    69 C27      0.0697  16.7238  20.5914   C.ar      4 RES4   0.0000
    70 H26      0.5602  16.8939  21.3628   H         4 RES4   0.0000
    71 C28      0.3055  17.4739  19.4922   C.ar      4 RES4   0.0000
    72 H27      0.9732  18.1208  19.5159   H         4 RES4   0.0000
    73 C29     -1.5846  15.5790  19.5284   C.ar      4 RES4   0.0000
    74 H28     -2.2558  14.9354  19.5413   H         4 RES4   0.0000
    75 C30     -1.3817  16.3315  18.3976   C.ar      4 RES4   0.0000
    76 H29     -1.9095  16.1824  17.6469   H         4 RES4   0.0000
    77 N9B      0.2124  19.6749  14.9260   N.ar      4 RES4   1.0000
    78 O6B     -1.0112  23.7932  14.3500   O.3       4 RES4   0.0000
    79 H21B    -0.6663  24.5145  14.5337   H         4 RES4   0.0000
    80 O7B      0.9664  22.9887  14.8702   O.2       4 RES4   0.0000
    81 C23B    -0.1990  18.1414  17.1773   C.ar      4 RES4   0.0000
    82 C24B    -0.5515  21.6301  13.6122   C.3       4 RES4   0.0000
    83 H22B    -0.6866  21.8575  12.6789   H         4 RES4   0.0000
    84 H23B    -1.4062  21.3460  13.9721   H         4 RES4   0.0000
    85 C25B    -0.1016  22.8658  14.3510   C.2       4 RES4   0.0000
    86 C26B     0.4139  20.4794  13.6939   C.3       4 RES4   0.0000
    87 H24B     1.3212  20.8211  13.6800   H         4 RES4   0.0000
    88 H25B     0.2977  19.9089  12.9177   H         4 RES4   0.0000
    89 C27B    -0.6788  18.7179  14.9459   C.ar      4 RES4   0.0000
    90 H26B    -1.1694  18.5478  14.1745   H         4 RES4   0.0000
    91 C28B    -0.9146  17.9678  16.0451   C.ar      4 RES4   0.0000
    92 H27B    -1.5823  17.3209  16.0214   H         4 RES4   0.0000
    93 C29B     0.9755  19.8627  16.0088   C.ar      4 RES4   0.0000
    94 H28B     1.6467  20.5063  15.9960   H         4 RES4   0.0000
    95 C30B     0.7725  19.1102  17.1396   C.ar      4 RES4   0.0000
    96 H29B     1.3004  19.2593  17.8904   H         4 RES4   0.0000
    97 O8      -0.2137   9.2337  20.2250   O.3       5 RES5   0.0000
    98 H30      0.5031   8.8164  20.4117   H         5 RES5   0.0000
    99 H31     -0.8261   8.7876  20.6096   H         5 RES5   0.0000
@<TRIPOS>BOND
     1     1     5    1
     2     2     5    3
     3     3     6    3
     4     4    12    3
     5     6     1    1
     6     7     1    1
     7     8     7    3
     8     9     1    1
     9    10     9    3
    10    11     1    1
    11    12     1    1
    12    13    11    3
    13    14    15    1
    14    16    14    1
    15    17    18    1
    16    19    28   ar
    17    20    32    2
    18    21    40   ar
    19    22    23    1
    20    24    25    1
    21    25    22   ar
    22    26    25   ar
    23    27    26    1
    24    28    22   ar
    25    29    28    1
    26    30    19   ar
    27    31    30    1
    28    32    17    1
    29    33    24   ar
    30    34    33    1
    31    35    24   ar
    32    36    35    1
    33    37    19    1
    34    38    37    1
    35    39    37    1
    36    40    35   ar
    37    41    40    1
    38    42    32    1
    39    43    42    1
    40    44    42    1
    41    45    21   ar
    42    46    45    1
    43    47    21    1
    44    48    47    1
    45    49    47    1
    46    50    47    1
    47    51    50    1
    48    52    50    1
    49    53    54    2
    50    54    50    1
    51    55    54    1
    52    56    55    1
    53    26    30   ar
    54    33    45   ar
    55    37    42    1
    56    57    66    1
    57    58    59    1
    58    60    65    2
    59    61    71   ar
    60    62    63    1
    61    64    62    1
    62    65    58    1
    63    66    62    1
    64    67    66    1
    65    68    66    1
    66    69    57   ar
    67    70    69    1
    68    71    69   ar
    69    72    71    1
    70    73    57   ar
    71    74    73    1
    72    75    61   ar
    73    76    75    1
    74    77    86    1
    75    78    79    1
    76    80    85    2
    77    81    61    1
    78    82    83    1
    79    84    82    1
    80    85    78    1
    81    86    82    1
    82    87    86    1
    83    88    86    1
    84    89    77   ar
    85    90    89    1
    86    91    81   ar
    87    92    91    1
    88    93    77   ar
    89    94    93    1
    90    95    81   ar
    91    96    95    1
    92    62    65    1
    93    73    75   ar
    94    82    85    1
    95    89    91   ar
    96    93    95   ar
    97    97    98    1
    98    99    97    1
@<TRIPOS>SUBSTRUCTURE
     1 RES1        1 GROUP             0 ****  ****    0  
     2 RES2       14 GROUP             0 ****  ****    0  
     3 RES3       17 GROUP             0 ****  ****    0  
     4 RES4       57 GROUP             0 ****  ****    0  
     5 RES5       97 GROUP             0 ****  ****    0  
@<TRIPOS>CRYSIN
    8.1584   11.8139   35.5425   90.0000   90.9820   90.0000   231     1
