@<TRIPOS>MOLECULE
QOLPAL
    82    90     3     0     0
SMALL
USER_CHARGES
****
Generated from the CSD

@<TRIPOS>ATOM
     1 Br1      9.2329  10.0699  18.1077   Br        1 RES1   0.0000
     2 Br2      3.2701   9.9962   7.8734   Br        1 RES1   0.0000
     3 Fe1      6.2751   5.6536  13.0055   Fe        1 RES1   1.0000
     4 O1       5.8172   6.9191  14.2948   O.3       1 RES1   0.0000
     5 N1       8.1553   5.6602  13.5136   N.2       1 RES1   0.0000
     6 C1       8.9342   4.7163  12.7190   C.ar      1 RES1   0.0000
     7 C2      10.3042   4.4906  12.7954   C.ar      1 RES1   0.0000
     8 H1      10.8169   4.9567  13.4162   H         1 RES1   0.0000
     9 C3      10.9065   3.5688  11.9474   C.ar      1 RES1   0.0000
    10 H2      11.8223   3.4178  12.0008   H         1 RES1   0.0000
    11 C4      10.1387   2.8711  11.0229   C.ar      1 RES1   0.0000
    12 H3      10.5419   2.2541  10.4537   H         1 RES1   0.0000
    13 C5       8.7700   3.0968  10.9446   C.ar      1 RES1   0.0000
    14 C6       8.1677   4.0187  11.7926   C.ar      1 RES1   0.0000
    15 N2       6.7977   4.2429  11.7143   N.ar      1 RES1   0.0000
    16 C7       6.0300   3.5468  10.7880   C.ar      1 RES1   0.0000
    17 H4       5.1142   3.6963  10.7364   H         1 RES1   0.0000
    18 C8       6.6322   2.6234   9.9399   C.ar      1 RES1   0.0000
    19 H5       6.1196   2.1574   9.3210   H         1 RES1   0.0000
    20 C9       8.0022   2.3992  10.0182   C.ar      1 RES1   0.0000
    21 H6       8.4054   1.7822   9.4509   H         1 RES1   0.0000
    22 N3       4.4024   5.6060  12.5643   N.2       1 RES1   0.0000
    23 O2       6.7094   6.9162  11.7048   O.3       1 RES1   0.0000
    24 C10      5.8744   7.5376  10.8625   C.ar      1 RES1   0.0000
    25 C11      4.4945   7.3808  10.8739   C.ar      1 RES1   0.0000
    26 C12      3.7068   8.0828   9.9686   C.ar      1 RES1   0.0000
    27 H7       2.7823   7.9773   9.9762   H         1 RES1   0.0000
    28 C13      4.3004   8.9417   9.0517   C.ar      1 RES1   0.0000
    29 C14      5.6816   9.0985   9.0384   C.ar      1 RES1   0.0000
    30 H8       6.0785   9.6745   8.4252   H         1 RES1   0.0000
    31 C15      6.4692   8.3979   9.9456   C.ar      1 RES1   0.0000
    32 H9       7.3925   8.5035   9.9361   H         1 RES1   0.0000
    33 C16      8.1988   9.0472  16.8848   C.ar      1 RES1   0.0000
    34 C17      8.7973   8.1473  16.0119   C.ar      1 RES1   0.0000
    35 H10      9.7219   8.0462  16.0081   H         1 RES1   0.0000
    36 C18      8.0147   7.3969  15.1410   C.ar      1 RES1   0.0000
    37 C19      6.6322   7.5464  15.1467   C.ar      1 RES1   0.0000
    38 C20      6.0337   8.4463  16.0196   C.ar      1 RES1   0.0000
    39 H11      5.1092   8.5474  16.0215   H         1 RES1   0.0000
    40 C21      6.8164   9.1982  16.8887   C.ar      1 RES1   0.0000
    41 H12      6.4157   9.8005  17.4731   H         1 RES1   0.0000
    42 C22      3.8076   6.4252  11.7621   C.2       1 RES1   0.0000
    43 H13      2.8781   6.4106  11.7449   H         1 RES1   0.0000
    44 C23      8.7003   6.4824  14.3177   C.2       1 RES1   0.0000
    45 H14      9.6285   6.4795  14.3655   H         1 RES1   0.0000
    46 C24      3.5836   4.6768  13.2978   C.ar      1 RES1   0.0000
    47 C25      2.2174   4.4188  13.2596   C.ar      1 RES1   0.0000
    48 H15      1.6724   4.8863  12.6694   H         1 RES1   0.0000
    49 C26      1.6674   3.4603  14.1019   C.ar      1 RES1   0.0000
    50 H16      0.7541   3.2874  14.0771   H         1 RES1   0.0000
    51 C27      2.4824   2.7597  14.9843   C.ar      1 RES1   0.0000
    52 H17      2.1141   2.1193  15.5497   H         1 RES1   0.0000
    53 C28      3.8474   3.0177  15.0225   C.ar      1 RES1   0.0000
    54 C29      4.3987   3.9762  14.1802   C.ar      1 RES1   0.0000
    55 N4       5.7637   4.2341  14.2184   N.ar      1 RES1   0.0000
    56 C30      6.5787   3.5336  15.1009   C.ar      1 RES1   0.0000
    57 H18      7.4921   3.7065  15.1257   H         1 RES1   0.0000
    58 C31      6.0287   2.5765  15.9432   C.ar      1 RES1   0.0000
    59 H19      6.5737   2.1075  16.5334   H         1 RES1   0.0000
    60 C32      4.6625   2.3186  15.9050   C.ar      1 RES1   0.0000
    61 H20      4.2941   1.6781  16.4704   H         1 RES1   0.0000
    62 S1       8.2225   1.5535   6.0892   S.o2      2 RES2   0.0000
    63 O3       9.0512   0.9688   7.0825   O.2       2 RES2   0.0000
    64 C33      7.7446   0.1085   3.8067   C.ar      2 RES2   0.0000
    65 H21      6.8512   0.1656   4.0627   H         2 RES2   0.0000
    66 C34      8.0881  -0.5584   2.6378   C.ar      2 RES2   0.0000
    67 H22      7.4311  -0.9497   2.1106   H         2 RES2   0.0000
    68 C35      9.4195  -0.6434   2.2539   C.ar      2 RES2   0.0000
    69 C36     10.4112  -0.0586   3.0408   C.ar      2 RES2   0.0000
    70 H23     11.3034  -0.1158   2.7829   H         2 RES2   0.0000
    71 C37     10.0665   0.6082   4.2078   C.ar      2 RES2   0.0000
    72 H24     10.7248   0.9995   4.7350   H         2 RES2   0.0000
    73 C38      8.7351   0.6932   4.5918   C.ar      2 RES2   0.0000
    74 O4       6.8438   1.2091   6.3204   O.3       2 RES2  -1.0000
    75 C39      9.9421  -1.3718   1.0085   C.3       2 RES2   0.0000
    76 H25      9.6796  -2.2937   1.0467   H         2 RES2   0.0000
    77 H26     10.8990  -1.3117   0.9779   H         2 RES2   0.0000
    78 H27      9.5701  -0.9644   0.2235   H         2 RES2   0.0000
    79 O5       8.3245   2.9356   5.8104   O.2       2 RES2   0.0000
    80 O6      11.3121  -0.1172   8.2457   O.3       3 RES3   0.0000
    81 H28     10.5506   0.2448   8.1234   H         3 RES3   0.0000
    82 H29     11.6941  -0.2286   7.4950   H         3 RES3   0.0000
@<TRIPOS>BOND
     1     1    33    1
     2     2    28    1
     3     3     4    1
     4     4    37    1
     5     5     3    1
     6     6     5    1
     7     7     6   ar
     8     8     7    1
     9     9     7   ar
    10    10     9    1
    11    11     9   ar
    12    12    11    1
    13    13    11   ar
    14    14     6   ar
    15    15     3    1
    16    16    15   ar
    17    17    16    1
    18    18    16   ar
    19    19    18    1
    20    20    13   ar
    21    21    20    1
    22    22     3    1
    23    23     3    1
    24    24    23    1
    25    25    24   ar
    26    26    25   ar
    27    27    26    1
    28    28    26   ar
    29    29    28   ar
    30    30    29    1
    31    31    24   ar
    32    32    31    1
    33    33    34   ar
    34    34    35    1
    35    36    34   ar
    36    37    36   ar
    37    38    37   ar
    38    39    38    1
    39    40    33   ar
    40    41    40    1
    41    42    22    2
    42    43    42    1
    43    44     5    2
    44    45    44    1
    45    46    22    1
    46    47    46   ar
    47    48    47    1
    48    49    47   ar
    49    50    49    1
    50    51    49   ar
    51    52    51    1
    52    53    51   ar
    53    54    46   ar
    54    55     3    1
    55    56    55   ar
    56    57    56    1
    57    58    56   ar
    58    59    58    1
    59    60    53   ar
    60    61    60    1
    61    13    14   ar
    62    14    15   ar
    63    18    20   ar
    64    25    42    1
    65    29    31   ar
    66    36    44    1
    67    38    40   ar
    68    53    54   ar
    69    54    55   ar
    70    58    60   ar
    71    62    63    2
    72    64    65    1
    73    66    64   ar
    74    67    66    1
    75    68    66   ar
    76    69    68   ar
    77    70    69    1
    78    71    69   ar
    79    72    71    1
    80    73    62    1
    81    74    62    1
    82    75    68    1
    83    76    75    1
    84    77    75    1
    85    78    75    1
    86    79    62    2
    87    64    73   ar
    88    71    73   ar
    89    80    81    1
    90    82    80    1
@<TRIPOS>SUBSTRUCTURE
     1 RES1        1 GROUP             0 ****  ****    0  
     2 RES2       62 GROUP             0 ****  ****    0  
     3 RES3       80 GROUP             0 ****  ****    0  
@<TRIPOS>CRYSIN
   12.4432   14.6561   19.1005   90.0000   90.0000   90.0000    29     1
