@<TRIPOS>MOLECULE
QOLPAL01
    82    90     3     0     0
SMALL
USER_CHARGES
****
Generated from the CSD

@<TRIPOS>ATOM
     1 Br1      3.2710   9.8144   7.8888   Br        1 RES1   0.0000
     2 Br2      9.1513   9.9373  18.2300   Br        1 RES1   0.0000
     3 Fe1      6.2531   5.5265  13.0830   Fe        1 RES1   1.0000
     4 N1       8.1034   5.5567  13.5409   N.2       1 RES1   0.0000
     5 O1       6.7468   6.8227  11.7764   O.3       1 RES1   0.0000
     6 C1       8.7391   3.0216  10.9894   C.ar      1 RES1   0.0000
     7 C2       8.1713   8.8898  17.0027   C.ar      1 RES1   0.0000
     8 N2       5.7359   4.1025  14.3203   N.ar      1 RES1   0.0000
     9 C3       8.6773   6.3318  14.3607   C.2       1 RES1   0.0000
    10 H1       9.6241   6.3031  14.4184   H         1 RES1   0.0000
    11 O2       5.8038   6.7768  14.3703   O.3       1 RES1   0.0000
    12 C4       6.4309   8.2510   9.9792   C.ar      1 RES1   0.0000
    13 H2       7.3727   8.3874   9.9984   H         1 RES1   0.0000
    14 C5       7.9738   7.2519  15.2054   C.ar      1 RES1   0.0000
    15 C6      10.0968   2.8149  11.0452   C.ar      1 RES1   0.0000
    16 H3      10.5103   2.2207  10.4294   H         1 RES1   0.0000
    17 C7      10.8621   3.4752  12.0015   C.ar      1 RES1   0.0000
    18 H4      11.7990   3.3059  12.0670   H         1 RES1   0.0000
    19 C8       4.6534   2.1561  16.0656   C.ar      1 RES1   0.0000
    20 H5       4.3053   1.4972  16.6563   H         1 RES1   0.0000
    21 C9       3.6166   4.5691  13.4024   C.ar      1 RES1   0.0000
    22 C10      8.6897   7.9955  16.1810   C.ar      1 RES1   0.0000
    23 H6       9.6302   7.8434  16.2445   H         1 RES1   0.0000
    24 C11      5.9124   7.3639  10.9009   C.ar      1 RES1   0.0000
    25 C12     10.2696   4.3667  12.8424   C.ar      1 RES1   0.0000
    26 H7      10.7955   4.8231  13.4871   H         1 RES1   0.0000
    27 C13      5.7606   8.9099   9.0902   C.ar      1 RES1   0.0000
    28 H8       6.1939   9.4597   8.4494   H         1 RES1   0.0000
    29 C14      8.1342   3.9260  11.8226   C.ar      1 RES1   0.0000
    30 C15      6.5913   2.6097  10.0196   C.ar      1 RES1   0.0000
    31 H9       6.0223   2.1805   9.3903   H         1 RES1   0.0000
    32 N3       6.8209   4.1671  11.8322   N.ar      1 RES1   0.0000
    33 C16      6.8012   9.0865  17.0007   C.ar      1 RES1   0.0000
    34 H10      6.3963   9.7166  17.5857   H         1 RES1   0.0000
    35 N4       4.3782   5.4835  12.6404   N.2       1 RES1   0.0000
    36 C17      4.3695   3.8155  14.3030   C.ar      1 RES1   0.0000
    37 C18      2.2465   4.3624  13.2966   C.ar      1 RES1   0.0000
    38 H11      1.7157   4.8533  12.6827   H         1 RES1   0.0000
    39 C19      6.5296   7.4500  15.1900   C.ar      1 RES1   0.0000
    40 C20      3.7499   7.9539  10.0369   C.ar      1 RES1   0.0000
    41 H12      2.8056   7.8606  10.0542   H         1 RES1   0.0000
    42 C21      6.4802   3.4164  15.1862   C.ar      1 RES1   0.0000
    43 H13      7.4084   3.5887  15.2054   H         1 RES1   0.0000
    44 C22      6.0667   3.5456  10.9682   C.ar      1 RES1   0.0000
    45 H14      5.1336   3.7293  10.9663   H         1 RES1   0.0000
    46 C23      8.9119   4.6207  12.7789   C.ar      1 RES1   0.0000
    47 C24      3.8264   2.8393  15.1727   C.ar      1 RES1   0.0000
    48 C25      5.9742   2.4762  16.0559   C.ar      1 RES1   0.0000
    49 H15      6.5666   2.0427  16.6621   H         1 RES1   0.0000
    50 C26      2.3699   2.6527  15.0765   C.ar      1 RES1   0.0000
    51 H16      1.9330   2.0369  15.6538   H         1 RES1   0.0000
    52 C27      1.6663   3.3446  14.1836   C.ar      1 RES1   0.0000
    53 H17      0.7283   3.1724  14.1163   H         1 RES1   0.0000
    54 C28      4.4683   7.2677  10.9336   C.ar      1 RES1   0.0000
    55 C29      7.9121   2.3498  10.0427   C.ar      1 RES1   0.0000
    56 H18      8.2910   1.7254   9.4346   H         1 RES1   0.0000
    57 C30      6.0112   8.3113  16.0848   C.ar      1 RES1   0.0000
    58 H19      5.0608   8.4032  16.1156   H         1 RES1   0.0000
    59 C31      4.2831   8.7692   9.1171   C.ar      1 RES1   0.0000
    60 C32      3.7894   6.3361  11.7918   C.2       1 RES1   0.0000
    61 H20      2.8427   6.3232  11.7533   H         1 RES1   0.0000
    62 S1       1.9231  12.8172   6.0903   S.o2      2 RES2   0.0000
    63 O3       0.5271  13.1258   6.3269   O.2       2 RES2   0.0000
    64 O4       2.1477  11.4191   5.8286   O.2       2 RES2   0.0000
    65 C33      2.3724  13.6527   4.6067   C.ar      2 RES2   0.0000
    66 C34      1.3874  14.2527   3.8331   C.ar      2 RES2   0.0000
    67 H21      0.4777  14.2096   4.1044   H         2 RES2   0.0000
    68 C35      1.7318  14.9187   2.6612   C.ar      2 RES2   0.0000
    69 H22      1.0578  15.3293   2.1340   H         2 RES2   0.0000
    70 C36      3.0624  14.9819   2.2648   C.ar      2 RES2   0.0000
    71 C37      4.0486  14.3819   3.0384   C.ar      2 RES2   0.0000
    72 H23      4.9571  14.4249   2.7671   H         2 RES2   0.0000
    73 C38      3.7030  13.7158   4.2103   C.ar      2 RES2   0.0000
    74 H24      4.3769  13.3053   4.7394   H         2 RES2   0.0000
    75 C39      3.5425  15.7441   0.9564   C.3       2 RES2   0.0000
    76 H25      3.1105  15.3465   0.1713   H         2 RES2   0.0000
    77 H26      4.5139  15.6680   0.8717   H         2 RES2   0.0000
    78 H27      3.2907  16.6901   1.0199   H         2 RES2   0.0000
    79 O5       2.7735  13.3842   7.1486   O.3       2 RES2  -1.0000
    80 O6      -1.1084  14.2656   8.3147   O.3       3 RES3   0.0000
    81 H28     -0.4579  14.3087   7.7393   H         3 RES3   0.0000
    82 H29     -1.8601  14.4465   7.9183   H         3 RES3   0.0000
@<TRIPOS>BOND
     1     1    59    1
     2     2     7    1
     3     3     4    1
     4     4     9    2
     5     5     3    1
     6     6    15   ar
     7     7    22   ar
     8     8     3    1
     9     9    10    1
    10    11     3    1
    11    12    13    1
    12    14     9    1
    13    15    16    1
    14    17    15   ar
    15    18    17    1
    16    19    20    1
    17    21    35    1
    18    22    14   ar
    19    23    22    1
    20    24     5    1
    21    25    17   ar
    22    26    25    1
    23    27    12   ar
    24    28    27    1
    25    29     6   ar
    26    30    31    1
    27    32     3    1
    28    33     7   ar
    29    34    33    1
    30    35     3    1
    31    36     8   ar
    32    37    21   ar
    33    38    37    1
    34    39    11    1
    35    40    41    1
    36    42     8   ar
    37    43    42    1
    38    44    30   ar
    39    45    44    1
    40    46     4    1
    41    47    19   ar
    42    48    19   ar
    43    49    48    1
    44    50    47   ar
    45    51    50    1
    46    52    37   ar
    47    53    52    1
    48    54    24   ar
    49    55     6   ar
    50    56    55    1
    51    57    33   ar
    52    58    57    1
    53    59    27   ar
    54    60    35    2
    55    61    60    1
    56    12    24   ar
    57    14    39   ar
    58    21    36   ar
    59    25    46   ar
    60    29    32   ar
    61    29    46   ar
    62    30    55   ar
    63    32    44   ar
    64    36    47   ar
    65    39    57   ar
    66    40    54   ar
    67    40    59   ar
    68    42    48   ar
    69    50    52   ar
    70    54    60    1
    71    62    63    2
    72    64    62    2
    73    65    62    1
    74    66    65   ar
    75    67    66    1
    76    68    66   ar
    77    69    68    1
    78    70    68   ar
    79    71    70   ar
    80    72    71    1
    81    73    65   ar
    82    74    73    1
    83    75    70    1
    84    76    75    1
    85    77    75    1
    86    78    75    1
    87    79    62    1
    88    71    73   ar
    89    80    81    1
    90    82    80    1
@<TRIPOS>SUBSTRUCTURE
     1 RES1        1 GROUP             0 ****  ****    0  
     2 RES2       62 GROUP             0 ****  ****    0  
     3 RES3       80 GROUP             0 ****  ****    0  
@<TRIPOS>CRYSIN
   12.3433   14.3546   19.2425   90.0000   90.0000   90.0000    29     1
