@<TRIPOS>MOLECULE
QOLPIT
    85    92     4     0     0
SMALL
USER_CHARGES
****
Generated from the CSD

@<TRIPOS>ATOM
     1 I1       9.2667   9.7511  12.2383   I         1 RES1   0.0000
     2 I2       3.4005  10.0100   1.2974   I         1 RES1   0.0000
     3 Fe1      6.1718   5.5364   6.7666   Fe        1 RES1   1.0000
     4 O1       6.7156   6.7594   5.4638   O.3       1 RES1   0.0000
     5 O2       5.6942   6.8681   8.0431   O.3       1 RES1   0.0000
     6 N1       8.0394   5.4874   7.2640   N.2       1 RES1   0.0000
     7 N2       6.6851   4.0870   5.5695   N.ar      1 RES1   0.0000
     8 N3       4.3094   5.5467   6.2205   N.2       1 RES1   0.0000
     9 N4       5.5493   4.1773   8.0166   N.ar      1 RES1   0.0000
    10 C1       8.6518   7.8464   9.9796   C.ar      1 RES1   0.0000
    11 H1       9.5919   7.7137  10.0203   H         1 RES1   0.0000
    12 C2       3.8190   8.0172   3.5252   C.ar      1 RES1   0.0000
    13 H2       2.8712   7.9664   3.4967   H         1 RES1   0.0000
    14 C3       8.0597   8.6737  10.8807   C.ar      1 RES1   0.0000
    15 C4       6.6635   8.8883  10.8421   C.ar      1 RES1   0.0000
    16 H3       6.2366   9.4699  11.4605   H         1 RES1   0.0000
    17 C5       3.5242   4.6220   6.9629   C.ar      1 RES1   0.0000
    18 C6       4.5241   7.2408   4.4772   C.ar      1 RES1   0.0000
    19 C7       6.4475   2.4832   3.8120   C.ar      1 RES1   0.0000
    20 H4       5.8835   2.0202   3.2038   H         1 RES1   0.0000
    21 C8       5.9279   7.3735   4.5687   C.ar      1 RES1   0.0000
    22 C9       4.1899   3.9147   7.9495   C.ar      1 RES1   0.0000
    23 C10      7.7752   2.2277   3.8446   C.ar      1 RES1   0.0000
    24 H5       8.1385   1.5825   3.2486   H         1 RES1   0.0000
    25 C11      8.7864   4.5811   6.5093   C.ar      1 RES1   0.0000
    26 C12      6.5581   8.2417   3.6574   C.ar      1 RES1   0.0000
    27 H6       7.5033   8.3363   3.6818   H         1 RES1   0.0000
    28 C13      4.4758   8.8445   2.6424   C.ar      1 RES1   0.0000
    29 C14      2.1509   4.4117   6.8388   C.ar      1 RES1   0.0000
    30 H7       1.6630   4.8902   6.1818   H         1 RES1   0.0000
    31 C15      2.1814   2.7839   8.6594   C.ar      1 RES1   0.0000
    32 H8       1.7227   2.1712   9.2229   H         1 RES1   0.0000
    33 C16      6.4984   7.4059   8.9340   C.ar      1 RES1   0.0000
    34 C17      3.8025   6.3485   5.3641   C.2       1 RES1   0.0000
    35 H9       2.8547   6.3598   5.3031   H         1 RES1   0.0000
    36 C18     10.1547   4.3453   6.5215   C.ar      1 RES1   0.0000
    37 H10     10.6946   4.8408   7.1257   H         1 RES1   0.0000
    38 C19      5.9190   3.4305   4.6826   C.ar      1 RES1   0.0000
    39 H11      4.9891   3.6197   4.6481   H         1 RES1   0.0000
    40 C20      8.6416   2.9011   4.7457   C.ar      1 RES1   0.0000
    41 C21      5.8326   8.9560   2.7319   C.ar      1 RES1   0.0000
    42 H12      6.2887   9.5419   2.1379   H         1 RES1   0.0000
    43 C22      3.5534   2.9802   8.7977   C.ar      1 RES1   0.0000
    44 C23      4.3653   2.3308   9.7436   C.ar      1 RES1   0.0000
    45 H13      3.9803   1.6927  10.3315   H         1 RES1   0.0000
    46 C24      7.9086   7.1801   8.9930   C.ar      1 RES1   0.0000
    47 C25     10.0607   2.7119   4.8149   C.ar      1 RES1   0.0000
    48 H14     10.4939   2.0894   4.2433   H         1 RES1   0.0000
    49 C26      5.9673   8.2417   9.9043   C.ar      1 RES1   0.0000
    50 H15      5.0259   8.3659   9.9003   H         1 RES1   0.0000
    51 C27      1.4801   3.5053   7.6688   C.ar      1 RES1   0.0000
    52 H16      0.5450   3.3769   7.5650   H         1 RES1   0.0000
    53 C28      8.6073   6.2723   8.1610   C.2       1 RES1   0.0000
    54 H17      9.5512   6.2229   8.2567   H         1 RES1   0.0000
    55 C29      5.7119   2.6089   9.8230   C.ar      1 RES1   0.0000
    56 H18      6.2570   2.1712  10.4678   H         1 RES1   0.0000
    57 C30      8.0432   3.8145   5.5512   C.ar      1 RES1   0.0000
    58 C31     10.7633   3.4291   5.6997   C.ar      1 RES1   0.0000
    59 H19     11.7034   3.3006   5.7587   H         1 RES1   0.0000
    60 C32      6.2608   3.5336   8.9523   C.ar      1 RES1   0.0000
    61 H20      7.1895   3.7213   9.0215   H         1 RES1   0.0000
    62 S1       7.7053  -1.5896   3.6879   S.o2      2 RES2   0.0000
    63 O3       8.4777  -0.9021   2.6220   O.3       2 RES2  -1.0000
    64 O4       8.0724  -2.9533   3.8547   O.2       2 RES2   0.0000
    65 O5       6.2468  -1.3920   3.4927   O.2       2 RES2   0.0000
    66 C33      9.7837  -0.0918   6.7758   C.ar      2 RES2   0.0000
    67 H21     10.6985  -0.0621   7.0280   H         2 RES2   0.0000
    68 C34      8.8538   0.4856   7.6200   C.ar      2 RES2   0.0000
    69 C35      7.1348  -0.2428   5.9967   C.ar      2 RES2   0.0000
    70 H22      6.2189  -0.2908   5.7506   H         2 RES2   0.0000
    71 C36      9.4521  -0.7115   5.5797   C.ar      2 RES2   0.0000
    72 H23     10.1344  -1.0814   5.0305   H         2 RES2   0.0000
    73 C37      9.2692   1.2000   8.8689   C.3       2 RES2   0.0000
    74 H24      9.2146   2.1684   8.7245   H         2 RES2   0.0000
    75 H25     10.1903   0.9543   9.0947   H         2 RES2   0.0000
    76 H26      8.6734   0.9459   9.6033   H         2 RES2   0.0000
    77 C38      7.5236   0.3854   7.1989   C.ar      2 RES2   0.0000
    78 H27      6.8477   0.7609   7.7522   H         2 RES2   0.0000
    79 C39      8.1118  -0.7906   5.1790   C.ar      2 RES2   0.0000
    80 O6       4.6930   0.1976   1.7941   O.3       3 RES3   0.0000
    81 H28      3.8634   0.3007   2.0321   H         3 RES3   0.0000
    82 H29      5.0678  -0.4052   2.2966   H         3 RES3   0.0000
    83 O7       7.0599   0.9543   0.5675   O.3       4 RES4   0.0000
    84 H30      7.7002   0.5252   0.9683   H         4 RES4   0.0000
    85 H31      6.2735   0.7750   0.9479   H         4 RES4   0.0000
@<TRIPOS>BOND
     1     1    14    1
     2     2    28    1
     3     3     4    1
     4     4    21    1
     5     5     3    1
     6     6     3    1
     7     7     3    1
     8     8     3    1
     9     9     3    1
    10    10    11    1
    11    12    13    1
    12    14    10   ar
    13    15    14   ar
    14    16    15    1
    15    17     8    1
    16    18    12   ar
    17    19    20    1
    18    21    18   ar
    19    22     9   ar
    20    23    19   ar
    21    24    23    1
    22    25     6    1
    23    26    21   ar
    24    27    26    1
    25    28    12   ar
    26    29    17   ar
    27    30    29    1
    28    31    32    1
    29    33     5    1
    30    34     8    2
    31    35    34    1
    32    36    25   ar
    33    37    36    1
    34    38     7   ar
    35    39    38    1
    36    40    23   ar
    37    41    26   ar
    38    42    41    1
    39    43    22   ar
    40    44    43   ar
    41    45    44    1
    42    46    10   ar
    43    47    40   ar
    44    48    47    1
    45    49    15   ar
    46    50    49    1
    47    51    29   ar
    48    52    51    1
    49    53     6    2
    50    54    53    1
    51    55    44   ar
    52    56    55    1
    53    57     7   ar
    54    58    36   ar
    55    59    58    1
    56    60     9   ar
    57    61    60    1
    58    17    22   ar
    59    18    34    1
    60    19    38   ar
    61    25    57   ar
    62    28    41   ar
    63    31    43   ar
    64    31    51   ar
    65    33    46   ar
    66    33    49   ar
    67    40    57   ar
    68    46    53    1
    69    47    58   ar
    70    55    60   ar
    71    62    63    1
    72    64    62    2
    73    65    62    2
    74    66    67    1
    75    68    66   ar
    76    69    70    1
    77    71    66   ar
    78    72    71    1
    79    73    68    1
    80    74    73    1
    81    75    73    1
    82    76    73    1
    83    77    68   ar
    84    78    77    1
    85    79    62    1
    86    69    77   ar
    87    69    79   ar
    88    71    79   ar
    89    80    81    1
    90    82    80    1
    91    83    84    1
    92    85    83    1
@<TRIPOS>SUBSTRUCTURE
     1 RES1        1 GROUP             0 ****  ****    0  
     2 RES2       62 GROUP             0 ****  ****    0  
     3 RES3       80 GROUP             0 ****  ****    0  
     4 RES4       83 GROUP             0 ****  ****    0  
@<TRIPOS>CRYSIN
   12.7045   14.1173   20.3416   90.0000   90.0000   90.0000    29     1
