@<TRIPOS>MOLECULE
QOMZUR
    85    89     7     0     0
SMALL
USER_CHARGES
****
Generated from the CSD

@<TRIPOS>ATOM
     1 C1      -0.9582   5.9083   8.7667   C.2       1 RES1   0.0000
     2 H1      -1.7316   6.3748   8.4726   H         1 RES1   0.0000
     3 C2      -0.7209   5.4589  10.0513   C.2       1 RES1   0.0000
     4 H2      -1.2800   5.5501  10.8146   H         1 RES1   0.0000
     5 C3       0.5299   4.8395   9.9731   C.2       1 RES1   0.0000
     6 C4       1.4108   4.1405  10.9166   C.ar      1 RES1   0.0000
     7 C5       1.1387   3.8402  12.2483   C.ar      1 RES1   0.0000
     8 H3       0.3232   4.1056  12.6574   H         1 RES1   0.0000
     9 C6       2.1098   3.1344  12.9614   C.ar      1 RES1   0.0000
    10 H4       1.9568   2.9140  13.8731   H         1 RES1   0.0000
    11 C7       3.2979   2.7511  12.3494   C.ar      1 RES1   0.0000
    12 H5       3.9589   2.2648  12.8285   H         1 RES1   0.0000
    13 C8       3.4927   3.1007  11.0123   C.ar      1 RES1   0.0000
    14 C9       4.6380   2.7948  10.1685   C.2       1 RES1   0.0000
    15 C10      5.8411   2.1030  10.3411   C.2       1 RES1   0.0000
    16 H6       6.1686   1.6888  11.1312   H         1 RES1   0.0000
    17 C11      6.4445   2.1617   9.0943   C.2       1 RES1   0.0000
    18 H7       7.2804   1.7738   8.8622   H         1 RES1   0.0000
    19 C12      4.4842   7.9972   8.8705   C.2       1 RES1   0.0000
    20 H8       4.8115   8.7604   9.3321   H         1 RES1   0.0000
    21 C13      4.4092   7.8493   7.5118   C.2       1 RES1   0.0000
    22 H9       4.6745   8.4754   6.8491   H         1 RES1   0.0000
    23 C14      3.8543   6.5717   7.3070   C.2       1 RES1   0.0000
    24 C15      3.5248   5.7448   6.1572   C.ar      1 RES1   0.0000
    25 C16      3.6870   6.0465   4.8201   C.ar      1 RES1   0.0000
    26 H10      4.0219   6.8945   4.5530   H         1 RES1   0.0000
    27 C17      3.3525   5.0888   3.8712   C.ar      1 RES1   0.0000
    28 H11      3.4736   5.2736   2.9471   H         1 RES1   0.0000
    29 C18      2.8403   3.8580   4.2742   C.ar      1 RES1   0.0000
    30 H12      2.5967   3.1971   3.6365   H         1 RES1   0.0000
    31 C19      2.6966   3.6265   5.6356   C.ar      1 RES1   0.0000
    32 C20      2.2079   2.4122   6.2758   C.2       1 RES1   0.0000
    33 C21      1.7669   1.1665   5.8404   C.2       1 RES1   0.0000
    34 H13      1.6815   0.8639   4.9438   H         1 RES1   0.0000
    35 C22      1.4824   0.4681   6.9902   C.2       1 RES1   0.0000
    36 H14      1.1663  -0.4265   7.0372   H         1 RES1   0.0000
    37 Fe1      2.8314   4.1598   8.4370   Fe        1 RES1   2.0000
    38 N1       0.0997   5.5685   8.0052   N.pl3     1 RES1   0.0000
    39 H15      0.0956   5.7888   7.1331   H         1 RES1   0.0000
    40 N2       1.0228   4.9022   8.7115   N.2       1 RES1   0.0000
    41 N3       2.5568   3.7719  10.3114   N.ar      1 RES1   0.0000
    42 N4       4.5336   3.2654   8.9029   N.2       1 RES1   0.0000
    43 N5       5.6498   2.8576   8.2720   N.pl3     1 RES1   0.0000
    44 H16      5.8371   3.1456   7.4404   H         1 RES1   0.0000
    45 N6       4.0076   6.8573   9.4434   N.pl3     1 RES1   0.0000
    46 H17      4.0280   6.7406  10.3303   H         1 RES1   0.0000
    47 N7       3.6102   5.9782   8.5052   N.2       1 RES1   0.0000
    48 N8       3.0362   4.5496   6.5521   N.ar      1 RES1   0.0000
    49 N9       2.1749   2.4787   7.6278   N.2       1 RES1   0.0000
    50 N10      1.7327   1.2807   8.0443   N.pl3     1 RES1   0.0000
    51 H18      1.5877   1.0891   8.9136   H         1 RES1   0.0000
    52 C23      7.0839   6.4110   4.5087   C.2       2 RES2   0.0000
    53 C24      6.9116   5.7888   3.1554   C.ar      2 RES2   0.0000
    54 C25      7.5596   4.5814   2.9034   C.ar      2 RES2   0.0000
    55 H19      8.0264   4.1471   3.6071   H         2 RES2   0.0000
    56 C26      7.5359   4.0010   1.6431   C.ar      2 RES2   0.0000
    57 C27      8.1891   2.6628   1.4180   C.2       2 RES2   0.0000
    58 C28      6.8515   4.6382   0.6227   C.ar      2 RES2   0.0000
    59 H20      6.8628   4.2674  -0.2513   H         2 RES2   0.0000
    60 C29      6.1490   5.8115   0.8600   C.ar      2 RES2   0.0000
    61 C30      5.3915   6.4010  -0.2817   C.2       2 RES2   0.0000
    62 C31      6.1638   6.3808   2.1364   C.ar      2 RES2   0.0000
    63 H21      5.6655   7.1705   2.3109   H         2 RES2   0.0000
    64 O1       6.6452   7.5828   4.6934   O.co2     2 RES2  -1.0000
    65 O2       7.6869   5.7367   5.3768   O.co2     2 RES2   0.0000
    66 O3       8.7954   2.1305   2.3858   O.co2     2 RES2  -1.0000
    67 O4       8.0623   2.1492   0.2790   O.co2     2 RES2   0.0000
    68 O5       4.3332   7.0813   0.0256   O.3       2 RES2   0.0000
    69 H22      3.8560   7.5020  -0.9031   H         2 RES2   0.0000
    70 O6       5.7871   6.1991  -1.4382   O.2       2 RES2   0.0000
    71 O7       5.0733  -0.2940   2.9303   O.3       3 RES3   0.0000
    72 H23      5.5405  -0.3526   2.2779   H         3 RES3   0.0000
    73 H24      4.3281  -0.0468   2.6823   H         3 RES3   0.0000
    74 O8       6.5428  -0.2203   0.6699   O.3       4 RES4   0.0000
    75 H25      7.0292  -0.8363   0.4178   H         4 RES4   0.0000
    76 H26      7.0412   0.4275   0.6874   H         4 RES4   0.0000
    77 O9       6.1039   3.4617   5.7461   O.3       5 RES5   0.0000
    78 H27      6.2695   2.8585   5.2029   H         5 RES5   0.0000
    79 H28      6.6303   4.0631   5.5533   H         5 RES5   0.0000
    80 O10      6.8629   1.3428   4.2796   O.3       6 RES6   0.0000
    81 H29      6.2531   0.9861   3.8280   H         6 RES6   0.0000
    82 H30      7.4043   1.5759   3.6932   H         6 RES6   0.0000
    83 O11      2.8501   0.6244   1.8331   O.3       7 RES7   0.0000
    84 H31      2.1754   1.0579   2.0758   H         7 RES7   0.0000
    85 H32      2.6386   0.3901   1.0783   H         7 RES7   0.0000
@<TRIPOS>BOND
     1     1     2    1
     2     3     1    2
     3     4     3    1
     4     5     3    1
     5     6     5    1
     6     7     6   ar
     7     8     7    1
     8     9     7   ar
     9    10     9    1
    10    11     9   ar
    11    12    11    1
    12    13    11   ar
    13    14    13    1
    14    15    14    1
    15    16    15    1
    16    17    15    2
    17    18    17    1
    18    19    20    1
    19    21    19    2
    20    22    21    1
    21    23    21    1
    22    24    23    1
    23    25    24   ar
    24    26    25    1
    25    27    25   ar
    26    28    27    1
    27    29    27   ar
    28    30    29    1
    29    31    29   ar
    30    32    31    1
    31    33    32    1
    32    34    33    1
    33    35    33    2
    34    36    35    1
    35    37    40    1
    36    38     1    1
    37    39    38    1
    38    40     5    2
    39    41     6   ar
    40    42    14    2
    41    43    17    1
    42    44    43    1
    43    45    19    1
    44    46    45    1
    45    47    23    2
    46    48    24   ar
    47    49    32    2
    48    50    35    1
    49    51    50    1
    50    13    41   ar
    51    31    48   ar
    52    37    41    1
    53    37    42    1
    54    37    47    1
    55    37    48    1
    56    37    49    1
    57    38    40    1
    58    42    43    1
    59    45    47    1
    60    49    50    1
    61    52    53    1
    62    53    54   ar
    63    54    55    1
    64    56    54   ar
    65    57    56    1
    66    58    56   ar
    67    59    58    1
    68    60    58   ar
    69    61    60    1
    70    62    53   ar
    71    63    62    1
    72    64    52    1
    73    65    52    2
    74    66    57    1
    75    67    57    2
    76    68    61    1
    77    69    68    1
    78    70    61    2
    79    60    62   ar
    80    71    72    1
    81    73    71    1
    82    74    75    1
    83    76    74    1
    84    77    78    1
    85    79    77    1
    86    80    81    1
    87    82    80    1
    88    83    84    1
    89    85    83    1
@<TRIPOS>SUBSTRUCTURE
     1 RES1        1 GROUP             0 ****  ****    0  
     2 RES2       52 GROUP             0 ****  ****    0  
     3 RES3       71 GROUP             0 ****  ****    0  
     4 RES4       74 GROUP             0 ****  ****    0  
     5 RES5       77 GROUP             0 ****  ****    0  
     6 RES6       80 GROUP             0 ****  ****    0  
     7 RES7       83 GROUP             0 ****  ****    0  
@<TRIPOS>CRYSIN
    8.1212   31.2063   13.5547   90.0000   96.0590   90.0000   231     1
