@<TRIPOS>MOLECULE
QOPVAV
   107   114     1     0     0
SMALL
NO_CHARGES
****
Generated from the CSD

@<TRIPOS>ATOM
     1 Fe1     10.8720   9.0891  10.2914   Fe        1 RES1   0.0000
     2 P1      11.5284  11.2017   9.9406   P.3       1 RES1   0.0000
     3 P2       9.3428   7.4912  10.7059   P.3       1 RES1   0.0000
     4 P3      12.2289   8.0610   8.7865   P.3       1 RES1   0.0000
     5 N1      11.9610   8.7498  11.6730   N.1       1 RES1   0.0000
     6 N2       9.5661   9.5635   8.8969   N.2       1 RES1   0.0000
     7 N3      12.6376   8.5488  12.5460   N.1       1 RES1   0.0000
     8 C1      13.2893  11.7149   9.6017   C.3       1 RES1   0.0000
     9 H1      13.5921  11.1335   8.8470   H         1 RES1   0.0000
    10 C2       8.1551   7.7850  12.1071   C.3       1 RES1   0.0000
    11 H2       7.5166   7.0148  12.1206   H         1 RES1   0.0000
    12 C3       6.3401   9.2529  13.0900   C.3       1 RES1   0.0000
    13 H3       5.8512  10.1055  12.9723   H         1 RES1   0.0000
    14 H4       5.6774   8.5164  13.0846   H         1 RES1   0.0000
    15 C4       8.2445   7.5154   9.2138   C.3       1 RES1   0.0000
    16 H5       8.4770   6.7705   8.6043   H         1 RES1   0.0000
    17 H6       7.2976   7.4177   9.4837   H         1 RES1   0.0000
    18 C5       7.0661   9.2681  14.4236   C.3       1 RES1   0.0000
    19 H7       6.4052   9.3456  15.1570   H         1 RES1   0.0000
    20 H8       7.6635  10.0559  14.4648   H         1 RES1   0.0000
    21 C6       9.7423   5.6715  10.8410   C.3       1 RES1   0.0000
    22 H9       9.9289   5.3754   9.9040   H         1 RES1   0.0000
    23 C7       8.4571   8.8299   8.5307   C.2       1 RES1   0.0000
    24 C8      12.5980   8.9425   7.2180   C.ar      1 RES1   0.0000
    25 C9      11.0245   5.3504  11.6264   C.3       1 RES1   0.0000
    26 H10     10.8887   5.5638  12.5839   H         1 RES1   0.0000
    27 H11     11.7675   5.9108  11.2897   H         1 RES1   0.0000
    28 C10     11.3270  12.1211  12.5867   C.3       1 RES1   0.0000
    29 H12     10.8728  11.2821  12.8530   H         1 RES1   0.0000
    30 H13     12.3039  11.9715  12.6380   H         1 RES1   0.0000
    31 C11      7.3209   9.0635  11.9267   C.3       1 RES1   0.0000
    32 H14      7.9249   9.8459  11.8751   H         1 RES1   0.0000
    33 H15      6.8168   9.0103  11.0761   H         1 RES1   0.0000
    34 C12      8.8775   7.7989  13.4549   C.3       1 RES1   0.0000
    35 H16      9.5432   8.5317  13.4633   H         1 RES1   0.0000
    36 H17      9.3617   6.9439  13.5757   H         1 RES1   0.0000
    37 C13     11.3918   3.8625  11.4771   C.3       1 RES1   0.0000
    38 H18     11.6222   3.6731  10.5323   H         1 RES1   0.0000
    39 H19     12.1870   3.6635  12.0318   H         1 RES1   0.0000
    40 C14      9.5412  10.7333   8.1787   C.2       1 RES1   0.0000
    41 C15     13.8662   9.4335   6.9057   C.ar      1 RES1   0.0000
    42 H20     14.5803   9.3028   7.5182   H         1 RES1   0.0000
    43 C16     10.9383  12.4795  11.1456   C.3       1 RES1   0.0000
    44 H21     11.3962  13.3394  10.9180   H         1 RES1   0.0000
    45 C17     10.6968  11.6707   8.3567   C.3       1 RES1   0.0000
    46 H22     10.3774  12.6072   8.3990   H         1 RES1   0.0000
    47 H23     11.3281  11.5872   7.5986   H         1 RES1   0.0000
    48 C18      7.8899   7.9939  14.6150   C.3       1 RES1   0.0000
    49 H24      7.2830   7.2129  14.6659   H         1 RES1   0.0000
    50 H25      8.3904   8.0498  15.4677   H         1 RES1   0.0000
    51 C19     15.7310  11.7567  10.2605   C.3       1 RES1   0.0000
    52 H26     16.3496  11.6434  11.0262   H         1 RES1   0.0000
    53 H27     15.9871  11.1041   9.5614   H         1 RES1   0.0000
    54 C20     14.2930  11.4704  10.7210   C.3       1 RES1   0.0000
    55 H28     14.2261  10.5299  11.0206   H         1 RES1   0.0000
    56 H29     14.0728  12.0525  11.4908   H         1 RES1   0.0000
    57 C21      8.9594   3.2988  11.1439   C.3       1 RES1   0.0000
    58 H30      8.2196   2.7313  11.4742   H         1 RES1   0.0000
    59 H31      9.0890   3.1036  10.1814   H         1 RES1   0.0000
    60 C22      9.0092  13.8369  12.0289   C.3       1 RES1   0.0000
    61 H32      8.0263  13.9502  11.9930   H         1 RES1   0.0000
    62 H33      9.4261  14.6904  11.7516   H         1 RES1   0.0000
    63 C23      8.5863   4.7802  11.3204   C.3       1 RES1   0.0000
    64 H34      7.7700   4.9824  10.7973   H         1 RES1   0.0000
    65 H35      8.3961   4.9649  12.2746   H         1 RES1   0.0000
    66 C24     13.9016   7.6098   9.4027   C.3       1 RES1   0.0000
    67 H36     14.3787   8.4201   9.6779   H         1 RES1   0.0000
    68 H37     14.4033   7.1615   8.6889   H         1 RES1   0.0000
    69 H38     13.8159   7.0065  10.1703   H         1 RES1   0.0000
    70 C25      8.4371  10.7478   7.3561   C.2       1 RES1   0.0000
    71 H39      8.1875  11.4420   6.7566   H         1 RES1   0.0000
    72 C26      7.7458   9.5342   7.5728   C.2       1 RES1   0.0000
    73 H40      6.9456   9.2555   7.1436   H         1 RES1   0.0000
    74 C27     15.8690  13.1610   9.7097   C.3       1 RES1   0.0000
    75 H41     15.7212  13.8183  10.4353   H         1 RES1   0.0000
    76 H42     16.7855  13.2916   9.3589   H         1 RES1   0.0000
    77 C28     10.9296  13.2456  13.5454   C.3       1 RES1   0.0000
    78 H43     11.1712  12.9934  14.4717   H         1 RES1   0.0000
    79 H44     11.4243  14.0705  13.3121   H         1 RES1   0.0000
    80 C29     10.2359   2.9641  11.9066   C.3       1 RES1   0.0000
    81 H45     10.4782   2.0177  11.7433   H         1 RES1   0.0000
    82 H46     10.0776   3.0757  12.8780   H         1 RES1   0.0000
    83 C30      9.4269  12.7288  11.0614   C.3       1 RES1   0.0000
    84 H47      9.1857  12.9884  10.1370   H         1 RES1   0.0000
    85 H48      8.9413  11.8953  11.2828   H         1 RES1   0.0000
    86 C31      9.4308  13.5084  13.4623   C.3       1 RES1   0.0000
    87 H49      9.1950  14.2654  14.0556   H         1 RES1   0.0000
    88 H50      8.9383  12.7090  13.7754   H         1 RES1   0.0000
    89 C32     11.5586   9.1531   6.3011   C.ar      1 RES1   0.0000
    90 H51     10.6855   8.8255   6.4834   H         1 RES1   0.0000
    91 C33     11.7231   6.4595   8.0521   C.3       1 RES1   0.0000
    92 H52     11.7322   5.7648   8.7444   H         1 RES1   0.0000
    93 H53     12.3470   6.2161   7.3364   H         1 RES1   0.0000
    94 H54     10.8189   6.5413   7.6832   H         1 RES1   0.0000
    95 C34     14.1032  10.1103   5.7148   C.ar      1 RES1   0.0000
    96 H55     14.9744  10.4309   5.5165   H         1 RES1   0.0000
    97 C35     13.4302  13.1409   9.0898   C.3       1 RES1   0.0000
    98 H56     13.2067  13.7781   9.8138   H         1 RES1   0.0000
    99 H57     12.7970  13.2896   8.3421   H         1 RES1   0.0000
   100 C36     11.8181   9.8472   5.1197   C.ar      1 RES1   0.0000
   101 H58     11.1107  10.0016   4.5040   H         1 RES1   0.0000
   102 C37     13.0820  10.3147   4.8276   C.ar      1 RES1   0.0000
   103 H59     13.2430  10.7756   4.0129   H         1 RES1   0.0000
   104 C38     14.8666  13.3945   8.6056   C.3       1 RES1   0.0000
   105 H60     15.0681  12.7911   7.8469   H         1 RES1   0.0000
   106 H61     14.9444  14.3271   8.2838   H         1 RES1   0.0000
   107 H62     10.0431   9.8058  11.2356   H         1 RES1   0.0000
@<TRIPOS>BOND
     1     1     2    1
     2     2     8    1
     3     3     1    1
     4     4     1    1
     5     5     1    1
     6     6     1    1
     7     7     5    3
     8     8     9    1
     9    10     3    1
    10    11    10    1
    11    12    13    1
    12    14    12    1
    13    15     3    1
    14    16    15    1
    15    17    15    1
    16    18    12    1
    17    19    18    1
    18    20    18    1
    19    21     3    1
    20    22    21    1
    21    23     6    1
    22    24     4    1
    23    25    21    1
    24    26    25    1
    25    27    25    1
    26    28    29    1
    27    30    28    1
    28    31    10    1
    29    32    31    1
    30    33    31    1
    31    34    10    1
    32    35    34    1
    33    36    34    1
    34    37    25    1
    35    38    37    1
    36    39    37    1
    37    40     6    1
    38    41    24   ar
    39    42    41    1
    40    43     2    1
    41    44    43    1
    42    45     2    1
    43    46    45    1
    44    47    45    1
    45    48    18    1
    46    49    48    1
    47    50    48    1
    48    51    52    1
    49    53    51    1
    50    54     8    1
    51    55    54    1
    52    56    54    1
    53    57    58    1
    54    59    57    1
    55    60    61    1
    56    62    60    1
    57    63    21    1
    58    64    63    1
    59    65    63    1
    60    66     4    1
    61    67    66    1
    62    68    66    1
    63    69    66    1
    64    70    40    2
    65    71    70    1
    66    72    23    2
    67    73    72    1
    68    74    51    1
    69    75    74    1
    70    76    74    1
    71    77    28    1
    72    78    77    1
    73    79    77    1
    74    80    37    1
    75    81    80    1
    76    82    80    1
    77    83    43    1
    78    84    83    1
    79    85    83    1
    80    86    60    1
    81    87    86    1
    82    88    86    1
    83    89    24   ar
    84    90    89    1
    85    91     4    1
    86    92    91    1
    87    93    91    1
    88    94    91    1
    89    95    41   ar
    90    96    95    1
    91    97     8    1
    92    98    97    1
    93    99    97    1
    94   100    89   ar
    95   101   100    1
    96   102    95   ar
    97   103   102    1
    98   104    74    1
    99   105   104    1
   100   106   104    1
   101   107     1    1
   102    12    31    1
   103    15    23    1
   104    28    43    1
   105    34    48    1
   106    40    45    1
   107    51    54    1
   108    57    63    1
   109    57    80    1
   110    60    83    1
   111    70    72    1
   112    77    86    1
   113    97   104    1
   114   100   102   ar
@<TRIPOS>SUBSTRUCTURE
     1 RES1        1 GROUP             0 ****  ****    0  
@<TRIPOS>CRYSIN
   10.0600   13.7495   14.5903   85.8580   71.9360   76.1940     2     1
