@<TRIPOS>MOLECULE
QORKUF
   120   133     3     0     0
SMALL
USER_CHARGES
****
Generated from the CSD

@<TRIPOS>ATOM
     1 Fe1      0.0000   0.0000   0.0000   Fe        1 RES1   0.0000
     2 N1      -0.8488   1.8267   0.1875   N.2       1 RES1   0.0000
     3 N2       1.7599   0.7703   0.5849   N.2       1 RES1   0.0000
     4 N3       0.5571   0.8204  -2.9609   N.1       1 RES1   0.0000
     5 C1      -3.1140   1.2650  -0.5368   C.2       1 RES1   0.0000
     6 H1      -3.9831   1.6140  -0.6998   H         1 RES1   0.0000
     7 C2      -2.1538   2.1574  -0.1184   C.2       1 RES1   0.0000
     8 C3      -2.3690   3.5916   0.0445   C.ar      1 RES1   0.0000
     9 C4      -3.4559   4.4328  -0.1805   C.ar      1 RES1   0.0000
    10 H2      -4.2904   4.0795  -0.4653   H         1 RES1   0.0000
    11 C5      -3.2955   5.8013   0.0199   C.ar      1 RES1   0.0000
    12 H3      -4.0222   6.3913  -0.1395   H         1 RES1   0.0000
    13 C6      -2.0598   6.3154   0.4595   C.ar      1 RES1   0.0000
    14 H4      -1.9647   7.2507   0.5872   H         1 RES1   0.0000
    15 C7      -0.9934   5.4907   0.7056   C.ar      1 RES1   0.0000
    16 H5      -0.1706   5.8428   1.0268   H         1 RES1   0.0000
    17 C8      -1.1428   4.1096   0.4724   C.ar      1 RES1   0.0000
    18 C9      -0.2245   2.9997   0.5556   C.2       1 RES1   0.0000
    19 C10      1.0991   3.1035   0.8861   C.2       1 RES1   0.0000
    20 H6       1.4095   3.9673   1.1311   H         1 RES1   0.0000
    21 C11      2.0299   2.0940   0.9026   C.2       1 RES1   0.0000
    22 C12      3.4207   2.2566   1.2577   C.ar      1 RES1   0.0000
    23 C13      4.1787   3.3615   1.6516   C.ar      1 RES1   0.0000
    24 H7       3.7856   4.2227   1.7395   H         1 RES1   0.0000
    25 C14      5.5222   3.1601   1.9106   C.ar      1 RES1   0.0000
    26 H8       6.0579   3.9017   2.1650   H         1 RES1   0.0000
    27 C15      6.1105   1.9139   1.8098   C.ar      1 RES1   0.0000
    28 H9       7.0377   1.8109   1.9915   H         1 RES1   0.0000
    29 C16      5.3451   0.8007   1.4417   C.ar      1 RES1   0.0000
    30 H10      5.7352  -0.0634   1.3831   H         1 RES1   0.0000
    31 C17      3.9949   0.9951   1.1628   C.ar      1 RES1   0.0000
    32 C18      2.9398   0.0861   0.7443   C.2       1 RES1   0.0000
    33 C19      0.3803   0.4734  -1.8754   C.1       1 RES1  -1.0000
    34 N1A      0.8488  -1.8267  -0.1875   N.2       1 RES1   0.0000
    35 N2A     -1.7599  -0.7703  -0.5849   N.2       1 RES1   0.0000
    36 C1A      3.1140  -1.2650   0.5368   C.2       1 RES1   0.0000
    37 H1A      3.9831  -1.6140   0.6998   H         1 RES1   0.0000
    38 C2A      2.1538  -2.1574   0.1184   C.2       1 RES1   0.0000
    39 C3A      2.3690  -3.5916  -0.0445   C.ar      1 RES1   0.0000
    40 C4A      3.4559  -4.4328   0.1805   C.ar      1 RES1   0.0000
    41 H2A      4.2904  -4.0795   0.4653   H         1 RES1   0.0000
    42 C5A      3.2955  -5.8013  -0.0199   C.ar      1 RES1   0.0000
    43 H3A      4.0222  -6.3913   0.1395   H         1 RES1   0.0000
    44 C6A      2.0598  -6.3154  -0.4595   C.ar      1 RES1   0.0000
    45 H4A      1.9647  -7.2507  -0.5872   H         1 RES1   0.0000
    46 C7A      0.9934  -5.4907  -0.7056   C.ar      1 RES1   0.0000
    47 H5A      0.1706  -5.8428  -1.0268   H         1 RES1   0.0000
    48 C8A      1.1428  -4.1096  -0.4724   C.ar      1 RES1   0.0000
    49 C9A      0.2245  -2.9997  -0.5556   C.2       1 RES1   0.0000
    50 C10A    -1.0991  -3.1035  -0.8861   C.2       1 RES1   0.0000
    51 H6A     -1.4095  -3.9673  -1.1311   H         1 RES1   0.0000
    52 C11A    -2.0299  -2.0940  -0.9026   C.2       1 RES1   0.0000
    53 C12A    -3.4207  -2.2566  -1.2577   C.2       1 RES1   0.0000
    54 C13A    -4.1787  -3.3615  -1.6516   C.2       1 RES1   0.0000
    55 H7A     -3.7856  -4.2227  -1.7395   H         1 RES1   0.0000
    56 C14A    -5.5222  -3.1601  -1.9106   C.2       1 RES1   0.0000
    57 H8A     -6.0579  -3.9017  -2.1650   H         1 RES1   0.0000
    58 C15A    -6.1105  -1.9139  -1.8098   C.2       1 RES1   0.0000
    59 H9A     -7.0377  -1.8109  -1.9915   H         1 RES1   0.0000
    60 C16A    -5.3451  -0.8007  -1.4417   C.2       1 RES1   0.0000
    61 H10A    -5.7352   0.0634  -1.3831   H         1 RES1   0.0000
    62 C17A    -3.9949  -0.9951  -1.1628   C.2       1 RES1   0.0000
    63 C18A    -2.9398  -0.0861  -0.7443   C.2       1 RES1   0.0000
    64 N3A     -0.5571  -0.8204   2.9609   N.1       1 RES1   0.0000
    65 C19A    -0.3803  -0.4734   1.8754   C.1       1 RES1  -1.0000
    66 P1       9.7693   6.0018   5.3926   P.3       2 RES2   1.0000
    67 C20      8.1124   6.3895   4.8340   C.ar      2 RES2   0.0000
    68 C21      7.8110   6.2544   3.4813   C.ar      2 RES2   0.0000
    69 H11      8.4960   6.0168   2.8671   H         2 RES2   0.0000
    70 C22      6.5294   6.4621   3.0288   C.ar      2 RES2   0.0000
    71 H12      6.3402   6.3732   2.1028   H         2 RES2   0.0000
    72 C23      5.5199   6.7983   3.8951   C.ar      2 RES2   0.0000
    73 H13      4.6334   6.9140   3.5715   H         2 RES2   0.0000
    74 C24      5.7944   6.9693   5.2419   C.ar      2 RES2   0.0000
    75 H14      5.1042   7.2197   5.8444   H         2 RES2   0.0000
    76 C25      7.0811   6.7734   5.7014   C.ar      2 RES2   0.0000
    77 H15      7.2713   6.9010   6.6227   H         2 RES2   0.0000
    78 C26      9.9973   6.5456   7.0904   C.ar      2 RES2   0.0000
    79 C27      9.1563   6.0793   8.1043   C.ar      2 RES2   0.0000
    80 H16      8.4813   5.4406   7.9038   H         2 RES2   0.0000
    81 C28      9.3032   6.5416   9.3901   C.ar      2 RES2   0.0000
    82 H17      8.6962   6.2623  10.0653   H         2 RES2   0.0000
    83 C29     10.3270   7.4094   9.7019   C.ar      2 RES2   0.0000
    84 H18     10.4297   7.7155  10.5963   H         2 RES2   0.0000
    85 C30     11.2082   7.8404   8.7220   C.ar      2 RES2   0.0000
    86 H19     11.9305   8.4158   8.9447   H         2 RES2   0.0000
    87 C31     11.0224   7.4192   7.4068   C.ar      2 RES2   0.0000
    88 H20     11.6026   7.7333   6.7235   H         2 RES2   0.0000
    89 C32     10.9650   6.8203   4.3334   C.ar      2 RES2   0.0000
    90 C33     10.6693   8.0453   3.7380   C.ar      2 RES2   0.0000
    91 H21      9.8095   8.4347   3.8458   H         2 RES2   0.0000
    92 C34     11.6386   8.6891   2.9878   C.ar      2 RES2   0.0000
    93 H22     11.4393   9.5170   2.5682   H         2 RES2   0.0000
    94 C35     12.8880   8.1353   2.8495   C.ar      2 RES2   0.0000
    95 H23     13.5521   8.5940   2.3490   H         2 RES2   0.0000
    96 C36     13.1849   6.9250   3.4285   C.ar      2 RES2   0.0000
    97 H24     14.0464   6.5397   3.3184   H         2 RES2   0.0000
    98 C37     12.2135   6.2675   4.1764   C.ar      2 RES2   0.0000
    99 H25     12.4145   5.4324   4.5819   H         2 RES2   0.0000
   100 C38     10.0846   4.2452   5.2852   C.ar      2 RES2   0.0000
   101 C39     10.5707   3.5321   6.3601   C.ar      2 RES2   0.0000
   102 H26     10.6811   3.9557   7.2041   H         2 RES2   0.0000
   103 C40     10.9011   2.1873   6.2007   C.ar      2 RES2   0.0000
   104 H27     11.2183   1.6887   6.9450   H         2 RES2   0.0000
   105 C41     10.7733   1.5817   4.9828   C.ar      2 RES2   0.0000
   106 H28     11.0203   0.6699   4.8808   H         2 RES2   0.0000
   107 C42     10.2931   2.2818   3.9103   C.ar      2 RES2   0.0000
   108 H29     10.2030   1.8536   3.0675   H         2 RES2   0.0000
   109 C43      9.9398   3.5989   4.0463   C.ar      2 RES2   0.0000
   110 H30      9.5968   4.0766   3.3008   H         2 RES2   0.0000
   111 C44     14.8229   4.9553   6.6238   C.2       3 RES3   0.0000
   112 C45     14.9126   3.6501   7.3553   C.3       3 RES3   0.0000
   113 H31     15.2682   2.9621   6.7539   H         3 RES3   0.0000
   114 H32     14.0214   3.3866   7.6635   H         3 RES3   0.0000
   115 H33     15.5086   3.7489   8.1265   H         3 RES3   0.0000
   116 C46     14.5873   6.2177   7.3939   C.3       3 RES3   0.0000
   117 H34     14.4489   6.9608   6.7704   H         3 RES3   0.0000
   118 H35     15.3658   6.4064   7.9589   H         3 RES3   0.0000
   119 H36     13.7923   6.1130   7.9577   H         3 RES3   0.0000
   120 O1      15.0000   4.9736   5.3814   O.2       3 RES3   0.0000
@<TRIPOS>BOND
     1     1     2    1
     2     2     7    1
     3     3     1    1
     4     4    33    3
     5     5     6    1
     6     7     5    2
     7     8     7    1
     8     9     8   ar
     9    10     9    1
    10    11     9   ar
    11    12    11    1
    12    13    11   ar
    13    14    13    1
    14    15    13   ar
    15    16    15    1
    16    17     8   ar
    17    18     2    2
    18    19    18    1
    19    20    19    1
    20    21     3    1
    21    22    21    1
    22    23    22   ar
    23    24    23    1
    24    25    23   ar
    25    26    25    1
    26    27    25   ar
    27    28    27    1
    28    29    27   ar
    29    30    29    1
    30    31    22   ar
    31    32     3    1
    32    33     1    1
    33    34     1    1
    34    35     1    1
    35    36    32    2
    36    37    36    1
    37    38    34    2
    38    39    38    1
    39    40    39   ar
    40    41    40    1
    41    42    40   ar
    42    43    42    1
    43    44    42   ar
    44    45    44    1
    45    46    44   ar
    46    47    46    1
    47    48    39   ar
    48    49    34    1
    49    50    49    2
    50    51    50    1
    51    52    35    1
    52    53    52    2
    53    54    53    1
    54    55    54    1
    55    56    54    2
    56    57    56    1
    57    58    56    1
    58    59    58    1
    59    60    58    2
    60    61    60    1
    61    62    53    1
    62    63     5    1
    63    64    65    3
    64    65     1    1
    65    15    17   ar
    66    17    18    1
    67    19    21    2
    68    29    31   ar
    69    31    32    1
    70    35    63    1
    71    36    38    1
    72    46    48   ar
    73    48    49    1
    74    50    52    1
    75    60    62    1
    76    62    63    2
    77    66    67    1
    78    67    68   ar
    79    68    69    1
    80    70    68   ar
    81    71    70    1
    82    72    70   ar
    83    73    72    1
    84    74    72   ar
    85    75    74    1
    86    76    67   ar
    87    77    76    1
    88    78    66    1
    89    79    78   ar
    90    80    79    1
    91    81    79   ar
    92    82    81    1
    93    83    81   ar
    94    84    83    1
    95    85    83   ar
    96    86    85    1
    97    87    78   ar
    98    88    87    1
    99    89    66    1
   100    90    89   ar
   101    91    90    1
   102    92    90   ar
   103    93    92    1
   104    94    92   ar
   105    95    94    1
   106    96    94   ar
   107    97    96    1
   108    98    89   ar
   109    99    98    1
   110   100    66    1
   111   101   100   ar
   112   102   101    1
   113   103   101   ar
   114   104   103    1
   115   105   103   ar
   116   106   105    1
   117   107   105   ar
   118   108   107    1
   119   109   100   ar
   120   110   109    1
   121    74    76   ar
   122    85    87   ar
   123    96    98   ar
   124   107   109   ar
   125   111   112    1
   126   112   113    1
   127   114   112    1
   128   115   112    1
   129   116   111    1
   130   117   116    1
   131   118   116    1
   132   119   116    1
   133   120   111    2
@<TRIPOS>SUBSTRUCTURE
     1 RES1        1 GROUP             0 ****  ****    0  
     2 RES2       66 GROUP             0 ****  ****    0  
     3 RES3      111 GROUP             0 ****  ****    0  
@<TRIPOS>CRYSIN
   11.8412   12.7764   13.8298   67.2170   66.9150   85.5100     2     1
