@<TRIPOS>MOLECULE
QOSNIW
   169   183     3     0     0
SMALL
USER_CHARGES
****
Generated from the CSD

@<TRIPOS>ATOM
     1 Fe1     -1.8508   2.5537   9.1071   Fe        1 RES1   2.0000
     2 N1      -3.1031   0.9204   8.5139   N.2       1 RES1   0.0000
     3 N2      -4.8016  -0.5265   9.2723   N.pl3     1 RES1   0.0000
     4 H1      -5.3776  -0.7065   9.9133   H         1 RES1   0.0000
     5 N3      -4.5673   0.6168  11.7554   N.pl3     1 RES1   0.0000
     6 H2      -4.9990  -0.1413  11.6333   H         1 RES1   0.0000
     7 N4      -3.2620   2.3327  10.7666   N.2       1 RES1   0.0000
     8 N5      -0.4200   1.2037  10.0979   N.2       1 RES1   0.0000
     9 N6       1.8778   1.2317  10.6829   N.pl3     1 RES1   0.0000
    10 H3       2.5367   1.6956  11.0353   H         1 RES1   0.0000
    11 N7       1.4188   3.8764  11.5144   N.pl3     1 RES1   0.0000
    12 H4       2.0481   3.3923  11.8942   H         1 RES1   0.0000
    13 N8      -0.4833   3.8502  10.1363   N.2       1 RES1   0.0000
    14 N9      -0.6592   2.5449   7.2885   N.2       1 RES1   0.0000
    15 N10     -0.1764   4.0012   5.4985   N.pl3     1 RES1   0.0000
    16 H5      -0.4839   4.6395   4.9758   H         1 RES1   0.0000
    17 N11     -2.8562   4.7975   5.6422   N.pl3     1 RES1   0.0000
    18 H6      -2.4666   4.7619   4.8543   H         1 RES1   0.0000
    19 N12     -2.7567   4.1171   7.8935   N.2       1 RES1   0.0000
    20 C1      -3.1158   0.2936   7.1918   C.3       1 RES1   0.0000
    21 H7      -2.3545  -0.3349   7.1298   H         1 RES1   0.0000
    22 H8      -2.9840   0.9947   6.5047   H         1 RES1   0.0000
    23 C2      -4.3983  -0.4598   6.8853   C.3       1 RES1   0.0000
    24 H9      -5.1270   0.1847   6.7003   H         1 RES1   0.0000
    25 H10     -4.2713  -1.0202   6.0797   H         1 RES1   0.0000
    26 C3      -4.7832  -1.3389   8.0617   C.3       1 RES1   0.0000
    27 H11     -5.6771  -1.7356   7.9077   H         1 RES1   0.0000
    28 H12     -4.1292  -2.0761   8.1595   H         1 RES1   0.0000
    29 C4      -3.9397   0.4979   9.4112   C.2       1 RES1   0.0000
    30 C5      -3.9045   1.2093  10.7315   C.2       1 RES1   0.0000
    31 C6      -4.5509   1.2649  13.0665   C.3       1 RES1   0.0000
    32 H13     -4.6449   0.5841  13.7783   H         1 RES1   0.0000
    33 H14     -5.3076   1.8981  13.1375   H         1 RES1   0.0000
    34 C7      -3.2442   2.0067  13.2344   C.3       1 RES1   0.0000
    35 H15     -2.4889   1.3663  13.2365   H         1 RES1   0.0000
    36 H16     -3.2405   2.4967  14.0954   H         1 RES1   0.0000
    37 C8      -3.0949   2.9849  12.0776   C.3       1 RES1   0.0000
    38 H17     -3.7705   3.7027  12.1707   H         1 RES1   0.0000
    39 H18     -2.1983   3.4034  12.1190   H         1 RES1   0.0000
    40 C9      -0.3875  -0.2487   9.9005   C.3       1 RES1   0.0000
    41 H19     -0.3170  -0.4417   8.9330   H         1 RES1   0.0000
    42 H20     -1.2373  -0.6386  10.2258   H         1 RES1   0.0000
    43 C10      0.7750  -0.9125  10.6274   C.3       1 RES1   0.0000
    44 H21      0.6144  -0.8967  11.6041   H         1 RES1   0.0000
    45 H22      0.8525  -1.8569  10.3428   H         1 RES1   0.0000
    46 C11      2.0602  -0.1700  10.3066   C.3       1 RES1   0.0000
    47 H23      2.8163  -0.5630  10.8127   H         1 RES1   0.0000
    48 H24      2.2600  -0.2392   9.3400   H         1 RES1   0.0000
    49 C12      0.6591   1.7973  10.4743   C.2       1 RES1   0.0000
    50 C13      0.5215   3.2772  10.7176   C.2       1 RES1   0.0000
    51 C14      1.3750   5.3160  11.7671   C.3       1 RES1   0.0000
    52 H25      2.2943   5.6742  11.8402   H         1 RES1   0.0000
    53 H26      0.9020   5.4951  12.6182   H         1 RES1   0.0000
    54 C15      0.6473   5.9892  10.6211   C.3       1 RES1   0.0000
    55 H27      1.2064   5.9568   9.8054   H         1 RES1   0.0000
    56 H28      0.4817   6.9392  10.8441   H         1 RES1   0.0000
    57 C16     -0.6710   5.2859  10.3648   C.3       1 RES1   0.0000
    58 H29     -1.2682   5.4183  11.1432   H         1 RES1   0.0000
    59 H30     -1.1089   5.6887   9.5738   H         1 RES1   0.0000
    60 C17      0.6514   1.9140   7.1360   C.3       1 RES1   0.0000
    61 H31      0.5799   0.9568   7.3771   H         1 RES1   0.0000
    62 H32      1.2915   2.3387   7.7616   H         1 RES1   0.0000
    63 C18      1.1919   2.0308   5.7171   C.3       1 RES1   0.0000
    64 H33      2.1183   1.6833   5.6818   H         1 RES1   0.0000
    65 H34      0.6331   1.4920   5.1017   H         1 RES1   0.0000
    66 C19      1.1727   3.4836   5.2892   C.3       1 RES1   0.0000
    67 H35      1.8239   4.0042   5.8234   H         1 RES1   0.0000
    68 H36      1.4222   3.5603   4.3350   H         1 RES1   0.0000
    69 C20     -0.9539   3.5126   6.4804   C.2       1 RES1   0.0000
    70 C21     -2.2880   4.1701   6.6920   C.2       1 RES1   0.0000
    71 C22     -4.1060   5.5351   5.7940   C.3       1 RES1   0.0000
    72 H37     -4.8722   4.9544   5.5559   H         1 RES1   0.0000
    73 H38     -4.1094   6.3195   5.1894   H         1 RES1   0.0000
    74 C23     -4.2332   5.9877   7.2208   C.3       1 RES1   0.0000
    75 H39     -3.5678   6.6967   7.4041   H         1 RES1   0.0000
    76 H40     -5.1345   6.3685   7.3681   H         1 RES1   0.0000
    77 C24     -4.0136   4.8379   8.1609   C.3       1 RES1   0.0000
    78 H41     -4.0007   5.1780   9.0904   H         1 RES1   0.0000
    79 H42     -4.7710   4.2056   8.0808   H         1 RES1   0.0000
    80 B1       3.3974   7.9355   5.9219   B         2 RES2  -1.0000
    81 C25      1.7709   8.1481   5.9619   C.ar      2 RES2   0.0000
    82 C26      1.0829   9.2872   5.5199   C.ar      2 RES2   0.0000
    83 H43      1.5805   9.9866   5.1107   H         2 RES2   0.0000
    84 C27     -0.2952   9.4385   5.6530   C.ar      2 RES2   0.0000
    85 H44     -0.7196  10.2214   5.3220   H         2 RES2   0.0000
    86 C28     -1.0524   8.4477   6.2686   C.ar      2 RES2   0.0000
    87 H45     -1.9883   8.5569   6.3855   H         2 RES2   0.0000
    88 C29     -0.4134   7.2920   6.7113   C.ar      2 RES2   0.0000
    89 H46     -0.9149   6.6032   7.1298   H         2 RES2   0.0000
    90 C30      0.9580   7.1466   6.5400   C.ar      2 RES2   0.0000
    91 H47      1.3688   6.3384   6.8240   H         2 RES2   0.0000
    92 C31      3.7200   6.4749   5.2366   C.ar      2 RES2   0.0000
    93 C32      3.1804   6.1516   3.9781   C.ar      2 RES2   0.0000
    94 H48      2.5694   6.7601   3.5795   H         2 RES2   0.0000
    95 C33      3.4971   4.9877   3.2885   C.ar      2 RES2   0.0000
    96 H49      3.1216   4.8253   2.4305   H         2 RES2   0.0000
    97 C34      4.3643   4.0626   3.8563   C.ar      2 RES2   0.0000
    98 H50      4.5944   3.2677   3.3906   H         2 RES2   0.0000
    99 C35      4.8879   4.3184   5.1111   C.ar      2 RES2   0.0000
   100 H51      5.4695   3.6860   5.5176   H         2 RES2   0.0000
   101 C36      4.5683   5.5050   5.7845   C.ar      2 RES2   0.0000
   102 H52      4.9421   5.6564   6.6441   H         2 RES2   0.0000
   103 C37      3.9826   8.0002   7.4623   C.ar      2 RES2   0.0000
   104 C38      3.1870   7.9570   8.6256   C.ar      2 RES2   0.0000
   105 H53      2.2424   7.9283   8.5283   H         2 RES2   0.0000
   106 C39      3.7252   7.9551   9.9162   C.ar      2 RES2   0.0000
   107 H54      3.1468   7.9205  10.6688   H         2 RES2   0.0000
   108 C40      5.0956   8.0037  10.1006   C.ar      2 RES2   0.0000
   109 H55      5.4674   7.9973  10.9746   H         2 RES2   0.0000
   110 C41      5.9159   8.0624   8.9789   C.ar      2 RES2   0.0000
   111 H56      6.8595   8.0997   9.0859   H         2 RES2   0.0000
   112 C42      5.3659   8.0666   7.6977   C.ar      2 RES2   0.0000
   113 H57      5.9523   8.1163   6.9521   H         2 RES2   0.0000
   114 C43      4.1368   9.1203   5.0443   C.ar      2 RES2   0.0000
   115 C44      4.1317  10.4492   5.5109   C.ar      2 RES2   0.0000
   116 H58      3.7136  10.6364   6.3428   H         2 RES2   0.0000
   117 C45      4.7135  11.5018   4.8058   C.ar      2 RES2   0.0000
   118 H59      4.6730  12.3842   5.1556   H         2 RES2   0.0000
   119 C46      5.3503  11.2630   3.5937   C.ar      2 RES2   0.0000
   120 H60      5.7425  11.9759   3.1051   H         2 RES2   0.0000
   121 C47      5.4006   9.9690   3.1129   C.ar      2 RES2   0.0000
   122 H61      5.8476   9.7875   2.2934   H         2 RES2   0.0000
   123 C48      4.8001   8.9243   3.8219   C.ar      2 RES2   0.0000
   124 H62      4.8410   8.0463   3.4626   H         2 RES2   0.0000
   125 B2      23.1418   3.2522   1.1984   B         3 RES3  -1.0000
   126 C49     22.5543   3.3270  -0.3388   C.ar      3 RES3   0.0000
   127 C50     22.6766   4.5030  -1.1096   C.ar      3 RES3   0.0000
   128 H63     23.0527   5.2759  -0.7060   H         3 RES3   0.0000
   129 C51     22.2651   4.5745  -2.4409   C.ar      3 RES3   0.0000
   130 H64     22.3628   5.3872  -2.9252   H         3 RES3   0.0000
   131 C52     21.7161   3.4637  -3.0588   C.ar      3 RES3   0.0000
   132 H65     21.4385   3.5102  -3.9662   H         3 RES3   0.0000
   133 C53     21.5753   2.2787  -2.3422   C.ar      3 RES3   0.0000
   134 H66     21.1979   1.5120  -2.7566   H         3 RES3   0.0000
   135 C54     21.9928   2.2218  -1.0075   C.ar      3 RES3   0.0000
   136 H67     21.8933   1.4041  -0.5329   H         3 RES3   0.0000
   137 C55     22.2701   2.1461   2.0647   C.ar      3 RES3   0.0000
   138 C56     21.2447   2.4743   2.9765   C.ar      3 RES3   0.0000
   139 H68     21.0684   3.3901   3.1545   H         3 RES3   0.0000
   140 C57     20.4811   1.5048   3.6265   C.ar      3 RES3   0.0000
   141 H69     19.8044   1.7701   4.2360   H         3 RES3   0.0000
   142 C58     20.7031   0.1525   3.3888   C.ar      3 RES3   0.0000
   143 H70     20.1761  -0.5073   3.8246   H         3 RES3   0.0000
   144 C59     21.7060  -0.2171   2.5063   C.ar      3 RES3   0.0000
   145 H71     21.8790  -1.1360   2.3384   H         3 RES3   0.0000
   146 C60     22.4638   0.7658   1.8639   C.ar      3 RES3   0.0000
   147 H72     23.1435   0.4884   1.2614   H         3 RES3   0.0000
   148 C61     24.7270   2.8176   1.1100   C.ar      3 RES3   0.0000
   149 C62     25.3816   2.1963   2.1852   C.ar      3 RES3   0.0000
   150 H73     24.8703   1.9559   2.9499   H         3 RES3   0.0000
   151 C63     26.7504   1.9147   2.1821   C.ar      3 RES3   0.0000
   152 H74     27.1514   1.4920   2.9319   H         3 RES3   0.0000
   153 C64     27.5208   2.2551   1.0786   C.ar      3 RES3   0.0000
   154 H75     28.4512   2.0650   1.0658   H         3 RES3   0.0000
   155 C65     26.9204   2.8732  -0.0027   C.ar      3 RES3   0.0000
   156 H76     27.4425   3.1130  -0.7600   H         3 RES3   0.0000
   157 C66     25.5487   3.1470   0.0144   C.ar      3 RES3   0.0000
   158 H77     25.1579   3.5703  -0.7397   H         3 RES3   0.0000
   159 C67     23.0622   4.7343   1.9019   C.ar      3 RES3   0.0000
   160 C68     24.1470   5.3611   2.5371   C.ar      3 RES3   0.0000
   161 H78     24.9862   4.9176   2.5452   H         3 RES3   0.0000
   162 C69     24.0435   6.6056   3.1568   C.ar      3 RES3   0.0000
   163 H79     24.8004   6.9848   3.5885   H         3 RES3   0.0000
   164 C70     22.8380   7.2919   3.1464   C.ar      3 RES3   0.0000
   165 H80     22.7618   8.1375   3.5727   H         3 RES3   0.0000
   166 C71     21.7450   6.7244   2.5032   C.ar      3 RES3   0.0000
   167 H81     20.9185   7.1940   2.4688   H         3 RES3   0.0000
   168 C72     21.8566   5.4673   1.9080   C.ar      3 RES3   0.0000
   169 H82     21.0909   5.0901   1.4907   H         3 RES3   0.0000
@<TRIPOS>BOND
     1     1     2    1
     2     2    20    1
     3     3     4    1
     4     5     6    1
     5     7     1    1
     6     8     1    1
     7     9    10    1
     8    11    12    1
     9    13     1    1
    10    14     1    1
    11    15    16    1
    12    17    18    1
    13    19     1    1
    14    20    21    1
    15    22    20    1
    16    23    20    1
    17    24    23    1
    18    25    23    1
    19    26     3    1
    20    27    26    1
    21    28    26    1
    22    29     2    2
    23    30     5    1
    24    31     5    1
    25    32    31    1
    26    33    31    1
    27    34    31    1
    28    35    34    1
    29    36    34    1
    30    37     7    1
    31    38    37    1
    32    39    37    1
    33    40     8    1
    34    41    40    1
    35    42    40    1
    36    43    40    1
    37    44    43    1
    38    45    43    1
    39    46     9    1
    40    47    46    1
    41    48    46    1
    42    49     8    2
    43    50    11    1
    44    51    11    1
    45    52    51    1
    46    53    51    1
    47    54    51    1
    48    55    54    1
    49    56    54    1
    50    57    13    1
    51    58    57    1
    52    59    57    1
    53    60    14    1
    54    61    60    1
    55    62    60    1
    56    63    60    1
    57    64    63    1
    58    65    63    1
    59    66    15    1
    60    67    66    1
    61    68    66    1
    62    69    14    2
    63    70    17    1
    64    71    17    1
    65    72    71    1
    66    73    71    1
    67    74    71    1
    68    75    74    1
    69    76    74    1
    70    77    19    1
    71    78    77    1
    72    79    77    1
    73     3    29    1
    74     7    30    2
    75     9    49    1
    76    13    50    2
    77    15    69    1
    78    19    70    2
    79    23    26    1
    80    29    30    1
    81    34    37    1
    82    43    46    1
    83    49    50    1
    84    54    57    1
    85    63    66    1
    86    69    70    1
    87    74    77    1
    88    80    81    1
    89    81    82   ar
    90    82    83    1
    91    84    82   ar
    92    85    84    1
    93    86    84   ar
    94    87    86    1
    95    88    86   ar
    96    89    88    1
    97    90    81   ar
    98    91    90    1
    99    92    80    1
   100    93    92   ar
   101    94    93    1
   102    95    93   ar
   103    96    95    1
   104    97    95   ar
   105    98    97    1
   106    99    97   ar
   107   100    99    1
   108   101    92   ar
   109   102   101    1
   110   103    80    1
   111   104   103   ar
   112   105   104    1
   113   106   104   ar
   114   107   106    1
   115   108   106   ar
   116   109   108    1
   117   110   108   ar
   118   111   110    1
   119   112   103   ar
   120   113   112    1
   121   114    80    1
   122   115   114   ar
   123   116   115    1
   124   117   115   ar
   125   118   117    1
   126   119   117   ar
   127   120   119    1
   128   121   119   ar
   129   122   121    1
   130   123   114   ar
   131   124   123    1
   132    88    90   ar
   133    99   101   ar
   134   110   112   ar
   135   121   123   ar
   136   125   126    1
   137   126   127   ar
   138   127   128    1
   139   129   127   ar
   140   130   129    1
   141   131   129   ar
   142   132   131    1
   143   133   131   ar
   144   134   133    1
   145   135   126   ar
   146   136   135    1
   147   137   125    1
   148   138   137   ar
   149   139   138    1
   150   140   138   ar
   151   141   140    1
   152   142   140   ar
   153   143   142    1
   154   144   142   ar
   155   145   144    1
   156   146   137   ar
   157   147   146    1
   158   148   125    1
   159   149   148   ar
   160   150   149    1
   161   151   149   ar
   162   152   151    1
   163   153   151   ar
   164   154   153    1
   165   155   153   ar
   166   156   155    1
   167   157   148   ar
   168   158   157    1
   169   159   125    1
   170   160   159   ar
   171   161   160    1
   172   162   160   ar
   173   163   162    1
   174   164   162   ar
   175   165   164    1
   176   166   164   ar
   177   167   166    1
   178   168   159   ar
   179   169   168    1
   180   133   135   ar
   181   144   146   ar
   182   155   157   ar
   183   166   168   ar
@<TRIPOS>SUBSTRUCTURE
     1 RES1        1 GROUP             0 ****  ****    0  
     2 RES2       80 GROUP             0 ****  ****    0  
     3 RES3      125 GROUP             0 ****  ****    0  
@<TRIPOS>CRYSIN
   25.0365   11.1259   24.5183   90.0000  113.5030   90.0000     9     1
