@<TRIPOS>MOLECULE
QOSNIW01
   169   183     3     0     0
SMALL
USER_CHARGES
****
Generated from the CSD

@<TRIPOS>ATOM
     1 Fe1     14.0596   3.0365  22.2212   Fe        1 RES1   2.0000
     2 N1      15.4054   4.6254  22.7995   N.2       1 RES1   0.0000
     3 N2      17.1440   5.9616  22.0357   N.pl3     1 RES1   0.0000
     4 H1      17.6693   6.1356  21.3756   H         1 RES1   0.0000
     5 N3      16.7860   4.8474  19.5443   N.pl3     1 RES1   0.0000
     6 H2      17.2348   5.5735  19.6528   H         1 RES1   0.0000
     7 N4      15.4614   3.2044  20.5521   N.2       1 RES1   0.0000
     8 N5      12.6374   4.4313  21.3220   N.2       1 RES1   0.0000
     9 N6      10.3904   4.4715  20.6320   N.pl3     1 RES1   0.0000
    10 H3       9.7320   4.0309  20.2997   H         1 RES1   0.0000
    11 N7      10.7716   1.8180  19.8026   N.pl3     1 RES1   0.0000
    12 H4      10.1741   2.3099  19.4280   H         1 RES1   0.0000
    13 N8      12.6454   1.7790  21.2133   N.2       1 RES1   0.0000
    14 N9      12.9517   2.9936  24.0797   N.2       1 RES1   0.0000
    15 N10     12.5483   1.6072  25.8861   N.pl3     1 RES1   0.0000
    16 H5      12.8668   1.0139  26.4216   H         1 RES1   0.0000
    17 N11     15.2241   0.7462  25.6176   N.pl3     1 RES1   0.0000
    18 H6      14.8817   0.7573  26.4057   H         1 RES1   0.0000
    19 N12     15.0244   1.4578  23.3960   N.2       1 RES1   0.0000
    20 C1      15.5044   5.2500  24.1254   C.3       1 RES1   0.0000
    21 H7      14.6491   5.6504  24.3469   H         1 RES1   0.0000
    22 H8      15.6857   4.5596  24.7827   H         1 RES1   0.0000
    23 C2      16.4977   6.2282  24.2153   C.3       1 RES1   0.0000
    24 H9      16.0519   7.0022  24.5966   H         1 RES1   0.0000
    25 H10     17.1048   5.9081  24.9008   H         1 RES1   0.0000
    26 C3      17.2861   6.7167  23.2562   C.3       1 RES1   0.0000
    27 H11     18.2110   6.6844  23.5502   H         1 RES1   0.0000
    28 H12     17.0543   7.6447  23.0917   H         1 RES1   0.0000
    29 C4      16.2263   5.0024  21.8936   C.2       1 RES1   0.0000
    30 C5      16.1268   4.3042  20.5948   C.2       1 RES1   0.0000
    31 C6      16.7437   4.2216  18.2420   C.3       1 RES1   0.0000
    32 H13     16.7584   4.9031  17.5508   H         1 RES1   0.0000
    33 H14     17.5233   3.6562  18.1251   H         1 RES1   0.0000
    34 C7      15.5974   3.4654  18.1238   C.3       1 RES1   0.0000
    35 H15     15.6682   2.9356  17.3148   H         1 RES1   0.0000
    36 H16     14.8469   4.0699  18.0094   H         1 RES1   0.0000
    37 C8      15.2884   2.5519  19.2483   C.3       1 RES1   0.0000
    38 H17     14.3733   2.2430  19.1647   H         1 RES1   0.0000
    39 H18     15.8697   1.7779  19.1988   H         1 RES1   0.0000
    40 C9      12.6042   5.8534  21.5665   C.3       1 RES1   0.0000
    41 H19     13.4163   6.2494  21.2167   H         1 RES1   0.0000
    42 H20     12.5913   6.0051  22.5242   H         1 RES1   0.0000
    43 C10     11.4159   6.5494  20.9466   C.3       1 RES1   0.0000
    44 H21     11.2682   7.3792  21.4278   H         1 RES1   0.0000
    45 H22     11.6438   6.7825  20.0341   H         1 RES1   0.0000
    46 C11     10.2594   5.8679  20.9262   C.3       1 RES1   0.0000
    47 H23      9.6764   6.2694  20.2634   H         1 RES1   0.0000
    48 H24      9.8297   5.9627  21.7887   H         1 RES1   0.0000
    49 C12     11.5692   3.8580  20.8864   C.2       1 RES1   0.0000
    50 C13     11.6566   2.3947  20.6270   C.2       1 RES1   0.0000
    51 C14     10.7850   0.4171  19.5211   C.3       1 RES1   0.0000
    52 H25     11.1402   0.2699  18.6290   H         1 RES1   0.0000
    53 H26      9.8776   0.0747  19.5415   H         1 RES1   0.0000
    54 C15     11.5867  -0.2922  20.4767   C.3       1 RES1   0.0000
    55 H27     11.8433  -1.1388  20.0795   H         1 RES1   0.0000
    56 H28     11.0253  -0.4952  21.2417   H         1 RES1   0.0000
    57 C16     12.7887   0.3480  20.9688   C.3       1 RES1   0.0000
    58 H29     13.5003   0.2119  20.3247   H         1 RES1   0.0000
    59 H30     13.0554  -0.0848  21.7955   H         1 RES1   0.0000
    60 C17     11.6501   3.6048  24.3231   C.3       1 RES1   0.0000
    61 H31     11.0013   3.1977  23.7272   H         1 RES1   0.0000
    62 H32     11.7046   4.5462  24.0972   H         1 RES1   0.0000
    63 C18     11.1535   3.4855  25.6991   C.3       1 RES1   0.0000
    64 H33     11.6987   4.0231  26.2945   H         1 RES1   0.0000
    65 H34     10.2406   3.8078  25.7497   H         1 RES1   0.0000
    66 C19     11.2081   2.1103  26.0974   C.3       1 RES1   0.0000
    67 H35     10.5754   1.5905  25.5772   H         1 RES1   0.0000
    68 H36     10.9698   2.0288  27.0345   H         1 RES1   0.0000
    69 C20     13.3003   2.0500  24.8722   C.2       1 RES1   0.0000
    70 C21     14.6143   1.3864  24.6154   C.2       1 RES1   0.0000
    71 C22     16.4560   0.0379  25.3774   C.3       1 RES1   0.0000
    72 H37     17.1934   0.5488  25.7474   H         1 RES1   0.0000
    73 H38     16.4252  -0.8153  25.8382   H         1 RES1   0.0000
    74 C23     16.6911  -0.1851  24.0223   C.3       1 RES1   0.0000
    75 H39     16.2850  -1.0362  23.7953   H         1 RES1   0.0000
    76 H40     17.6476  -0.2889  23.9088   H         1 RES1   0.0000
    77 C24     16.2551   0.7540  23.0712   C.3       1 RES1   0.0000
    78 H41     16.1311   0.2967  22.2246   H         1 RES1   0.0000
    79 H42     16.9568   1.4109  22.9464   H         1 RES1   0.0000
    80 B1      13.7275   2.3791  14.0695   B         2 RES2  -1.0000
    81 C25     13.0242   3.5703  14.9518   C.ar      2 RES2   0.0000
    82 C26     12.3539   3.4052  16.1671   C.ar      2 RES2   0.0000
    83 H43     12.2922   2.5497  16.5271   H         2 RES2   0.0000
    84 C27     11.7772   4.4514  16.8587   C.ar      2 RES2   0.0000
    85 H44     11.3392   4.2819  17.6598   H         2 RES2   0.0000
    86 C28     11.8388   5.7162  16.3927   C.ar      2 RES2   0.0000
    87 H45     11.4702   6.4200  16.8767   H         2 RES2   0.0000
    88 C29     12.4549   5.9415  15.1931   C.ar      2 RES2   0.0000
    89 H46     12.4897   6.8026  14.8451   H         2 RES2   0.0000
    90 C30     13.0300   4.8897  14.4940   C.ar      2 RES2   0.0000
    91 H47     13.4396   5.0727  13.6784   H         2 RES2   0.0000
    92 C31     15.3683   2.5876  14.0150   C.ar      2 RES2   0.0000
    93 C32     16.0680   3.6907  14.4715   C.ar      2 RES2   0.0000
    94 H48     15.5896   4.3744  14.8837   H         2 RES2   0.0000
    95 C33     17.4346   3.8324  14.3494   C.ar      2 RES2   0.0000
    96 H49     17.8516   4.5931  14.6862   H         2 RES2   0.0000
    97 C34     18.1735   2.8709  13.7422   C.ar      2 RES2   0.0000
    98 H50     19.0944   2.9713  13.6489   H         2 RES2   0.0000
    99 C35     17.5379   1.7411  13.2639   C.ar      2 RES2   0.0000
   100 H51     18.0221   1.0752  12.8317   H         2 RES2   0.0000
   101 C36     16.1697   1.6095  13.4371   C.ar      2 RES2   0.0000
   102 H52     15.7639   0.8243  13.1495   H         2 RES2   0.0000
   103 C37     13.1129   2.4103  12.5518   C.ar      2 RES2   0.0000
   104 C38     13.8331   2.2854  11.3953   C.ar      2 RES2   0.0000
   105 H53     14.7575   2.1961  11.4584   H         2 RES2   0.0000
   106 C39     13.2523   2.2843  10.1181   C.ar      2 RES2   0.0000
   107 H54     13.8003   2.1794   9.3724   H         2 RES2   0.0000
   108 C40     11.9694   2.4248   9.9444   C.ar      2 RES2   0.0000
   109 H55     11.6009   2.4237   9.0909   H         2 RES2   0.0000
   110 C41     11.1877   2.5743  11.0430   C.ar      2 RES2   0.0000
   111 H56     10.2694   2.6869  10.9432   H         2 RES2   0.0000
   112 C42     11.7587   2.5609  12.3541   C.ar      2 RES2   0.0000
   113 H57     11.2016   2.6568  13.0928   H         2 RES2   0.0000
   114 C43     13.4408   0.9235  14.7875   C.ar      2 RES2   0.0000
   115 C44     12.5555  -0.0167  14.3278   C.ar      2 RES2   0.0000
   116 H58     12.1329   0.1361  13.5127   H         2 RES2   0.0000
   117 C45     12.2582  -1.1756  15.0086   C.ar      2 RES2   0.0000
   118 H59     11.6504  -1.7790  14.6476   H         2 RES2   0.0000
   119 C46     12.8495  -1.4477  16.2107   C.ar      2 RES2   0.0000
   120 H60     12.6400  -2.2240  16.6769   H         2 RES2   0.0000
   121 C47     13.7599  -0.5532  16.7146   C.ar      2 RES2   0.0000
   122 H61     14.1852  -0.7194  17.5259   H         2 RES2   0.0000
   123 C48     14.0380   0.6034  15.9982   C.ar      2 RES2   0.0000
   124 H62     14.6600   1.1979  16.3501   H         2 RES2   0.0000
   125 B2      -6.3052   8.8013  18.8837   B         3 RES3  -1.0000
   126 C49     -6.1945  10.2691  18.1533   C.ar      3 RES3   0.0000
   127 C50     -7.2574  10.8993  17.5222   C.ar      3 RES3   0.0000
   128 H63     -8.0870  10.4810  17.5372   H         3 RES3   0.0000
   129 C51     -7.1494  12.1262  16.8683   C.ar      3 RES3   0.0000
   130 H64     -7.8883  12.4976  16.4454   H         3 RES3   0.0000
   131 C52     -5.9587  12.7720  16.8551   C.ar      3 RES3   0.0000
   132 H65     -5.8756  13.5851  16.4113   H         3 RES3   0.0000
   133 C53     -4.8934  12.2377  17.4832   C.ar      3 RES3   0.0000
   134 H66     -4.0853  12.6973  17.4941   H         3 RES3   0.0000
   135 C54     -4.9967  10.9807  18.1290   C.ar      3 RES3   0.0000
   136 H67     -4.2469  10.6216  18.5473   H         3 RES3   0.0000
   137 C55     -5.4817   7.6770  18.0075   C.ar      3 RES3   0.0000
   138 C56     -4.4832   7.9614  17.0860   C.ar      3 RES3   0.0000
   139 H68     -4.2784   8.8526  16.9175   H         3 RES3   0.0000
   140 C57     -3.7712   6.9755  16.4009   C.ar      3 RES3   0.0000
   141 H69     -3.1175   7.2153  15.7871   H         3 RES3   0.0000
   142 C58     -4.0415   5.6493  16.6361   C.ar      3 RES3   0.0000
   143 H70     -3.5712   4.9845  16.1866   H         3 RES3   0.0000
   144 C59     -5.0143   5.3180  17.5486   C.ar      3 RES3   0.0000
   145 H71     -5.2025   4.4235  17.7256   H         3 RES3   0.0000
   146 C60     -5.7097   6.3074  18.2018   C.ar      3 RES3   0.0000
   147 H72     -6.3698   6.0542  18.8061   H         3 RES3   0.0000
   148 C61     -7.8905   8.3987  19.0154   C.ar      3 RES3   0.0000
   149 C62     -8.5711   7.7707  17.9574   C.ar      3 RES3   0.0000
   150 H73     -8.0853   7.5086  17.2104   H         3 RES3   0.0000
   151 C63     -9.9590   7.5209  17.9798   C.ar      3 RES3   0.0000
   152 H74    -10.3736   7.1193  17.2512   H         3 RES3   0.0000
   153 C64    -10.6738   7.8655  19.0580   C.ar      3 RES3   0.0000
   154 H75    -11.5877   7.6837  19.0853   H         3 RES3   0.0000
   155 C65    -10.0764   8.4790  20.1181   C.ar      3 RES3   0.0000
   156 H76    -10.5836   8.7255  20.8581   H         3 RES3   0.0000
   157 C66     -8.6854   8.7444  20.0949   C.ar      3 RES3   0.0000
   158 H77     -8.2942   9.1638  20.8263   H         3 RES3   0.0000
   159 C67     -5.6837   8.8671  20.4066   C.ar      3 RES3   0.0000
   160 C68     -5.7555  10.0472  21.1679   C.ar      3 RES3   0.0000
   161 H78     -6.0954  10.8134  20.7627   H         3 RES3   0.0000
   162 C69     -5.3472  10.1275  22.4874   C.ar      3 RES3   0.0000
   163 H79     -5.4358  10.9272  22.9532   H         3 RES3   0.0000
   164 C70     -4.8241   9.0500  23.0946   C.ar      3 RES3   0.0000
   165 H80     -4.5382   9.1058  23.9792   H         3 RES3   0.0000
   166 C71     -4.7098   7.8555  22.4039   C.ar      3 RES3   0.0000
   167 H81     -4.3552   7.1060  22.8238   H         3 RES3   0.0000
   168 C72     -5.1290   7.7796  21.0749   C.ar      3 RES3   0.0000
   169 H82     -5.0344   6.9743  20.6197   H         3 RES3   0.0000
@<TRIPOS>BOND
     1     1     2    1
     2     2    20    1
     3     3     4    1
     4     5     6    1
     5     7     1    1
     6     8     1    1
     7     9    10    1
     8    11    12    1
     9    13     1    1
    10    14     1    1
    11    15    16    1
    12    17    18    1
    13    19     1    1
    14    20    21    1
    15    22    20    1
    16    23    20    1
    17    24    23    1
    18    25    23    1
    19    26     3    1
    20    27    26    1
    21    28    26    1
    22    29     2    2
    23    30     5    1
    24    31     5    1
    25    32    31    1
    26    33    31    1
    27    34    31    1
    28    35    34    1
    29    36    34    1
    30    37     7    1
    31    38    37    1
    32    39    37    1
    33    40     8    1
    34    41    40    1
    35    42    40    1
    36    43    40    1
    37    44    43    1
    38    45    43    1
    39    46     9    1
    40    47    46    1
    41    48    46    1
    42    49     8    2
    43    50    11    1
    44    51    11    1
    45    52    51    1
    46    53    51    1
    47    54    51    1
    48    55    54    1
    49    56    54    1
    50    57    13    1
    51    58    57    1
    52    59    57    1
    53    60    14    1
    54    61    60    1
    55    62    60    1
    56    63    60    1
    57    64    63    1
    58    65    63    1
    59    66    15    1
    60    67    66    1
    61    68    66    1
    62    69    14    2
    63    70    17    1
    64    71    17    1
    65    72    71    1
    66    73    71    1
    67    74    71    1
    68    75    74    1
    69    76    74    1
    70    77    19    1
    71    78    77    1
    72    79    77    1
    73     3    29    1
    74     7    30    2
    75     9    49    1
    76    13    50    2
    77    15    69    1
    78    19    70    2
    79    23    26    1
    80    29    30    1
    81    34    37    1
    82    43    46    1
    83    49    50    1
    84    54    57    1
    85    63    66    1
    86    69    70    1
    87    74    77    1
    88    80    81    1
    89    81    82   ar
    90    82    83    1
    91    84    82   ar
    92    85    84    1
    93    86    84   ar
    94    87    86    1
    95    88    86   ar
    96    89    88    1
    97    90    81   ar
    98    91    90    1
    99    92    80    1
   100    93    92   ar
   101    94    93    1
   102    95    93   ar
   103    96    95    1
   104    97    95   ar
   105    98    97    1
   106    99    97   ar
   107   100    99    1
   108   101    92   ar
   109   102   101    1
   110   103    80    1
   111   104   103   ar
   112   105   104    1
   113   106   104   ar
   114   107   106    1
   115   108   106   ar
   116   109   108    1
   117   110   108   ar
   118   111   110    1
   119   112   103   ar
   120   113   112    1
   121   114    80    1
   122   115   114   ar
   123   116   115    1
   124   117   115   ar
   125   118   117    1
   126   119   117   ar
   127   120   119    1
   128   121   119   ar
   129   122   121    1
   130   123   114   ar
   131   124   123    1
   132    88    90   ar
   133    99   101   ar
   134   110   112   ar
   135   121   123   ar
   136   125   126    1
   137   126   127   ar
   138   127   128    1
   139   129   127   ar
   140   130   129    1
   141   131   129   ar
   142   132   131    1
   143   133   131   ar
   144   134   133    1
   145   135   126   ar
   146   136   135    1
   147   137   125    1
   148   138   137   ar
   149   139   138    1
   150   140   138   ar
   151   141   140    1
   152   142   140   ar
   153   143   142    1
   154   144   142   ar
   155   145   144    1
   156   146   137   ar
   157   147   146    1
   158   148   125    1
   159   149   148   ar
   160   150   149    1
   161   151   149   ar
   162   152   151    1
   163   153   151   ar
   164   154   153    1
   165   155   153   ar
   166   156   155    1
   167   157   148   ar
   168   158   157    1
   169   159   125    1
   170   160   159   ar
   171   161   160    1
   172   162   160   ar
   173   163   162    1
   174   164   162   ar
   175   165   164    1
   176   166   164   ar
   177   167   166    1
   178   168   159   ar
   179   169   168    1
   180   133   135   ar
   181   144   146   ar
   182   155   157   ar
   183   166   168   ar
@<TRIPOS>SUBSTRUCTURE
     1 RES1        1 GROUP             0 ****  ****    0  
     2 RES2       80 GROUP             0 ****  ****    0  
     3 RES3      125 GROUP             0 ****  ****    0  
@<TRIPOS>CRYSIN
   25.4833   11.1536   24.7455   90.0000  113.4660   90.0000     9     1
