@<TRIPOS>MOLECULE
QOSVOJ
    97   104     4     0     0
SMALL
USER_CHARGES
****
Generated from the CSD

@<TRIPOS>ATOM
     1 Fe1     -7.5505  -8.7713  -1.8014   Fe        1 RES1   2.0000
     2 N1      -8.5909  -7.5327  -4.6326   N.3       1 RES1   0.0000
     3 N2      -6.8872  -6.8584  -2.5129   N.2       1 RES1   0.0000
     4 N3      -5.3073  -8.8069  -1.3451   N.2       1 RES1   0.0000
     5 N4      -3.1898  -8.7009  -0.7721   N.pl3     1 RES1   0.0000
     6 N5      -7.1873  -9.8399  -3.7012   N.2       1 RES1   0.0000
     7 N6      -7.9339 -10.8818  -1.2800   N.2       1 RES1   0.0000
     8 N7      -8.1472 -13.0334  -0.7480   N.pl3     1 RES1   0.0000
     9 N8      -9.6973  -8.5363  -2.1727   N.2       1 RES1   0.0000
    10 N9      -8.2937  -7.8868   0.0820   N.2       1 RES1   0.0000
    11 N10     -9.0488  -7.2463   2.0316   N.pl3     1 RES1   0.0000
    12 C1      -8.0064  -6.2472  -4.5928   C.3       1 RES1   0.0000
    13 C2      -7.6936  -5.8345  -3.1620   C.3       1 RES1   0.0000
    14 C3      -5.6187  -6.5877  -2.3923   C.2       1 RES1   0.0000
    15 C4      -4.7825  -7.6252  -1.7517   C.2       1 RES1   0.0000
    16 C5      -3.4571  -7.5462  -1.4368   C.2       1 RES1   0.0000
    17 C6      -4.3203  -9.4001  -0.7214   C.2       1 RES1   0.0000
    18 C7      -4.3075 -10.7442  -0.0941   C.ar      1 RES1   0.0000
    19 C8      -3.6932 -10.9472   1.1340   C.ar      1 RES1   0.0000
    20 C9      -3.6406 -12.2034   1.6962   C.ar      1 RES1   0.0000
    21 C10     -4.1284 -13.2950   1.0339   C.ar      1 RES1   0.0000
    22 C11     -4.7370 -13.1055  -0.1906   C.ar      1 RES1   0.0000
    23 C12     -4.8266 -11.8200  -0.7468   C.ar      1 RES1   0.0000
    24 C13     -8.0462  -8.4799  -5.5579   C.3       1 RES1   0.0000
    25 C14     -6.8133  -9.2061  -4.9969   C.3       1 RES1   0.0000
    26 C15     -7.3935 -11.0465  -3.6711   C.2       1 RES1   0.0000
    27 C16     -7.7974 -11.7095  -2.4104   C.2       1 RES1   0.0000
    28 C17     -7.9197 -12.9612  -2.0871   C.2       1 RES1   0.0000
    29 C18     -8.1700 -11.7659  -0.3040   C.2       1 RES1   0.0000
    30 C19     -8.4174 -11.4208   1.1376   C.ar      1 RES1   0.0000
    31 C20     -7.5855 -12.0365   2.1015   C.ar      1 RES1   0.0000
    32 C21     -7.8884 -11.8223   3.4648   C.ar      1 RES1   0.0000
    33 C22     -8.9919 -11.0893   3.7724   C.ar      1 RES1   0.0000
    34 C23     -9.7670 -10.4759   2.8652   C.ar      1 RES1   0.0000
    35 C24     -9.4868 -10.7037   1.5273   C.ar      1 RES1   0.0000
    36 C25    -10.0358  -7.6229  -4.4540   C.3       1 RES1   0.0000
    37 C26    -10.4041  -8.7258  -3.4515   C.3       1 RES1   0.0000
    38 C27    -10.3813  -8.1146  -1.1980   C.2       1 RES1   0.0000
    39 C28     -9.7030  -7.7876   0.0531   C.2       1 RES1   0.0000
    40 C29    -10.1680  -7.3523   1.2522   C.2       1 RES1   0.0000
    41 C30     -7.9524  -7.5327   1.3246   C.2       1 RES1   0.0000
    42 C31     -6.5872  -7.5192   1.8747   C.ar      1 RES1   0.0000
    43 C32     -6.3084  -8.2860   3.0100   C.ar      1 RES1   0.0000
    44 C33     -5.0214  -8.2927   3.5408   C.ar      1 RES1   0.0000
    45 C34     -4.0558  -7.5214   2.9581   C.ar      1 RES1   0.0000
    46 C35     -4.3445  -6.7907   1.8373   C.ar      1 RES1   0.0000
    47 C36     -5.6230  -6.7591   1.3319   C.ar      1 RES1   0.0000
    48 H1      -2.3536  -8.9671  -0.4029   H         1 RES1   0.0000
    49 H2      -8.5923  -5.5977  -4.9692   H         1 RES1   0.0000
    50 H3      -7.1887  -6.2472  -5.0946   H         1 RES1   0.0000
    51 H4      -7.1944  -5.0158  -3.1656   H         1 RES1   0.0000
    52 H5      -8.4942  -5.7149  -2.6842   H         1 RES1   0.0000
    53 H6      -5.2461  -5.7668  -2.7011   H         1 RES1   0.0000
    54 H7      -2.8542  -6.8358  -1.6323   H         1 RES1   0.0000
    55 H8      -3.3377 -10.2030   1.6009   H         1 RES1   0.0000
    56 H9      -3.2111 -12.3072   2.5310   H         1 RES1   0.0000
    57 H10     -4.0672 -14.1633   1.4175   H         1 RES1   0.0000
    58 H11     -5.1082 -13.8363  -0.6623   H         1 RES1   0.0000
    59 H12     -5.2746 -11.7028  -1.5864   H         1 RES1   0.0000
    60 H13     -8.2667 -13.8250  -0.2256   H         1 RES1   0.0000
    61 H14     -7.8031  -8.0447  -6.3722   H         1 RES1   0.0000
    62 H15     -8.7075  -9.1475  -5.7606   H         1 RES1   0.0000
    63 H16     -6.4834  -9.8692  -5.6061   H         1 RES1   0.0000
    64 H17     -6.0951  -8.5747  -4.8461   H         1 RES1   0.0000
    65 H18     -7.3082 -11.5787  -4.4637   H         1 RES1   0.0000
    66 H19     -7.8614 -13.7077  -2.6818   H         1 RES1   0.0000
    67 H20     -6.8517 -12.6004   1.8530   H         1 RES1   0.0000
    68 H21     -7.3466 -12.1719   4.1380   H         1 RES1   0.0000
    69 H22     -9.2707 -11.0059   4.6929   H         1 RES1   0.0000
    70 H23    -10.4595  -9.8985   3.1391   H         1 RES1   0.0000
    71 H24    -10.0670 -10.3248   0.8831   H         1 RES1   0.0000
    72 H25     -9.0460  -7.0005   2.9460   H         1 RES1   0.0000
    73 H26    -10.4425  -7.8236  -5.2804   H         1 RES1   0.0000
    74 H27    -10.3643  -6.8020  -4.1174   H         1 RES1   0.0000
    75 H28    -11.3512  -8.6987  -3.2971   H         1 RES1   0.0000
    76 H29    -10.1837  -9.5737  -3.8219   H         1 RES1   0.0000
    77 H30    -11.3114  -8.0198  -1.2667   H         1 RES1   0.0000
    78 H31    -11.0710  -7.1696   1.5020   H         1 RES1   0.0000
    79 H32     -6.9896  -8.8137   3.4201   H         1 RES1   0.0000
    80 H33     -4.8266  -8.8069   4.3213   H         1 RES1   0.0000
    81 H34     -3.1827  -7.5282   3.3116   H         1 RES1   0.0000
    82 H35     -3.6491  -6.2855   1.4260   H         1 RES1   0.0000
    83 H36     -5.8306  -6.1908   0.6008   H         1 RES1   0.0000
    84 O1      -4.3061  -5.9359  -5.5675   O.3       2 RES2  -1.0000
    85 O2      -2.5512  -5.5954  -4.3648   O.2       2 RES2   0.0000
    86 O3      -4.1838  -4.2016  -4.3213   O.2       2 RES2   0.0000
    87 N11     -3.6946  -5.2391  -4.7556   N.pl3     2 RES2   0.0000
    88 O4      -7.5883  -4.0641 -11.7166   O.3       3 RES3  -1.0000
    89 O5      -6.0610  -3.3356 -12.9591   O.2       3 RES3   0.0000
    90 O6      -7.8343  -2.1967 -12.4935   O.2       3 RES3   0.0000
    91 N12     -7.1404  -3.1935 -12.4114   N.pl3     3 RES3   0.0000
    92 O7      -6.0880  -4.0956  -6.7233   O.3       4 RES4   0.0000
    93 C37     -6.6341  -4.5715  -7.8826   C.3       4 RES4   0.0000
    94 H37     -6.1662  -4.1926  -8.6125   H         4 RES4   0.0000
    95 H38     -7.5499  -4.3550  -7.9273   H         4 RES4   0.0000
    96 H39     -6.5289  -5.5232  -7.8995   H         4 RES4   0.0000
    97 H40     -5.7410  -3.7551  -5.8933   H         4 RES4   0.0000
@<TRIPOS>BOND
     1     1     3    1
     2     2    12    1
     3     3    13    1
     4     4     1    1
     5     5    16    1
     6     6     1    1
     7     7     1    1
     8     8    28    1
     9     9     1    1
    10    10     1    1
    11    11    40    1
    12    12    13    1
    13    13    51    1
    14    14     3    2
    15    15     4    1
    16    16    15    2
    17    17     4    2
    18    18    17    1
    19    19    18   ar
    20    20    19   ar
    21    21    20   ar
    22    22    21   ar
    23    23    18   ar
    24    24     2    1
    25    25     6    1
    26    26     6    2
    27    27     7    1
    28    28    27    2
    29    29     7    2
    30    30    29    1
    31    31    30   ar
    32    32    31   ar
    33    33    32   ar
    34    34    33   ar
    35    35    30   ar
    36    36     2    1
    37    37     9    1
    38    38     9    2
    39    39    10    1
    40    40    39    2
    41    41    10    2
    42    42    41    1
    43    43    42   ar
    44    44    43   ar
    45    45    44   ar
    46    46    45   ar
    47    47    42   ar
    48    48     5    1
    49    49    12    1
    50    50    12    1
    51    52    13    1
    52    53    14    1
    53    54    16    1
    54    55    19    1
    55    56    20    1
    56    57    21    1
    57    58    22    1
    58    59    23    1
    59    60     8    1
    60    61    24    1
    61    62    24    1
    62    63    25    1
    63    64    25    1
    64    65    26    1
    65    66    28    1
    66    67    31    1
    67    68    32    1
    68    69    33    1
    69    70    34    1
    70    71    35    1
    71    72    11    1
    72    73    36    1
    73    74    36    1
    74    75    37    1
    75    76    37    1
    76    77    38    1
    77    78    40    1
    78    79    43    1
    79    80    44    1
    80    81    45    1
    81    82    46    1
    82    83    47    1
    83     5    17    1
    84     8    29    1
    85    11    41    1
    86    14    15    1
    87    22    23   ar
    88    24    25    1
    89    26    27    1
    90    34    35   ar
    91    36    37    1
    92    38    39    1
    93    46    47   ar
    94    84    87    1
    95    85    87    2
    96    86    87    2
    97    88    91    1
    98    89    91    2
    99    90    91    2
   100    92    93    1
   101    93    94    1
   102    95    93    1
   103    96    93    1
   104    97    92    1
@<TRIPOS>SUBSTRUCTURE
     1 RES1        1 GROUP             0 ****  ****    0  
     2 RES2       84 GROUP             0 ****  ****    0  
     3 RES3       88 GROUP             0 ****  ****    0  
     4 RES4       92 GROUP             0 ****  ****    0  
@<TRIPOS>CRYSIN
   14.2210   22.5530   12.0640   90.0000   90.0000   90.0000    19     1
