@<TRIPOS>MOLECULE
QOSZON23
    81    86     1     0     0
SMALL
NO_CHARGES
****
Generated from the CSD

@<TRIPOS>ATOM
     1 Fe1      2.1087   7.1096   4.8056   Fe        1 RES1   0.0000
     2 P1       0.8385   6.3943   3.2920   P.3       1 RES1   0.0000
     3 P2       3.3727   8.5443   5.7190   P.3       1 RES1   0.0000
     4 O1       0.2856   7.3931   2.1673   O.3       1 RES1   0.0000
     5 O2       1.5326   5.3104   2.3145   O.3       1 RES1   0.0000
     6 O3      -0.5989   5.7205   3.6353   O.3       1 RES1   0.0000
     7 O4       2.8406   9.4204   6.9564   O.3       1 RES1   0.0000
     8 O5       4.6313   7.8549   6.4227   O.3       1 RES1   0.0000
     9 O6       4.0485   9.7566   4.9109   O.3       1 RES1   0.0000
    10 O7       0.7664   6.3090   7.2832   O.2       1 RES1   0.0000
    11 O8       4.2064   5.0925   4.5372   O.2       1 RES1   0.0000
    12 C1       0.0398   8.7474   2.3113   C.ar      1 RES1   0.0000
    13 C2      -1.1736   9.1706   2.8279   C.ar      1 RES1   0.0000
    14 C3      -1.4734  10.5282   2.8396   C.ar      1 RES1   0.0000
    15 C4      -0.5545  11.4488   2.3445   C.ar      1 RES1   0.0000
    16 C5       0.6672  11.0052   1.8417   C.ar      1 RES1   0.0000
    17 C6       0.9720   9.6495   1.8225   C.ar      1 RES1   0.0000
    18 C7       1.0818   5.0389   1.0251   C.ar      1 RES1   0.0000
    19 C8       1.7308   5.6656  -0.0352   C.ar      1 RES1   0.0000
    20 C9       1.3258   5.3741  -1.3336   C.ar      1 RES1   0.0000
    21 C10      0.2800   4.4816  -1.5653   C.ar      1 RES1   0.0000
    22 C11     -0.3458   3.8649  -0.4889   C.ar      1 RES1   0.0000
    23 C12      0.0602   4.1327   0.8158   C.ar      1 RES1   0.0000
    24 C13     -0.7900   4.7076   4.5640   C.ar      1 RES1   0.0000
    25 C14     -1.9967   4.7144   5.2496   C.ar      1 RES1   0.0000
    26 C15     -2.2728   3.6972   6.1564   C.ar      1 RES1   0.0000
    27 C16     -1.3532   2.6806   6.3858   C.ar      1 RES1   0.0000
    28 C17     -0.1514   2.6836   5.6909   C.ar      1 RES1   0.0000
    29 C18      0.1394   3.6935   4.7710   C.ar      1 RES1   0.0000
    30 C19      2.0345  10.5407   6.9189   C.ar      1 RES1   0.0000
    31 C20      1.9020  11.2104   8.1295   C.ar      1 RES1   0.0000
    32 C21      1.0880  12.3341   8.2030   C.ar      1 RES1   0.0000
    33 C22      0.4149  12.7896   7.0746   C.ar      1 RES1   0.0000
    34 C23      0.5667  12.1170   5.8692   C.ar      1 RES1   0.0000
    35 C24      1.3802  10.9882   5.7790   C.ar      1 RES1   0.0000
    36 C25      5.7204   8.5409   6.9629   C.ar      1 RES1   0.0000
    37 C26      6.9076   8.5180   6.2592   C.ar      1 RES1   0.0000
    38 C27      8.0406   9.0823   6.8238   C.ar      1 RES1   0.0000
    39 C28      7.9824   9.6603   8.0796   C.ar      1 RES1   0.0000
    40 C29      6.7758   9.6816   8.7731   C.ar      1 RES1   0.0000
    41 C30      5.6310   9.1218   8.2158   C.ar      1 RES1   0.0000
    42 C31      4.2921   9.9047   3.5630   C.ar      1 RES1   0.0000
    43 C32      4.8169   8.8810   2.7821   C.ar      1 RES1   0.0000
    44 C33      5.0591   9.1252   1.4355   C.ar      1 RES1   0.0000
    45 C34      4.7984  10.3736   0.8813   C.ar      1 RES1   0.0000
    46 C35      4.2900  11.3894   1.6828   C.ar      1 RES1   0.0000
    47 C36      4.0370  11.1623   3.0328   C.ar      1 RES1   0.0000
    48 C37      1.2951   6.5919   6.3109   C.1       1 RES1   0.0000
    49 C38      3.3660   5.8611   4.6623   C.1       1 RES1   0.0000
    50 H1       1.1138   8.2663   4.7525   H         1 RES1   0.0000
    51 H2       2.6275   7.7845   3.5737   H         1 RES1   0.0000
    52 H3      -1.8784   8.4523   3.1814   H         1 RES1   0.0000
    53 H4      -2.4368  10.8954   3.2630   H         1 RES1   0.0000
    54 H5      -0.7961  12.5154   2.3008   H         1 RES1   0.0000
    55 H6       1.3994  11.7502   1.4327   H         1 RES1   0.0000
    56 H7       1.9149   9.2882   1.3901   H         1 RES1   0.0000
    57 H8       2.5672   6.3870   0.1775   H         1 RES1   0.0000
    58 H9       1.8139   5.8494  -2.1943   H         1 RES1   0.0000
    59 H10     -0.0395   4.2963  -2.5902   H         1 RES1   0.0000
    60 H11     -1.1533   3.1332  -0.6835   H         1 RES1   0.0000
    61 H12     -0.3791   3.6725   1.6581   H         1 RES1   0.0000
    62 H13     -2.6822   5.5241   5.0667   H         1 RES1   0.0000
    63 H14     -3.2293   3.6910   6.7089   H         1 RES1   0.0000
    64 H15     -1.5838   1.8720   7.1225   H         1 RES1   0.0000
    65 H16      0.5878   1.8848   5.8248   H         1 RES1   0.0000
    66 H17      1.0644   3.6614   4.1968   H         1 RES1   0.0000
    67 H18      2.4587  10.8182   8.9831   H         1 RES1   0.0000
    68 H19      0.9930  12.8620   9.1535   H         1 RES1   0.0000
    69 H20     -0.2163  13.6752   7.1385   H         1 RES1   0.0000
    70 H21      0.0415  12.4617   4.9833   H         1 RES1   0.0000
    71 H22      1.4634  10.4728   4.8164   H         1 RES1   0.0000
    72 H23      6.9493   7.9946   5.3029   H         1 RES1   0.0000
    73 H24      8.9658   9.0447   6.2651   H         1 RES1   0.0000
    74 H25      8.9266  10.0577   8.5463   H         1 RES1   0.0000
    75 H26      6.7129  10.1312   9.7713   H         1 RES1   0.0000
    76 H27      4.6825   9.1602   8.7487   H         1 RES1   0.0000
    77 H28      5.0358   7.8960   3.2062   H         1 RES1   0.0000
    78 H29      5.4595   8.2984   0.8131   H         1 RES1   0.0000
    79 H30      4.9665  10.5617  -0.1829   H         1 RES1   0.0000
    80 H31      4.0588  12.3484   1.2551   H         1 RES1   0.0000
    81 H32      3.6245  11.9624   3.6465   H         1 RES1   0.0000
@<TRIPOS>BOND
     1     1     2    1
     2     2     4    1
     3     3     1    1
     4     4    12    1
     5     5     2    1
     6     6     2    1
     7     7     3    1
     8     8     3    1
     9     9     3    1
    10    10    48    3
    11    11    49    3
    12    12    13   ar
    13    13    14   ar
    14    14    15   ar
    15    15    16   ar
    16    16    17   ar
    17    17    12   ar
    18    18     5    1
    19    19    18   ar
    20    20    19   ar
    21    21    20   ar
    22    22    21   ar
    23    23    18   ar
    24    24     6    1
    25    25    24   ar
    26    26    25   ar
    27    27    26   ar
    28    28    27   ar
    29    29    24   ar
    30    30     7    1
    31    31    30   ar
    32    32    31   ar
    33    33    32   ar
    34    34    33   ar
    35    35    30   ar
    36    36     8    1
    37    37    36   ar
    38    38    37   ar
    39    39    38   ar
    40    40    39   ar
    41    41    36   ar
    42    42     9    1
    43    43    42   ar
    44    44    43   ar
    45    45    44   ar
    46    46    45   ar
    47    47    42   ar
    48    48     1    1
    49    49     1    1
    50    50     1    1
    51    51     1    1
    52    52    13    1
    53    53    14    1
    54    54    15    1
    55    55    16    1
    56    56    17    1
    57    57    19    1
    58    58    20    1
    59    59    21    1
    60    60    22    1
    61    61    23    1
    62    62    25    1
    63    63    26    1
    64    64    27    1
    65    65    28    1
    66    66    29    1
    67    67    31    1
    68    68    32    1
    69    69    33    1
    70    70    34    1
    71    71    35    1
    72    72    37    1
    73    73    38    1
    74    74    39    1
    75    75    40    1
    76    76    41    1
    77    77    43    1
    78    78    44    1
    79    79    45    1
    80    80    46    1
    81    81    47    1
    82    22    23   ar
    83    28    29   ar
    84    34    35   ar
    85    40    41   ar
    86    46    47   ar
@<TRIPOS>SUBSTRUCTURE
     1 RES1        1 GROUP             0 ****  ****    0  
@<TRIPOS>CRYSIN
    9.6397   10.4410   18.3810  102.1480   94.6670  107.4020     2     1
