@<TRIPOS>MOLECULE
QOSZON09
    81    86     1     0     0
SMALL
NO_CHARGES
****
Generated from the CSD

@<TRIPOS>ATOM
     1 Fe1      2.1087   7.1097   4.8055   Fe        1 RES1   0.0000
     2 P1       0.8385   6.3943   3.2920   P.3       1 RES1   0.0000
     3 P2       3.3729   8.5445   5.7191   P.3       1 RES1   0.0000
     4 O1       0.2859   7.3930   2.1669   O.3       1 RES1   0.0000
     5 O2       1.5327   5.3104   2.3139   O.3       1 RES1   0.0000
     6 O3      -0.5994   5.7208   3.6353   O.3       1 RES1   0.0000
     7 O4       2.8408   9.4204   6.9566   O.3       1 RES1   0.0000
     8 O5       4.6315   7.8549   6.4227   O.3       1 RES1   0.0000
     9 O6       4.0487   9.7573   4.9109   O.3       1 RES1   0.0000
    10 O7       0.7665   6.3088   7.2830   O.2       1 RES1   0.0000
    11 O8       4.2063   5.0919   4.5372   O.2       1 RES1   0.0000
    12 C1       0.0401   8.7471   2.3120   C.ar      1 RES1   0.0000
    13 C2      -1.1729   9.1712   2.8268   C.ar      1 RES1   0.0000
    14 C3      -1.4710  10.5275   2.8398   C.ar      1 RES1   0.0000
    15 C4      -0.5544  11.4477   2.3450   C.ar      1 RES1   0.0000
    16 C5       0.6658  11.0045   1.8433   C.ar      1 RES1   0.0000
    17 C6       0.9713   9.6495   1.8224   C.ar      1 RES1   0.0000
    18 C7       1.0825   5.0385   1.0258   C.ar      1 RES1   0.0000
    19 C8       1.7303   5.6654  -0.0362   C.ar      1 RES1   0.0000
    20 C9       1.3253   5.3732  -1.3331   C.ar      1 RES1   0.0000
    21 C10      0.2813   4.4813  -1.5642   C.ar      1 RES1   0.0000
    22 C11     -0.3452   3.8652  -0.4880   C.ar      1 RES1   0.0000
    23 C12      0.0604   4.1345   0.8142   C.ar      1 RES1   0.0000
    24 C13     -0.7900   4.7065   4.5636   C.ar      1 RES1   0.0000
    25 C14     -1.9950   4.7146   5.2510   C.ar      1 RES1   0.0000
    26 C15     -2.2727   3.6973   6.1561   C.ar      1 RES1   0.0000
    27 C16     -1.3528   2.6795   6.3867   C.ar      1 RES1   0.0000
    28 C17     -0.1533   2.6856   5.6906   C.ar      1 RES1   0.0000
    29 C18      0.1382   3.6929   4.7713   C.ar      1 RES1   0.0000
    30 C19      2.0345  10.5407   6.9186   C.ar      1 RES1   0.0000
    31 C20      1.9029  11.2097   8.1295   C.ar      1 RES1   0.0000
    32 C21      1.0880  12.3334   8.2019   C.ar      1 RES1   0.0000
    33 C22      0.4148  12.7883   7.0739   C.ar      1 RES1   0.0000
    34 C23      0.5674  12.1172   5.8704   C.ar      1 RES1   0.0000
    35 C24      1.3802  10.9883   5.7793   C.ar      1 RES1   0.0000
    36 C25      5.7205   8.5399   6.9629   C.ar      1 RES1   0.0000
    37 C26      6.9078   8.5185   6.2601   C.ar      1 RES1   0.0000
    38 C27      8.0389   9.0820   6.8245   C.ar      1 RES1   0.0000
    39 C28      7.9832   9.6604   8.0793   C.ar      1 RES1   0.0000
    40 C29      6.7758   9.6816   8.7731   C.ar      1 RES1   0.0000
    41 C30      5.6311   9.1219   8.2161   C.ar      1 RES1   0.0000
    42 C31      4.2922   9.9042   3.5638   C.ar      1 RES1   0.0000
    43 C32      4.8172   8.8816   2.7817   C.ar      1 RES1   0.0000
    44 C33      5.0587   9.1269   1.4369   C.ar      1 RES1   0.0000
    45 C34      4.7991  10.3727   0.8800   C.ar      1 RES1   0.0000
    46 C35      4.2894  11.3885   1.6842   C.ar      1 RES1   0.0000
    47 C36      4.0390  11.1605   3.0308   C.ar      1 RES1   0.0000
    48 C37      1.2949   6.5911   6.3119   C.1       1 RES1   0.0000
    49 C38      3.3669   5.8598   4.6621   C.1       1 RES1   0.0000
    50 H1       1.1201   8.2630   4.7614   H         1 RES1   0.0000
    51 H2       2.6176   7.7731   3.5790   H         1 RES1   0.0000
    52 H3      -1.8666   8.4658   3.1831   H         1 RES1   0.0000
    53 H4      -2.4187  10.8668   3.2541   H         1 RES1   0.0000
    54 H5      -0.7886  12.5029   2.2795   H         1 RES1   0.0000
    55 H6       1.3857  11.7329   1.4380   H         1 RES1   0.0000
    56 H7       1.9069   9.2999   1.3989   H         1 RES1   0.0000
    57 H8       2.5556   6.3821   0.1811   H         1 RES1   0.0000
    58 H9       1.8179   5.8556  -2.1836   H         1 RES1   0.0000
    59 H10     -0.0485   4.2897  -2.5760   H         1 RES1   0.0000
    60 H11     -1.1643   3.1433  -0.6764   H         1 RES1   0.0000
    61 H12     -0.3645   3.6827   1.6493   H         1 RES1   0.0000
    62 H13     -2.6786   5.5234   5.0579   H         1 RES1   0.0000
    63 H14     -3.2269   3.6935   6.7071   H         1 RES1   0.0000
    64 H15     -1.5850   1.8771   7.1261   H         1 RES1   0.0000
    65 H16      0.5634   1.8985   5.8177   H         1 RES1   0.0000
    66 H17      1.0493   3.6730   4.2022   H         1 RES1   0.0000
    67 H18      2.4452  10.8122   8.9831   H         1 RES1   0.0000
    68 H19      0.9983  12.8636   9.1358   H         1 RES1   0.0000
    69 H20     -0.2112  13.6652   7.1385   H         1 RES1   0.0000
    70 H21      0.0582  12.4618   4.9868   H         1 RES1   0.0000
    71 H22      1.4594  10.4857   4.8164   H         1 RES1   0.0000
    72 H23      6.9327   8.0112   5.3082   H         1 RES1   0.0000
    73 H24      8.9531   9.0549   6.2757   H         1 RES1   0.0000
    74 H25      8.9223  10.0642   8.5481   H         1 RES1   0.0000
    75 H26      6.7198  10.1346   9.7695   H         1 RES1   0.0000
    76 H27      4.6821   9.1725   8.7399   H         1 RES1   0.0000
    77 H28      5.0289   7.9120   3.2062   H         1 RES1   0.0000
    78 H29      5.4635   8.3174   0.8166   H         1 RES1   0.0000
    79 H30      4.9641  10.5581  -0.1846   H         1 RES1   0.0000
    80 H31      4.0700  12.3291   1.2409   H         1 RES1   0.0000
    81 H32      3.6342  11.9481   3.6323   H         1 RES1   0.0000
@<TRIPOS>BOND
     1     1     2    1
     2     2     4    1
     3     3     1    1
     4     4    12    1
     5     5     2    1
     6     6     2    1
     7     7     3    1
     8     8     3    1
     9     9     3    1
    10    10    48    3
    11    11    49    3
    12    12    13   ar
    13    13    14   ar
    14    14    15   ar
    15    15    16   ar
    16    16    17   ar
    17    17    12   ar
    18    18     5    1
    19    19    18   ar
    20    20    19   ar
    21    21    20   ar
    22    22    21   ar
    23    23    18   ar
    24    24     6    1
    25    25    24   ar
    26    26    25   ar
    27    27    26   ar
    28    28    27   ar
    29    29    24   ar
    30    30     7    1
    31    31    30   ar
    32    32    31   ar
    33    33    32   ar
    34    34    33   ar
    35    35    30   ar
    36    36     8    1
    37    37    36   ar
    38    38    37   ar
    39    39    38   ar
    40    40    39   ar
    41    41    36   ar
    42    42     9    1
    43    43    42   ar
    44    44    43   ar
    45    45    44   ar
    46    46    45   ar
    47    47    42   ar
    48    48     1    1
    49    49     1    1
    50    50     1    1
    51    51     1    1
    52    52    13    1
    53    53    14    1
    54    54    15    1
    55    55    16    1
    56    56    17    1
    57    57    19    1
    58    58    20    1
    59    59    21    1
    60    60    22    1
    61    61    23    1
    62    62    25    1
    63    63    26    1
    64    64    27    1
    65    65    28    1
    66    66    29    1
    67    67    31    1
    68    68    32    1
    69    69    33    1
    70    70    34    1
    71    71    35    1
    72    72    37    1
    73    73    38    1
    74    74    39    1
    75    75    40    1
    76    76    41    1
    77    77    43    1
    78    78    44    1
    79    79    45    1
    80    80    46    1
    81    81    47    1
    82    22    23   ar
    83    28    29   ar
    84    34    35   ar
    85    40    41   ar
    86    46    47   ar
@<TRIPOS>SUBSTRUCTURE
     1 RES1        1 GROUP             0 ****  ****    0  
@<TRIPOS>CRYSIN
    9.6397   10.4410   18.3810  102.1480   94.6670  107.4020     2     1
