@<TRIPOS>MOLECULE
QOSZON19
    81    86     1     0     0
SMALL
NO_CHARGES
****
Generated from the CSD

@<TRIPOS>ATOM
     1 Fe1      2.1087   7.1096   4.8056   Fe        1 RES1   0.0000
     2 P1       0.8389   6.3939   3.2916   P.3       1 RES1   0.0000
     3 P2       3.3725   8.5446   5.7192   P.3       1 RES1   0.0000
     4 O1       0.2858   7.3932   2.1671   O.3       1 RES1   0.0000
     5 O2       1.5317   5.3109   2.3152   O.3       1 RES1   0.0000
     6 O3      -0.5994   5.7203   3.6349   O.3       1 RES1   0.0000
     7 O4       2.8404   9.4199   6.9560   O.3       1 RES1   0.0000
     8 O5       4.6315   7.8541   6.4227   O.3       1 RES1   0.0000
     9 O6       4.0488   9.7565   4.9114   O.3       1 RES1   0.0000
    10 O7       0.7670   6.3074   7.2823   O.2       1 RES1   0.0000
    11 O8       4.2063   5.0929   4.5375   O.2       1 RES1   0.0000
    12 C1       0.0393   8.7472   2.3106   C.ar      1 RES1   0.0000
    13 C2      -1.1737   9.1696   2.8284   C.ar      1 RES1   0.0000
    14 C3      -1.4716  10.5289   2.8389   C.ar      1 RES1   0.0000
    15 C4      -0.5540  11.4486   2.3445   C.ar      1 RES1   0.0000
    16 C5       0.6669  11.0045   1.8419   C.ar      1 RES1   0.0000
    17 C6       0.9723   9.6485   1.8234   C.ar      1 RES1   0.0000
    18 C7       1.0826   5.0387   1.0233   C.ar      1 RES1   0.0000
    19 C8       1.7302   5.6655  -0.0344   C.ar      1 RES1   0.0000
    20 C9       1.3245   5.3743  -1.3331   C.ar      1 RES1   0.0000
    21 C10      0.2810   4.4813  -1.5642   C.ar      1 RES1   0.0000
    22 C11     -0.3450   3.8666  -0.4896   C.ar      1 RES1   0.0000
    23 C12      0.0604   4.1330   0.8156   C.ar      1 RES1   0.0000
    24 C13     -0.7895   4.7070   4.5634   C.ar      1 RES1   0.0000
    25 C14     -1.9970   4.7138   5.2494   C.ar      1 RES1   0.0000
    26 C15     -2.2734   3.6964   6.1557   C.ar      1 RES1   0.0000
    27 C16     -1.3529   2.6810   6.3846   C.ar      1 RES1   0.0000
    28 C17     -0.1519   2.6843   5.6916   C.ar      1 RES1   0.0000
    29 C18      0.1387   3.6946   4.7710   C.ar      1 RES1   0.0000
    30 C19      2.0335  10.5402   6.9200   C.ar      1 RES1   0.0000
    31 C20      1.9018  11.2101   8.1300   C.ar      1 RES1   0.0000
    32 C21      1.0879  12.3338   8.2023   C.ar      1 RES1   0.0000
    33 C22      0.4145  12.7896   7.0744   C.ar      1 RES1   0.0000
    34 C23      0.5670  12.1157   5.8690   C.ar      1 RES1   0.0000
    35 C24      1.3798  10.9880   5.7785   C.ar      1 RES1   0.0000
    36 C25      5.7204   8.5406   6.9637   C.ar      1 RES1   0.0000
    37 C26      6.9074   8.5158   6.2580   C.ar      1 RES1   0.0000
    38 C27      8.0412   9.0843   6.8225   C.ar      1 RES1   0.0000
    39 C28      7.9808   9.6612   8.0803   C.ar      1 RES1   0.0000
    40 C29      6.7773   9.6822   8.7729   C.ar      1 RES1   0.0000
    41 C30      5.6300   9.1207   8.2167   C.ar      1 RES1   0.0000
    42 C31      4.2921   9.9053   3.5630   C.ar      1 RES1   0.0000
    43 C32      4.8162   8.8801   2.7823   C.ar      1 RES1   0.0000
    44 C33      5.0584   9.1254   1.4345   C.ar      1 RES1   0.0000
    45 C34      4.7982  10.3725   0.8813   C.ar      1 RES1   0.0000
    46 C35      4.2902  11.3896   1.6823   C.ar      1 RES1   0.0000
    47 C36      4.0366  11.1625   3.0331   C.ar      1 RES1   0.0000
    48 C37      1.2945   6.5915   6.3130   C.1       1 RES1   0.0000
    49 C38      3.3680   5.8597   4.6621   C.1       1 RES1   0.0000
    50 H1       1.1274   8.2724   4.7756   H         1 RES1   0.0000
    51 H2       2.6234   7.7933   3.5702   H         1 RES1   0.0000
    52 H3      -1.8731   8.4295   3.2044   H         1 RES1   0.0000
    53 H4      -2.4339  10.8750   3.2257   H         1 RES1   0.0000
    54 H5      -0.7945  12.5113   2.3168   H         1 RES1   0.0000
    55 H6       1.3917  11.7366   1.4469   H         1 RES1   0.0000
    56 H7       1.9231   9.3061   1.4060   H         1 RES1   0.0000
    57 H8       2.5508   6.3674   0.1917   H         1 RES1   0.0000
    58 H9       1.8189   5.8258  -2.1801   H         1 RES1   0.0000
    59 H10     -0.0225   4.2846  -2.5831   H         1 RES1   0.0000
    60 H11     -1.1595   3.1608  -0.6746   H         1 RES1   0.0000
    61 H12     -0.3924   3.6362   1.6439   H         1 RES1   0.0000
    62 H13     -2.6779   5.5255   5.0614   H         1 RES1   0.0000
    63 H14     -3.2154   3.6874   6.6840   H         1 RES1   0.0000
    64 H15     -1.5890   1.8797   7.0924   H         1 RES1   0.0000
    65 H16      0.5795   1.8887   5.8443   H         1 RES1   0.0000
    66 H17      1.0524   3.6766   4.1880   H         1 RES1   0.0000
    67 H18      2.4616  10.8338   8.9884   H         1 RES1   0.0000
    68 H19      0.9964  12.8240   9.1464   H         1 RES1   0.0000
    69 H20     -0.2036  13.6738   7.1403   H         1 RES1   0.0000
    70 H21      0.0466  12.4656   4.9797   H         1 RES1   0.0000
    71 H22      1.4617  10.4811   4.8111   H         1 RES1   0.0000
    72 H23      6.9349   8.0217   5.2745   H         1 RES1   0.0000
    73 H24      8.9577   9.0574   6.2544   H         1 RES1   0.0000
    74 H25      8.8921  10.0798   8.5375   H         1 RES1   0.0000
    75 H26      6.7151  10.1351   9.7678   H         1 RES1   0.0000
    76 H27      4.6924   9.1503   8.7487   H         1 RES1   0.0000
    77 H28      5.0253   7.8730   3.2027   H         1 RES1   0.0000
    78 H29      5.4549   8.3100   0.8184   H         1 RES1   0.0000
    79 H30      4.9692  10.5531  -0.1651   H         1 RES1   0.0000
    80 H31      4.0780  12.3629   1.2569   H         1 RES1   0.0000
    81 H32      3.6215  11.9671   3.6554   H         1 RES1   0.0000
@<TRIPOS>BOND
     1     1     2    1
     2     2     4    1
     3     3     1    1
     4     4    12    1
     5     5     2    1
     6     6     2    1
     7     7     3    1
     8     8     3    1
     9     9     3    1
    10    10    48    3
    11    11    49    3
    12    12    13   ar
    13    13    14   ar
    14    14    15   ar
    15    15    16   ar
    16    16    17   ar
    17    17    12   ar
    18    18     5    1
    19    19    18   ar
    20    20    19   ar
    21    21    20   ar
    22    22    21   ar
    23    23    18   ar
    24    24     6    1
    25    25    24   ar
    26    26    25   ar
    27    27    26   ar
    28    28    27   ar
    29    29    24   ar
    30    30     7    1
    31    31    30   ar
    32    32    31   ar
    33    33    32   ar
    34    34    33   ar
    35    35    30   ar
    36    36     8    1
    37    37    36   ar
    38    38    37   ar
    39    39    38   ar
    40    40    39   ar
    41    41    36   ar
    42    42     9    1
    43    43    42   ar
    44    44    43   ar
    45    45    44   ar
    46    46    45   ar
    47    47    42   ar
    48    48     1    1
    49    49     1    1
    50    50     1    1
    51    51     1    1
    52    52    13    1
    53    53    14    1
    54    54    15    1
    55    55    16    1
    56    56    17    1
    57    57    19    1
    58    58    20    1
    59    59    21    1
    60    60    22    1
    61    61    23    1
    62    62    25    1
    63    63    26    1
    64    64    27    1
    65    65    28    1
    66    66    29    1
    67    67    31    1
    68    68    32    1
    69    69    33    1
    70    70    34    1
    71    71    35    1
    72    72    37    1
    73    73    38    1
    74    74    39    1
    75    75    40    1
    76    76    41    1
    77    77    43    1
    78    78    44    1
    79    79    45    1
    80    80    46    1
    81    81    47    1
    82    22    23   ar
    83    28    29   ar
    84    34    35   ar
    85    40    41   ar
    86    46    47   ar
@<TRIPOS>SUBSTRUCTURE
     1 RES1        1 GROUP             0 ****  ****    0  
@<TRIPOS>CRYSIN
    9.6397   10.4410   18.3810  102.1480   94.6670  107.4020     2     1
