@<TRIPOS>MOLECULE
QOSZON44
    81    86     1     0     0
SMALL
NO_CHARGES
****
Generated from the CSD

@<TRIPOS>ATOM
     1 Fe1      2.1087   7.1097   4.8053   Fe        1 RES1   0.0000
     2 P1       0.8391   6.3942   3.2918   P.3       1 RES1   0.0000
     3 P2       3.3724   8.5444   5.7190   P.3       1 RES1   0.0000
     4 O1       0.2863   7.3929   2.1668   O.3       1 RES1   0.0000
     5 O2       1.5313   5.3105   2.3154   O.3       1 RES1   0.0000
     6 O3      -0.6002   5.7209   3.6346   O.3       1 RES1   0.0000
     7 O4       2.8405   9.4198   6.9566   O.3       1 RES1   0.0000
     8 O5       4.6320   7.8536   6.4231   O.3       1 RES1   0.0000
     9 O6       4.0491   9.7565   4.9112   O.3       1 RES1   0.0000
    10 O7       0.7668   6.3076   7.2827   O.2       1 RES1   0.0000
    11 O8       4.2071   5.0921   4.5375   O.2       1 RES1   0.0000
    12 C1       0.0391   8.7466   2.3104   C.ar      1 RES1   0.0000
    13 C2      -1.1742   9.1687   2.8284   C.ar      1 RES1   0.0000
    14 C3      -1.4723  10.5283   2.8391   C.ar      1 RES1   0.0000
    15 C4      -0.5547  11.4488   2.3447   C.ar      1 RES1   0.0000
    16 C5       0.6669  11.0052   1.8421   C.ar      1 RES1   0.0000
    17 C6       0.9726   9.6476   1.8240   C.ar      1 RES1   0.0000
    18 C7       1.0825   5.0386   1.0236   C.ar      1 RES1   0.0000
    19 C8       1.7303   5.6660  -0.0343   C.ar      1 RES1   0.0000
    20 C9       1.3245   5.3760  -1.3334   C.ar      1 RES1   0.0000
    21 C10      0.2805   4.4808  -1.5642   C.ar      1 RES1   0.0000
    22 C11     -0.3449   3.8661  -0.4895   C.ar      1 RES1   0.0000
    23 C12      0.0604   4.1330   0.8161   C.ar      1 RES1   0.0000
    24 C13     -0.7896   4.7071   4.5631   C.ar      1 RES1   0.0000
    25 C14     -1.9970   4.7139   5.2496   C.ar      1 RES1   0.0000
    26 C15     -2.2746   3.6959   6.1561   C.ar      1 RES1   0.0000
    27 C16     -1.3524   2.6802   6.3854   C.ar      1 RES1   0.0000
    28 C17     -0.1516   2.6848   5.6913   C.ar      1 RES1   0.0000
    29 C18      0.1388   3.6939   4.7708   C.ar      1 RES1   0.0000
    30 C19      2.0329  10.5395   6.9209   C.ar      1 RES1   0.0000
    31 C20      1.9018  11.2090   8.1299   C.ar      1 RES1   0.0000
    32 C21      1.0878  12.3343   8.2025   C.ar      1 RES1   0.0000
    33 C22      0.4139  12.7894   7.0737   C.ar      1 RES1   0.0000
    34 C23      0.5671  12.1163   5.8683   C.ar      1 RES1   0.0000
    35 C24      1.3799  10.9872   5.7776   C.ar      1 RES1   0.0000
    36 C25      5.7191   8.5402   6.9638   C.ar      1 RES1   0.0000
    37 C26      6.9067   8.5144   6.2569   C.ar      1 RES1   0.0000
    38 C27      8.0423   9.0848   6.8204   C.ar      1 RES1   0.0000
    39 C28      7.9816   9.6621   8.0809   C.ar      1 RES1   0.0000
    40 C29      6.7765   9.6826   8.7731   C.ar      1 RES1   0.0000
    41 C30      5.6295   9.1208   8.2176   C.ar      1 RES1   0.0000
    42 C31      4.2924   9.9061   3.5641   C.ar      1 RES1   0.0000
    43 C32      4.8169   8.8796   2.7821   C.ar      1 RES1   0.0000
    44 C33      5.0571   9.1241   1.4341   C.ar      1 RES1   0.0000
    45 C34      4.7979  10.3724   0.8806   C.ar      1 RES1   0.0000
    46 C35      4.2897  11.3900   1.6823   C.ar      1 RES1   0.0000
    47 C36      4.0361  11.1628   3.0335   C.ar      1 RES1   0.0000
    48 C37      1.2940   6.5916   6.3134   C.1       1 RES1   0.0000
    49 C38      3.3690   5.8597   4.6616   C.1       1 RES1   0.0000
    50 H1       1.1302   8.2683   4.7720   H         1 RES1   0.0000
    51 H2       2.6139   7.7998   3.5684   H         1 RES1   0.0000
    52 H3      -1.8762   8.4290   3.2062   H         1 RES1   0.0000
    53 H4      -2.4619  10.8777   3.2151   H         1 RES1   0.0000
    54 H5      -0.7969  12.5177   2.3310   H         1 RES1   0.0000
    55 H6       1.3862  11.7375   1.4433   H         1 RES1   0.0000
    56 H7       1.9327   9.3061   1.4060   H         1 RES1   0.0000
    57 H8       2.5514   6.3665   0.1953   H         1 RES1   0.0000
    58 H9       1.8388   5.8276  -2.1872   H         1 RES1   0.0000
    59 H10     -0.0125   4.2859  -2.5884   H         1 RES1   0.0000
    60 H11     -1.1724   3.1703  -0.6728   H         1 RES1   0.0000
    61 H12     -0.4067   3.6367   1.6422   H         1 RES1   0.0000
    62 H13     -2.6818   5.5332   5.0703   H         1 RES1   0.0000
    63 H14     -3.2225   3.6788   6.6787   H         1 RES1   0.0000
    64 H15     -1.5994   1.8774   7.1012   H         1 RES1   0.0000
    65 H16      0.5725   1.8774   5.8497   H         1 RES1   0.0000
    66 H17      1.0531   3.6874   4.1809   H         1 RES1   0.0000
    67 H18      2.4667  10.8315   8.9973   H         1 RES1   0.0000
    68 H19      1.0059  12.8235   9.1482   H         1 RES1   0.0000
    69 H20     -0.2045  13.6711   7.1510   H         1 RES1   0.0000
    70 H21      0.0380  12.4637   4.9833   H         1 RES1   0.0000
    71 H22      1.4577  10.4912   4.7987   H         1 RES1   0.0000
    72 H23      6.9229   8.0340   5.2656   H         1 RES1   0.0000
    73 H24      8.9661   9.0592   6.2473   H         1 RES1   0.0000
    74 H25      8.9033  10.0894   8.5392   H         1 RES1   0.0000
    75 H26      6.7300  10.1333   9.7749   H         1 RES1   0.0000
    76 H27      4.6911   9.1475   8.7558   H         1 RES1   0.0000
    77 H28      5.0275   7.8701   3.2062   H         1 RES1   0.0000
    78 H29      5.4455   8.3104   0.8166   H         1 RES1   0.0000
    79 H30      4.9714  10.5540  -0.1687   H         1 RES1   0.0000
    80 H31      4.0838  12.3629   1.2569   H         1 RES1   0.0000
    81 H32      3.6282  11.9737   3.6607   H         1 RES1   0.0000
@<TRIPOS>BOND
     1     1     2    1
     2     2     4    1
     3     3     1    1
     4     4    12    1
     5     5     2    1
     6     6     2    1
     7     7     3    1
     8     8     3    1
     9     9     3    1
    10    10    48    3
    11    11    49    3
    12    12    13   ar
    13    13    14   ar
    14    14    15   ar
    15    15    16   ar
    16    16    17   ar
    17    17    12   ar
    18    18     5    1
    19    19    18   ar
    20    20    19   ar
    21    21    20   ar
    22    22    21   ar
    23    23    18   ar
    24    24     6    1
    25    25    24   ar
    26    26    25   ar
    27    27    26   ar
    28    28    27   ar
    29    29    24   ar
    30    30     7    1
    31    31    30   ar
    32    32    31   ar
    33    33    32   ar
    34    34    33   ar
    35    35    30   ar
    36    36     8    1
    37    37    36   ar
    38    38    37   ar
    39    39    38   ar
    40    40    39   ar
    41    41    36   ar
    42    42     9    1
    43    43    42   ar
    44    44    43   ar
    45    45    44   ar
    46    46    45   ar
    47    47    42   ar
    48    48     1    1
    49    49     1    1
    50    50     1    1
    51    51     1    1
    52    52    13    1
    53    53    14    1
    54    54    15    1
    55    55    16    1
    56    56    17    1
    57    57    19    1
    58    58    20    1
    59    59    21    1
    60    60    22    1
    61    61    23    1
    62    62    25    1
    63    63    26    1
    64    64    27    1
    65    65    28    1
    66    66    29    1
    67    67    31    1
    68    68    32    1
    69    69    33    1
    70    70    34    1
    71    71    35    1
    72    72    37    1
    73    73    38    1
    74    74    39    1
    75    75    40    1
    76    76    41    1
    77    77    43    1
    78    78    44    1
    79    79    45    1
    80    80    46    1
    81    81    47    1
    82    22    23   ar
    83    28    29   ar
    84    34    35   ar
    85    40    41   ar
    86    46    47   ar
@<TRIPOS>SUBSTRUCTURE
     1 RES1        1 GROUP             0 ****  ****    0  
@<TRIPOS>CRYSIN
    9.6397   10.4410   18.3810  102.1480   94.6670  107.4020     2     1
