@<TRIPOS>MOLECULE
QOSZOQ
    99   107     3     0     0
SMALL
USER_CHARGES
****
Generated from the CSD

@<TRIPOS>ATOM
     1 Fe1      0.0000   8.1375   0.0000   Fe        1 RES1   2.0000
     2 O1       0.1551   8.6309   1.8130   O.3       1 RES1   0.0000
     3 N1       1.2904   9.5373  -0.4806   N.ar      1 RES1   0.0000
     4 C1       1.1098  10.3704  -1.5256   C.ar      1 RES1   0.0000
     5 H1       0.3478  10.2581  -2.0810   H         1 RES1   0.0000
     6 O2       3.5918   9.0239   2.2349   O.3       1 RES1   0.0000
     7 N2       1.5291   6.8910   0.1595   N.ar      1 RES1   0.0000
     8 C2       2.0013  11.3796  -1.8095   C.ar      1 RES1   0.0000
     9 H2       1.8551  11.9490  -2.5550   H         1 RES1   0.0000
    10 N3       1.3627   8.6927   2.2935   N.3       1 RES1   0.0000
    11 C3       3.1094  11.5602  -1.0043   C.ar      1 RES1   0.0000
    12 H3       3.7294  12.2566  -1.1870   H         1 RES1   0.0000
    13 C4       3.3036  10.7125   0.0716   C.ar      1 RES1   0.0000
    14 H4       4.0538  10.8147   0.6443   H         1 RES1   0.0000
    15 C5       2.3758   9.7142   0.2897   C.ar      1 RES1   0.0000
    16 C6       2.5292   8.6932   1.3924   C.3       1 RES1   0.0000
    17 C7       2.6366   7.3012   0.8046   C.ar      1 RES1   0.0000
    18 C8       3.7721   6.5329   0.9241   C.ar      1 RES1   0.0000
    19 H5       4.5402   6.8648   1.3739   H         1 RES1   0.0000
    20 C9       3.7657   5.2628   0.3718   C.ar      1 RES1   0.0000
    21 H6       4.5312   4.7034   0.4395   H         1 RES1   0.0000
    22 C10      2.6296   4.8223  -0.2784   C.ar      1 RES1   0.0000
    23 H7       2.6015   3.9515  -0.6578   H         1 RES1   0.0000
    24 C11      1.5357   5.6563  -0.3714   C.ar      1 RES1   0.0000
    25 H8       0.7613   5.3479  -0.8252   H         1 RES1   0.0000
    26 C12      3.1646   8.8409   3.6019   C.3       1 RES1   0.0000
    27 H9       3.6841   9.4232   4.2114   H         1 RES1   0.0000
    28 H10      3.2865   7.8982   3.8825   H         1 RES1   0.0000
    29 C13      1.6853   9.2235   3.6218   C.3       1 RES1   0.0000
    30 C14      1.4535  10.7263   3.6551   C.3       1 RES1   0.0000
    31 H11      1.9786  11.1532   2.9451   H         1 RES1   0.0000
    32 H12      1.7328  11.0800   4.5254   H         1 RES1   0.0000
    33 H13      0.5011  10.9139   3.5162   H         1 RES1   0.0000
    34 C15      0.8988   8.4948   4.6949   C.3       1 RES1   0.0000
    35 H14     -0.0555   8.6989   4.5956   H         1 RES1   0.0000
    36 H15      1.2043   8.7868   5.5793   H         1 RES1   0.0000
    37 H16      1.0377   7.5288   4.6031   H         1 RES1   0.0000
    38 O1D     -0.1551   7.6440  -1.8130   O.3       1 RES1   0.0000
    39 N1D     -1.2904   6.7376   0.4806   N.ar      1 RES1   0.0000
    40 C1D     -1.1098   5.9045   1.5256   C.ar      1 RES1   0.0000
    41 H1D     -0.3478   6.0168   2.0810   H         1 RES1   0.0000
    42 O2D     -3.5918   7.2510  -2.2349   O.3       1 RES1   0.0000
    43 N2D     -1.5291   9.3839  -0.1595   N.ar      1 RES1   0.0000
    44 C2D     -2.0013   4.8953   1.8095   C.ar      1 RES1   0.0000
    45 H2D     -1.8551   4.3259   2.5550   H         1 RES1   0.0000
    46 N3D     -1.3627   7.5822  -2.2935   N.3       1 RES1   0.0000
    47 C3D     -3.1094   4.7147   1.0043   C.ar      1 RES1   0.0000
    48 H3D     -3.7294   4.0183   1.1870   H         1 RES1   0.0000
    49 C4D     -3.3036   5.5624  -0.0716   C.ar      1 RES1   0.0000
    50 H4D     -4.0538   5.4602  -0.6443   H         1 RES1   0.0000
    51 C5D     -2.3758   6.5607  -0.2897   C.ar      1 RES1   0.0000
    52 C6D     -2.5292   7.5817  -1.3924   C.3       1 RES1   0.0000
    53 C7D     -2.6366   8.9737  -0.8046   C.ar      1 RES1   0.0000
    54 C8D     -3.7721   9.7420  -0.9241   C.ar      1 RES1   0.0000
    55 H5D     -4.5402   9.4101  -1.3739   H         1 RES1   0.0000
    56 C9D     -3.7657  11.0121  -0.3718   C.ar      1 RES1   0.0000
    57 H6D     -4.5312  11.5715  -0.4395   H         1 RES1   0.0000
    58 C10D    -2.6296  11.4526   0.2784   C.ar      1 RES1   0.0000
    59 H7D     -2.6015  12.3234   0.6578   H         1 RES1   0.0000
    60 C11D    -1.5357  10.6186   0.3714   C.ar      1 RES1   0.0000
    61 H8D     -0.7613  10.9270   0.8252   H         1 RES1   0.0000
    62 C12D    -3.1646   7.4340  -3.6019   C.3       1 RES1   0.0000
    63 H9D     -3.6841   6.8517  -4.2114   H         1 RES1   0.0000
    64 H10D    -3.2865   8.3767  -3.8825   H         1 RES1   0.0000
    65 C13D    -1.6853   7.0514  -3.6218   C.3       1 RES1   0.0000
    66 C14D    -1.4535   5.5486  -3.6551   C.3       1 RES1   0.0000
    67 H11D    -1.9786   5.1217  -2.9451   H         1 RES1   0.0000
    68 H12D    -1.7328   5.1949  -4.5254   H         1 RES1   0.0000
    69 H13D    -0.5011   5.3610  -3.5162   H         1 RES1   0.0000
    70 C15D    -0.8988   7.7801  -4.6949   C.3       1 RES1   0.0000
    71 H14D     0.0555   7.5760  -4.5956   H         1 RES1   0.0000
    72 H15D    -1.2043   7.4881  -5.5793   H         1 RES1   0.0000
    73 H16D    -1.0377   8.7461  -4.6031   H         1 RES1   0.0000
    74 F1      12.4143  10.2215   1.0800   F         2 RES2   0.0000
    75 F2      12.5913   5.5094   1.5327   F         2 RES2   0.0000
    76 F3       9.8784  10.1730   1.6182   F         2 RES2   0.0000
    77 F4      10.0520   5.4731   2.1163   F         2 RES2   0.0000
    78 N4      15.4131  10.0709   0.8076   N.1       2 RES2   0.0000
    79 N5      15.5605   5.8389   0.7979   N.1       2 RES2   0.0000
    80 N6       7.0199   9.9018   2.7197   N.1       2 RES2   0.0000
    81 N7       6.9416   5.7543   2.4987   N.1       2 RES2   0.0000
    82 C16     14.7704   9.1162   0.8586   C.1       2 RES2   0.0000
    83 C17     14.8531   6.7367   0.8750   C.1       2 RES2   0.0000
    84 C18     14.0407   7.9016   0.9656   C.2       2 RES2  -1.0000
    85 C19     12.6594   7.8673   1.2782   C.ar      2 RES2   0.0000
    86 C20     11.8603   9.0290   1.3459   C.ar      2 RES2   0.0000
    87 C21     11.9427   6.6781   1.5521   C.ar      2 RES2   0.0000
    88 C22     10.5359   9.0041   1.6275   C.ar      2 RES2   0.0000
    89 C23     10.6161   6.6612   1.8466   C.ar      2 RES2   0.0000
    90 C24      9.8136   7.8224   1.9028   C.ar      2 RES2   0.0000
    91 C25      8.4288   7.8201   2.1846   C.2       2 RES2   0.0000
    92 C26      7.6823   9.0051   2.4546   C.1       2 RES2   0.0000
    93 C27      7.6520   6.6419   2.3593   C.1       2 RES2   0.0000
    94 N8       1.6461   5.3743   3.2775   N.1       3 RES3   0.0000
    95 C28      3.7960   4.0513   3.7510   C.3       3 RES3   0.0000
    96 H17      4.0580   3.5577   2.9451   H         3 RES3   0.0000
    97 H18      3.6492   3.4210   4.4865   H         3 RES3   0.0000
    98 H19      4.5080   4.6790   3.9946   H         3 RES3   0.0000
    99 C29      2.5827   4.7788   3.4940   C.1       3 RES3   0.0000
@<TRIPOS>BOND
     1     1     2    1
     2     2    10    1
     3     3     1    1
     4     4     3   ar
     5     5     4    1
     6     6    16    1
     7     7     1    1
     8     8     4   ar
     9     9     8    1
    10    10    16    1
    11    11     8   ar
    12    12    11    1
    13    13    11   ar
    14    14    13    1
    15    15     3   ar
    16    16    15    1
    17    17     7   ar
    18    18    17   ar
    19    19    18    1
    20    20    18   ar
    21    21    20    1
    22    22    20   ar
    23    23    22    1
    24    24     7   ar
    25    25    24    1
    26    26     6    1
    27    27    26    1
    28    28    26    1
    29    29    10    1
    30    30    29    1
    31    31    30    1
    32    32    30    1
    33    33    30    1
    34    34    29    1
    35    35    34    1
    36    36    34    1
    37    37    34    1
    38    38     1    1
    39    39     1    1
    40    40    39   ar
    41    41    40    1
    42    42    52    1
    43    43     1    1
    44    44    40   ar
    45    45    44    1
    46    46    38    1
    47    47    44   ar
    48    48    47    1
    49    49    47   ar
    50    50    49    1
    51    51    39   ar
    52    52    46    1
    53    53    43   ar
    54    54    53   ar
    55    55    54    1
    56    56    54   ar
    57    57    56    1
    58    58    56   ar
    59    59    58    1
    60    60    43   ar
    61    61    60    1
    62    62    42    1
    63    63    62    1
    64    64    62    1
    65    65    46    1
    66    66    65    1
    67    67    66    1
    68    68    66    1
    69    69    66    1
    70    70    65    1
    71    71    70    1
    72    72    70    1
    73    73    70    1
    74    13    15   ar
    75    16    17    1
    76    22    24   ar
    77    26    29    1
    78    49    51   ar
    79    51    52    1
    80    52    53    1
    81    58    60   ar
    82    62    65    1
    83    74    86    1
    84    75    87    1
    85    76    88    1
    86    77    89    1
    87    78    82    3
    88    79    83    3
    89    80    92    3
    90    81    93    3
    91    82    84    1
    92    83    84    1
    93    84    85    1
    94    85    86   ar
    95    86    88   ar
    96    87    85   ar
    97    88    90   ar
    98    89    87   ar
    99    90    89   ar
   100    91    90    1
   101    92    91    1
   102    93    91    1
   103    94    99    3
   104    95    96    1
   105    97    95    1
   106    98    95    1
   107    99    95    1
@<TRIPOS>SUBSTRUCTURE
     1 RES1        1 GROUP             0 ****  ****    0  
     2 RES2       74 GROUP             0 ****  ****    0  
     3 RES3       94 GROUP             0 ****  ****    0  
@<TRIPOS>CRYSIN
   21.9574   16.2749   15.7265   90.0000  108.0800   90.0000    15     1
