@<TRIPOS>MOLECULE
QOSZON05
    81    86     1     0     0
SMALL
NO_CHARGES
****
Generated from the CSD

@<TRIPOS>ATOM
     1 Fe1      2.1087   7.1098   4.8056   Fe        1 RES1   0.0000
     2 P1       0.8383   6.3940   3.2916   P.3       1 RES1   0.0000
     3 P2       3.3729   8.5446   5.7193   P.3       1 RES1   0.0000
     4 O1       0.2853   7.3932   2.1673   O.3       1 RES1   0.0000
     5 O2       1.5324   5.3107   2.3145   O.3       1 RES1   0.0000
     6 O3      -0.5988   5.7203   3.6353   O.3       1 RES1   0.0000
     7 O4       2.8407   9.4205   6.9562   O.3       1 RES1   0.0000
     8 O5       4.6310   7.8548   6.4227   O.3       1 RES1   0.0000
     9 O6       4.0481   9.7566   4.9112   O.3       1 RES1   0.0000
    10 O7       0.7665   6.3094   7.2829   O.2       1 RES1   0.0000
    11 O8       4.2060   5.0927   4.5373   O.2       1 RES1   0.0000
    12 C1       0.0399   8.7473   2.3109   C.ar      1 RES1   0.0000
    13 C2      -1.1737   9.1704   2.8279   C.ar      1 RES1   0.0000
    14 C3      -1.4729  10.5284   2.8400   C.ar      1 RES1   0.0000
    15 C4      -0.5549  11.4487   2.3443   C.ar      1 RES1   0.0000
    16 C5       0.6674  11.0054   1.8415   C.ar      1 RES1   0.0000
    17 C6       0.9714   9.6493   1.8229   C.ar      1 RES1   0.0000
    18 C7       1.0821   5.0391   1.0252   C.ar      1 RES1   0.0000
    19 C8       1.7306   5.6660  -0.0355   C.ar      1 RES1   0.0000
    20 C9       1.3260   5.3739  -1.3338   C.ar      1 RES1   0.0000
    21 C10      0.2806   4.4817  -1.5656   C.ar      1 RES1   0.0000
    22 C11     -0.3458   3.8649  -0.4893   C.ar      1 RES1   0.0000
    23 C12      0.0600   4.1329   0.8158   C.ar      1 RES1   0.0000
    24 C13     -0.7895   4.7076   4.5636   C.ar      1 RES1   0.0000
    25 C14     -1.9969   4.7144   5.2496   C.ar      1 RES1   0.0000
    26 C15     -2.2724   3.6970   6.1568   C.ar      1 RES1   0.0000
    27 C16     -1.3531   2.6803   6.3856   C.ar      1 RES1   0.0000
    28 C17     -0.1514   2.6837   5.6909   C.ar      1 RES1   0.0000
    29 C18      0.1392   3.6935   4.7711   C.ar      1 RES1   0.0000
    30 C19      2.0348  10.5403   6.9187   C.ar      1 RES1   0.0000
    31 C20      1.9017  11.2105   8.1297   C.ar      1 RES1   0.0000
    32 C21      1.0878  12.3337   8.2026   C.ar      1 RES1   0.0000
    33 C22      0.4149  12.7894   7.0744   C.ar      1 RES1   0.0000
    34 C23      0.5666  12.1172   5.8688   C.ar      1 RES1   0.0000
    35 C24      1.3802  10.9888   5.7785   C.ar      1 RES1   0.0000
    36 C25      5.7204   8.5406   6.9624   C.ar      1 RES1   0.0000
    37 C26      6.9078   8.5183   6.2594   C.ar      1 RES1   0.0000
    38 C27      8.0407   9.0823   6.8243   C.ar      1 RES1   0.0000
    39 C28      7.9820   9.6601   8.0803   C.ar      1 RES1   0.0000
    40 C29      6.7764   9.6819   8.7731   C.ar      1 RES1   0.0000
    41 C30      5.6306   9.1213   8.2158   C.ar      1 RES1   0.0000
    42 C31      4.2917   9.9047   3.5636   C.ar      1 RES1   0.0000
    43 C32      4.8166   8.8811   2.7819   C.ar      1 RES1   0.0000
    44 C33      5.0593   9.1254   1.4355   C.ar      1 RES1   0.0000
    45 C34      4.7983  10.3735   0.8813   C.ar      1 RES1   0.0000
    46 C35      4.2901  11.3892   1.6828   C.ar      1 RES1   0.0000
    47 C36      4.0374  11.1619   3.0326   C.ar      1 RES1   0.0000
    48 C37      1.2942   6.5907   6.3134   C.1       1 RES1   0.0000
    49 C38      3.3680   5.8593   4.6623   C.1       1 RES1   0.0000
    50 H1       1.1184   8.2520   4.7578   H         1 RES1   0.0000
    51 H2       2.6187   7.7655   3.5932   H         1 RES1   0.0000
    52 H3      -1.8772   8.4530   3.1902   H         1 RES1   0.0000
    53 H4      -2.4144  10.8854   3.2630   H         1 RES1   0.0000
    54 H5      -0.7896  12.5068   2.2955   H         1 RES1   0.0000
    55 H6       1.4066  11.7407   1.4309   H         1 RES1   0.0000
    56 H7       1.9106   9.2984   1.3972   H         1 RES1   0.0000
    57 H8       2.5620   6.3801   0.1811   H         1 RES1   0.0000
    58 H9       1.8106   5.8589  -2.1925   H         1 RES1   0.0000
    59 H10     -0.0479   4.3050  -2.5849   H         1 RES1   0.0000
    60 H11     -1.1528   3.1422  -0.6799   H         1 RES1   0.0000
    61 H12     -0.3798   3.6734   1.6546   H         1 RES1   0.0000
    62 H13     -2.6765   5.5345   5.0650   H         1 RES1   0.0000
    63 H14     -3.2239   3.7005   6.7107   H         1 RES1   0.0000
    64 H15     -1.5795   1.8734   7.1172   H         1 RES1   0.0000
    65 H16      0.5895   1.8851   5.8195   H         1 RES1   0.0000
    66 H17      1.0540   3.6629   4.1986   H         1 RES1   0.0000
    67 H18      2.4584  10.8260   8.9760   H         1 RES1   0.0000
    68 H19      0.9968  12.8543   9.1446   H         1 RES1   0.0000
    69 H20     -0.2129  13.6747   7.1368   H         1 RES1   0.0000
    70 H21      0.0413  12.4613   4.9851   H         1 RES1   0.0000
    71 H22      1.4651  10.4719   4.8200   H         1 RES1   0.0000
    72 H23      6.9533   8.0055   5.2993   H         1 RES1   0.0000
    73 H24      8.9608   9.0519   6.2757   H         1 RES1   0.0000
    74 H25      8.9140  10.0681   8.5446   H         1 RES1   0.0000
    75 H26      6.7101  10.1268   9.7731   H         1 RES1   0.0000
    76 H27      4.6813   9.1680   8.7416   H         1 RES1   0.0000
    77 H28      5.0323   7.9029   3.2027   H         1 RES1   0.0000
    78 H29      5.4585   8.3014   0.8131   H         1 RES1   0.0000
    79 H30      4.9667  10.5681  -0.1846   H         1 RES1   0.0000
    80 H31      4.0612  12.3429   1.2569   H         1 RES1   0.0000
    81 H32      3.6268  11.9559   3.6447   H         1 RES1   0.0000
@<TRIPOS>BOND
     1     1     2    1
     2     2     4    1
     3     3     1    1
     4     4    12    1
     5     5     2    1
     6     6     2    1
     7     7     3    1
     8     8     3    1
     9     9     3    1
    10    10    48    3
    11    11    49    3
    12    12    13   ar
    13    13    14   ar
    14    14    15   ar
    15    15    16   ar
    16    16    17   ar
    17    17    12   ar
    18    18     5    1
    19    19    18   ar
    20    20    19   ar
    21    21    20   ar
    22    22    21   ar
    23    23    18   ar
    24    24     6    1
    25    25    24   ar
    26    26    25   ar
    27    27    26   ar
    28    28    27   ar
    29    29    24   ar
    30    30     7    1
    31    31    30   ar
    32    32    31   ar
    33    33    32   ar
    34    34    33   ar
    35    35    30   ar
    36    36     8    1
    37    37    36   ar
    38    38    37   ar
    39    39    38   ar
    40    40    39   ar
    41    41    36   ar
    42    42     9    1
    43    43    42   ar
    44    44    43   ar
    45    45    44   ar
    46    46    45   ar
    47    47    42   ar
    48    48     1    1
    49    49     1    1
    50    50     1    1
    51    51     1    1
    52    52    13    1
    53    53    14    1
    54    54    15    1
    55    55    16    1
    56    56    17    1
    57    57    19    1
    58    58    20    1
    59    59    21    1
    60    60    22    1
    61    61    23    1
    62    62    25    1
    63    63    26    1
    64    64    27    1
    65    65    28    1
    66    66    29    1
    67    67    31    1
    68    68    32    1
    69    69    33    1
    70    70    34    1
    71    71    35    1
    72    72    37    1
    73    73    38    1
    74    74    39    1
    75    75    40    1
    76    76    41    1
    77    77    43    1
    78    78    44    1
    79    79    45    1
    80    80    46    1
    81    81    47    1
    82    22    23   ar
    83    28    29   ar
    84    34    35   ar
    85    40    41   ar
    86    46    47   ar
@<TRIPOS>SUBSTRUCTURE
     1 RES1        1 GROUP             0 ****  ****    0  
@<TRIPOS>CRYSIN
    9.6397   10.4410   18.3810  102.1480   94.6670  107.4020     2     1
