@<TRIPOS>MOLECULE
QOSZON17
    81    86     1     0     0
SMALL
NO_CHARGES
****
Generated from the CSD

@<TRIPOS>ATOM
     1 Fe1      2.1087   7.1096   4.8055   Fe        1 RES1   0.0000
     2 P1       0.8388   6.3942   3.2919   P.3       1 RES1   0.0000
     3 P2       3.3726   8.5443   5.7191   P.3       1 RES1   0.0000
     4 O1       0.2859   7.3928   2.1668   O.3       1 RES1   0.0000
     5 O2       1.5320   5.3103   2.3150   O.3       1 RES1   0.0000
     6 O3      -0.5997   5.7208   3.6348   O.3       1 RES1   0.0000
     7 O4       2.8406   9.4200   6.9566   O.3       1 RES1   0.0000
     8 O5       4.6319   7.8543   6.4227   O.3       1 RES1   0.0000
     9 O6       4.0491   9.7568   4.9112   O.3       1 RES1   0.0000
    10 O7       0.7668   6.3077   7.2827   O.2       1 RES1   0.0000
    11 O8       4.2067   5.0925   4.5375   O.2       1 RES1   0.0000
    12 C1       0.0395   8.7467   2.3104   C.ar      1 RES1   0.0000
    13 C2      -1.1741   9.1694   2.8286   C.ar      1 RES1   0.0000
    14 C3      -1.4728  10.5288   2.8393   C.ar      1 RES1   0.0000
    15 C4      -0.5542  11.4493   2.3445   C.ar      1 RES1   0.0000
    16 C5       0.6673  11.0050   1.8419   C.ar      1 RES1   0.0000
    17 C6       0.9727   9.6482   1.8231   C.ar      1 RES1   0.0000
    18 C7       1.0824   5.0390   1.0242   C.ar      1 RES1   0.0000
    19 C8       1.7309   5.6660  -0.0344   C.ar      1 RES1   0.0000
    20 C9       1.3251   5.3749  -1.3331   C.ar      1 RES1   0.0000
    21 C10      0.2803   4.4812  -1.5649   C.ar      1 RES1   0.0000
    22 C11     -0.3453   3.8659  -0.4891   C.ar      1 RES1   0.0000
    23 C12      0.0603   4.1329   0.8159   C.ar      1 RES1   0.0000
    24 C13     -0.7896   4.7076   4.5633   C.ar      1 RES1   0.0000
    25 C14     -1.9972   4.7139   5.2496   C.ar      1 RES1   0.0000
    26 C15     -2.2743   3.6967   6.1561   C.ar      1 RES1   0.0000
    27 C16     -1.3528   2.6805   6.3854   C.ar      1 RES1   0.0000
    28 C17     -0.1513   2.6842   5.6915   C.ar      1 RES1   0.0000
    29 C18      0.1393   3.6942   4.7704   C.ar      1 RES1   0.0000
    30 C19      2.0338  10.5401   6.9200   C.ar      1 RES1   0.0000
    31 C20      1.9022  11.2096   8.1304   C.ar      1 RES1   0.0000
    32 C21      1.0877  12.3345   8.2032   C.ar      1 RES1   0.0000
    33 C22      0.4141  12.7898   7.0746   C.ar      1 RES1   0.0000
    34 C23      0.5668  12.1160   5.8688   C.ar      1 RES1   0.0000
    35 C24      1.3800  10.9873   5.7783   C.ar      1 RES1   0.0000
    36 C25      5.7195   8.5403   6.9635   C.ar      1 RES1   0.0000
    37 C26      6.9072   8.5157   6.2578   C.ar      1 RES1   0.0000
    38 C27      8.0417   9.0836   6.8218   C.ar      1 RES1   0.0000
    39 C28      7.9821   9.6616   8.0805   C.ar      1 RES1   0.0000
    40 C29      6.7764   9.6823   8.7734   C.ar      1 RES1   0.0000
    41 C30      5.6298   9.1209   8.2172   C.ar      1 RES1   0.0000
    42 C31      4.2925   9.9055   3.5638   C.ar      1 RES1   0.0000
    43 C32      4.8167   8.8794   2.7823   C.ar      1 RES1   0.0000
    44 C33      5.0581   9.1250   1.4346   C.ar      1 RES1   0.0000
    45 C34      4.7984  10.3726   0.8804   C.ar      1 RES1   0.0000
    46 C35      4.2898  11.3905   1.6825   C.ar      1 RES1   0.0000
    47 C36      4.0364  11.1627   3.0333   C.ar      1 RES1   0.0000
    48 C37      1.2947   6.5918   6.3127   C.1       1 RES1   0.0000
    49 C38      3.3679   5.8599   4.6620   C.1       1 RES1   0.0000
    50 H1       1.1254   8.2732   4.7685   H         1 RES1   0.0000
    51 H2       2.6210   7.7988   3.5684   H         1 RES1   0.0000
    52 H3      -1.8751   8.4314   3.2009   H         1 RES1   0.0000
    53 H4      -2.4373  10.8840   3.2293   H         1 RES1   0.0000
    54 H5      -0.7951  12.5095   2.3239   H         1 RES1   0.0000
    55 H6       1.3957  11.7371   1.4451   H         1 RES1   0.0000
    56 H7       1.9213   9.3065   1.4043   H         1 RES1   0.0000
    57 H8       2.5528   6.3764   0.1917   H         1 RES1   0.0000
    58 H9       1.8254   5.8358  -2.1801   H         1 RES1   0.0000
    59 H10     -0.0222   4.2855  -2.5866   H         1 RES1   0.0000
    60 H11     -1.1554   3.1617  -0.6782   H         1 RES1   0.0000
    61 H12     -0.3910   3.6423   1.6475   H         1 RES1   0.0000
    62 H13     -2.6828   5.5255   5.0614   H         1 RES1   0.0000
    63 H14     -3.2152   3.6774   6.6840   H         1 RES1   0.0000
    64 H15     -1.5897   1.8774   7.1012   H         1 RES1   0.0000
    65 H16      0.5782   1.8897   5.8443   H         1 RES1   0.0000
    66 H17      1.0583   3.6790   4.1826   H         1 RES1   0.0000
    67 H18      2.4637  10.8323   8.9902   H         1 RES1   0.0000
    68 H19      0.9927  12.8321   9.1535   H         1 RES1   0.0000
    69 H20     -0.2051  13.6720   7.1474   H         1 RES1   0.0000
    70 H21      0.0435  12.4611   4.9780   H         1 RES1   0.0000
    71 H22      1.4578  10.4781   4.8111   H         1 RES1   0.0000
    72 H23      6.9318   8.0213   5.2762   H         1 RES1   0.0000
    73 H24      8.9614   9.0673   6.2544   H         1 RES1   0.0000
    74 H25      8.8997  10.0794   8.5392   H         1 RES1   0.0000
    75 H26      6.7200  10.1313   9.7749   H         1 RES1   0.0000
    76 H27      4.6904   9.1509   8.7541   H         1 RES1   0.0000
    77 H28      5.0265   7.8701   3.2062   H         1 RES1   0.0000
    78 H29      5.4455   8.3104   0.8166   H         1 RES1   0.0000
    79 H30      4.9713  10.5536  -0.1669   H         1 RES1   0.0000
    80 H31      4.0776  12.3527   1.2498   H         1 RES1   0.0000
    81 H32      3.6238  11.9691   3.6554   H         1 RES1   0.0000
@<TRIPOS>BOND
     1     1     2    1
     2     2     4    1
     3     3     1    1
     4     4    12    1
     5     5     2    1
     6     6     2    1
     7     7     3    1
     8     8     3    1
     9     9     3    1
    10    10    48    3
    11    11    49    3
    12    12    13   ar
    13    13    14   ar
    14    14    15   ar
    15    15    16   ar
    16    16    17   ar
    17    17    12   ar
    18    18     5    1
    19    19    18   ar
    20    20    19   ar
    21    21    20   ar
    22    22    21   ar
    23    23    18   ar
    24    24     6    1
    25    25    24   ar
    26    26    25   ar
    27    27    26   ar
    28    28    27   ar
    29    29    24   ar
    30    30     7    1
    31    31    30   ar
    32    32    31   ar
    33    33    32   ar
    34    34    33   ar
    35    35    30   ar
    36    36     8    1
    37    37    36   ar
    38    38    37   ar
    39    39    38   ar
    40    40    39   ar
    41    41    36   ar
    42    42     9    1
    43    43    42   ar
    44    44    43   ar
    45    45    44   ar
    46    46    45   ar
    47    47    42   ar
    48    48     1    1
    49    49     1    1
    50    50     1    1
    51    51     1    1
    52    52    13    1
    53    53    14    1
    54    54    15    1
    55    55    16    1
    56    56    17    1
    57    57    19    1
    58    58    20    1
    59    59    21    1
    60    60    22    1
    61    61    23    1
    62    62    25    1
    63    63    26    1
    64    64    27    1
    65    65    28    1
    66    66    29    1
    67    67    31    1
    68    68    32    1
    69    69    33    1
    70    70    34    1
    71    71    35    1
    72    72    37    1
    73    73    38    1
    74    74    39    1
    75    75    40    1
    76    76    41    1
    77    77    43    1
    78    78    44    1
    79    79    45    1
    80    80    46    1
    81    81    47    1
    82    22    23   ar
    83    28    29   ar
    84    34    35   ar
    85    40    41   ar
    86    46    47   ar
@<TRIPOS>SUBSTRUCTURE
     1 RES1        1 GROUP             0 ****  ****    0  
@<TRIPOS>CRYSIN
    9.6397   10.4410   18.3810  102.1480   94.6670  107.4020     2     1
