@<TRIPOS>MOLECULE
QOSZON13
    81    86     1     0     0
SMALL
NO_CHARGES
****
Generated from the CSD

@<TRIPOS>ATOM
     1 Fe1      2.1087   7.1097   4.8055   Fe        1 RES1   0.0000
     2 P1       0.8389   6.3943   3.2919   P.3       1 RES1   0.0000
     3 P2       3.3725   8.5442   5.7190   P.3       1 RES1   0.0000
     4 O1       0.2859   7.3930   2.1669   O.3       1 RES1   0.0000
     5 O2       1.5320   5.3104   2.3150   O.3       1 RES1   0.0000
     6 O3      -0.5995   5.7207   3.6348   O.3       1 RES1   0.0000
     7 O4       2.8405   9.4199   6.9564   O.3       1 RES1   0.0000
     8 O5       4.6316   7.8543   6.4227   O.3       1 RES1   0.0000
     9 O6       4.0489   9.7568   4.9112   O.3       1 RES1   0.0000
    10 O7       0.7669   6.3076   7.2825   O.2       1 RES1   0.0000
    11 O8       4.2066   5.0927   4.5375   O.2       1 RES1   0.0000
    12 C1       0.0395   8.7472   2.3106   C.ar      1 RES1   0.0000
    13 C2      -1.1738   9.1696   2.8284   C.ar      1 RES1   0.0000
    14 C3      -1.4723  10.5287   2.8391   C.ar      1 RES1   0.0000
    15 C4      -0.5541  11.4490   2.3445   C.ar      1 RES1   0.0000
    16 C5       0.6671  11.0047   1.8421   C.ar      1 RES1   0.0000
    17 C6       0.9727   9.6485   1.8231   C.ar      1 RES1   0.0000
    18 C7       1.0825   5.0386   1.0233   C.ar      1 RES1   0.0000
    19 C8       1.7308   5.6657  -0.0346   C.ar      1 RES1   0.0000
    20 C9       1.3248   5.3746  -1.3331   C.ar      1 RES1   0.0000
    21 C10      0.2805   4.4814  -1.5646   C.ar      1 RES1   0.0000
    22 C11     -0.3452   3.8662  -0.4891   C.ar      1 RES1   0.0000
    23 C12      0.0603   4.1329   0.8156   C.ar      1 RES1   0.0000
    24 C13     -0.7896   4.7072   4.5636   C.ar      1 RES1   0.0000
    25 C14     -1.9971   4.7137   5.2496   C.ar      1 RES1   0.0000
    26 C15     -2.2738   3.6965   6.1557   C.ar      1 RES1   0.0000
    27 C16     -1.3528   2.6808   6.3851   C.ar      1 RES1   0.0000
    28 C17     -0.1516   2.6845   5.6915   C.ar      1 RES1   0.0000
    29 C18      0.1391   3.6943   4.7706   C.ar      1 RES1   0.0000
    30 C19      2.0336  10.5404   6.9198   C.ar      1 RES1   0.0000
    31 C20      1.9019  11.2099   8.1302   C.ar      1 RES1   0.0000
    32 C21      1.0879  12.3342   8.2028   C.ar      1 RES1   0.0000
    33 C22      0.4143  12.7898   7.0746   C.ar      1 RES1   0.0000
    34 C23      0.5670  12.1158   5.8690   C.ar      1 RES1   0.0000
    35 C24      1.3799  10.9877   5.7786   C.ar      1 RES1   0.0000
    36 C25      5.7202   8.5407   6.9638   C.ar      1 RES1   0.0000
    37 C26      6.9072   8.5159   6.2580   C.ar      1 RES1   0.0000
    38 C27      8.0414   9.0839   6.8222   C.ar      1 RES1   0.0000
    39 C28      7.9816   9.6614   8.0803   C.ar      1 RES1   0.0000
    40 C29      6.7766   9.6821   8.7732   C.ar      1 RES1   0.0000
    41 C30      5.6299   9.1208   8.2170   C.ar      1 RES1   0.0000
    42 C31      4.2927   9.9053   3.5629   C.ar      1 RES1   0.0000
    43 C32      4.8166   8.8796   2.7824   C.ar      1 RES1   0.0000
    44 C33      5.0583   9.1251   1.4345   C.ar      1 RES1   0.0000
    45 C34      4.7983  10.3726   0.8809   C.ar      1 RES1   0.0000
    46 C35      4.2899  11.3900   1.6823   C.ar      1 RES1   0.0000
    47 C36      4.0366  11.1627   3.0331   C.ar      1 RES1   0.0000
    48 C37      1.2952   6.5921   6.3116   C.1       1 RES1   0.0000
    49 C38      3.3670   5.8607   4.6623   C.1       1 RES1   0.0000
    50 H1       1.1253   8.2757   4.7703   H         1 RES1   0.0000
    51 H2       2.6229   7.7947   3.5648   H         1 RES1   0.0000
    52 H3      -1.8737   8.4308   3.1991   H         1 RES1   0.0000
    53 H4      -2.4375  10.8836   3.2311   H         1 RES1   0.0000
    54 H5      -0.7940  12.5100   2.3221   H         1 RES1   0.0000
    55 H6       1.3954  11.7321   1.4451   H         1 RES1   0.0000
    56 H7       1.9224   9.3010   1.4025   H         1 RES1   0.0000
    57 H8       2.5553   6.3733   0.1882   H         1 RES1   0.0000
    58 H9       1.8158   5.8358  -2.1801   H         1 RES1   0.0000
    59 H10     -0.0227   4.2860  -2.5849   H         1 RES1   0.0000
    60 H11     -1.1565   3.1612  -0.6764   H         1 RES1   0.0000
    61 H12     -0.3907   3.6413   1.6475   H         1 RES1   0.0000
    62 H13     -2.6847   5.5255   5.0614   H         1 RES1   0.0000
    63 H14     -3.2144   3.6770   6.6858   H         1 RES1   0.0000
    64 H15     -1.5896   1.8779   7.0995   H         1 RES1   0.0000
    65 H16      0.5783   1.8902   5.8425   H         1 RES1   0.0000
    66 H17      1.0579   3.6795   4.1844   H         1 RES1   0.0000
    67 H18      2.4634  10.8303   8.9902   H         1 RES1   0.0000
    68 H19      0.9927  12.8321   9.1535   H         1 RES1   0.0000
    69 H20     -0.2075  13.6744   7.1456   H         1 RES1   0.0000
    70 H21      0.0448  12.4631   4.9780   H         1 RES1   0.0000
    71 H22      1.4599  10.4797   4.8129   H         1 RES1   0.0000
    72 H23      6.9357   8.0213   5.2762   H         1 RES1   0.0000
    73 H24      8.9596   9.0678   6.2526   H         1 RES1   0.0000
    74 H25      8.9005  10.0789   8.5410   H         1 RES1   0.0000
    75 H26      6.7182  10.1317   9.7731   H         1 RES1   0.0000
    76 H27      4.6889   9.1504   8.7523   H         1 RES1   0.0000
    77 H28      5.0282   7.8711   3.2062   H         1 RES1   0.0000
    78 H29      5.4551   8.3104   0.8166   H         1 RES1   0.0000
    79 H30      4.9693  10.5536  -0.1669   H         1 RES1   0.0000
    80 H31      4.0767  12.3568   1.2534   H         1 RES1   0.0000
    81 H32      3.6245  11.9701   3.6554   H         1 RES1   0.0000
@<TRIPOS>BOND
     1     1     2    1
     2     2     4    1
     3     3     1    1
     4     4    12    1
     5     5     2    1
     6     6     2    1
     7     7     3    1
     8     8     3    1
     9     9     3    1
    10    10    48    3
    11    11    49    3
    12    12    13   ar
    13    13    14   ar
    14    14    15   ar
    15    15    16   ar
    16    16    17   ar
    17    17    12   ar
    18    18     5    1
    19    19    18   ar
    20    20    19   ar
    21    21    20   ar
    22    22    21   ar
    23    23    18   ar
    24    24     6    1
    25    25    24   ar
    26    26    25   ar
    27    27    26   ar
    28    28    27   ar
    29    29    24   ar
    30    30     7    1
    31    31    30   ar
    32    32    31   ar
    33    33    32   ar
    34    34    33   ar
    35    35    30   ar
    36    36     8    1
    37    37    36   ar
    38    38    37   ar
    39    39    38   ar
    40    40    39   ar
    41    41    36   ar
    42    42     9    1
    43    43    42   ar
    44    44    43   ar
    45    45    44   ar
    46    46    45   ar
    47    47    42   ar
    48    48     1    1
    49    49     1    1
    50    50     1    1
    51    51     1    1
    52    52    13    1
    53    53    14    1
    54    54    15    1
    55    55    16    1
    56    56    17    1
    57    57    19    1
    58    58    20    1
    59    59    21    1
    60    60    22    1
    61    61    23    1
    62    62    25    1
    63    63    26    1
    64    64    27    1
    65    65    28    1
    66    66    29    1
    67    67    31    1
    68    68    32    1
    69    69    33    1
    70    70    34    1
    71    71    35    1
    72    72    37    1
    73    73    38    1
    74    74    39    1
    75    75    40    1
    76    76    41    1
    77    77    43    1
    78    78    44    1
    79    79    45    1
    80    80    46    1
    81    81    47    1
    82    22    23   ar
    83    28    29   ar
    84    34    35   ar
    85    40    41   ar
    86    46    47   ar
@<TRIPOS>SUBSTRUCTURE
     1 RES1        1 GROUP             0 ****  ****    0  
@<TRIPOS>CRYSIN
    9.6397   10.4410   18.3810  102.1480   94.6670  107.4020     2     1
