@<TRIPOS>MOLECULE
QOSZON07
    81    86     1     0     0
SMALL
NO_CHARGES
****
Generated from the CSD

@<TRIPOS>ATOM
     1 Fe1      2.1086   7.1098   4.8055   Fe        1 RES1   0.0000
     2 P1       0.8388   6.3942   3.2918   P.3       1 RES1   0.0000
     3 P2       3.3727   8.5442   5.7191   P.3       1 RES1   0.0000
     4 O1       0.2859   7.3929   2.1666   O.3       1 RES1   0.0000
     5 O2       1.5319   5.3104   2.3150   O.3       1 RES1   0.0000
     6 O3      -0.5996   5.7208   3.6346   O.3       1 RES1   0.0000
     7 O4       2.8405   9.4200   6.9566   O.3       1 RES1   0.0000
     8 O5       4.6316   7.8544   6.4227   O.3       1 RES1   0.0000
     9 O6       4.0491   9.7568   4.9112   O.3       1 RES1   0.0000
    10 O7       0.7668   6.3079   7.2827   O.2       1 RES1   0.0000
    11 O8       4.2066   5.0924   4.5377   O.2       1 RES1   0.0000
    12 C1       0.0396   8.7466   2.3104   C.ar      1 RES1   0.0000
    13 C2      -1.1740   9.1694   2.8284   C.ar      1 RES1   0.0000
    14 C3      -1.4725  10.5286   2.8393   C.ar      1 RES1   0.0000
    15 C4      -0.5545  11.4493   2.3443   C.ar      1 RES1   0.0000
    16 C5       0.6674  11.0050   1.8419   C.ar      1 RES1   0.0000
    17 C6       0.9724   9.6481   1.8234   C.ar      1 RES1   0.0000
    18 C7       1.0825   5.0388   1.0244   C.ar      1 RES1   0.0000
    19 C8       1.7307   5.6661  -0.0344   C.ar      1 RES1   0.0000
    20 C9       1.3251   5.3749  -1.3331   C.ar      1 RES1   0.0000
    21 C10      0.2804   4.4812  -1.5653   C.ar      1 RES1   0.0000
    22 C11     -0.3454   3.8661  -0.4893   C.ar      1 RES1   0.0000
    23 C12      0.0603   4.1331   0.8159   C.ar      1 RES1   0.0000
    24 C13     -0.7894   4.7075   4.5633   C.ar      1 RES1   0.0000
    25 C14     -1.9972   4.7139   5.2498   C.ar      1 RES1   0.0000
    26 C15     -2.2741   3.6966   6.1559   C.ar      1 RES1   0.0000
    27 C16     -1.3526   2.6804   6.3853   C.ar      1 RES1   0.0000
    28 C17     -0.1514   2.6845   5.6915   C.ar      1 RES1   0.0000
    29 C18      0.1393   3.6941   4.7704   C.ar      1 RES1   0.0000
    30 C19      2.0338  10.5400   6.9196   C.ar      1 RES1   0.0000
    31 C20      1.9020  11.2095   8.1304   C.ar      1 RES1   0.0000
    32 C21      1.0878  12.3343   8.2030   C.ar      1 RES1   0.0000
    33 C22      0.4143  12.7898   7.0744   C.ar      1 RES1   0.0000
    34 C23      0.5668  12.1160   5.8685   C.ar      1 RES1   0.0000
    35 C24      1.3802  10.9875   5.7779   C.ar      1 RES1   0.0000
    36 C25      5.7195   8.5402   6.9635   C.ar      1 RES1   0.0000
    37 C26      6.9071   8.5157   6.2576   C.ar      1 RES1   0.0000
    38 C27      8.0417   9.0837   6.8216   C.ar      1 RES1   0.0000
    39 C28      7.9821   9.6615   8.0805   C.ar      1 RES1   0.0000
    40 C29      6.7763   9.6824   8.7734   C.ar      1 RES1   0.0000
    41 C30      5.6298   9.1206   8.2172   C.ar      1 RES1   0.0000
    42 C31      4.2923   9.9056   3.5638   C.ar      1 RES1   0.0000
    43 C32      4.8167   8.8793   2.7823   C.ar      1 RES1   0.0000
    44 C33      5.0580   9.1252   1.4348   C.ar      1 RES1   0.0000
    45 C34      4.7985  10.3726   0.8802   C.ar      1 RES1   0.0000
    46 C35      4.2896  11.3904   1.6826   C.ar      1 RES1   0.0000
    47 C36      4.0366  11.1627   3.0331   C.ar      1 RES1   0.0000
    48 C37      1.2949   6.5916   6.3127   C.1       1 RES1   0.0000
    49 C38      3.3680   5.8598   4.6620   C.1       1 RES1   0.0000
    50 H1       1.1242   8.2667   4.7703   H         1 RES1   0.0000
    51 H2       2.6140   7.7892   3.5826   H         1 RES1   0.0000
    52 H3      -1.8768   8.4329   3.2027   H         1 RES1   0.0000
    53 H4      -2.4375  10.8836   3.2311   H         1 RES1   0.0000
    54 H5      -0.7938  12.5104   2.3203   H         1 RES1   0.0000
    55 H6       1.3988  11.7405   1.4433   H         1 RES1   0.0000
    56 H7       1.9212   9.3061   1.4060   H         1 RES1   0.0000
    57 H8       2.5544   6.3774   0.1917   H         1 RES1   0.0000
    58 H9       1.8259   5.8371  -2.1854   H         1 RES1   0.0000
    59 H10     -0.0319   4.2855  -2.5866   H         1 RES1   0.0000
    60 H11     -1.1632   3.1612  -0.6764   H         1 RES1   0.0000
    61 H12     -0.3945   3.6424   1.6510   H         1 RES1   0.0000
    62 H13     -2.6842   5.5241   5.0667   H         1 RES1   0.0000
    63 H14     -3.2173   3.6770   6.6858   H         1 RES1   0.0000
    64 H15     -1.5995   1.8770   7.1030   H         1 RES1   0.0000
    65 H16      0.5788   1.8829   5.8479   H         1 RES1   0.0000
    66 H17      1.0550   3.6795   4.1844   H         1 RES1   0.0000
    67 H18      2.4618  10.8334   8.9937   H         1 RES1   0.0000
    68 H19      0.9894  12.8417   9.1553   H         1 RES1   0.0000
    69 H20     -0.2091  13.6715   7.1492   H         1 RES1   0.0000
    70 H21      0.0408  12.4627   4.9797   H         1 RES1   0.0000
    71 H22      1.4562  10.4771   4.8111   H         1 RES1   0.0000
    72 H23      6.9357   8.0213   5.2762   H         1 RES1   0.0000
    73 H24      8.9669   9.0664   6.2580   H         1 RES1   0.0000
    74 H25      8.9026  10.0794   8.5392   H         1 RES1   0.0000
    75 H26      6.7214  10.1288   9.7766   H         1 RES1   0.0000
    76 H27      4.6891   9.1500   8.7576   H         1 RES1   0.0000
    77 H28      5.0258   7.8716   3.2080   H         1 RES1   0.0000
    78 H29      5.4489   8.3014   0.8131   H         1 RES1   0.0000
    79 H30      4.9682  10.5559  -0.1758   H         1 RES1   0.0000
    80 H31      4.0761  12.3552   1.2480   H         1 RES1   0.0000
    81 H32      3.6259  11.9706   3.6571   H         1 RES1   0.0000
@<TRIPOS>BOND
     1     1     2    1
     2     2     4    1
     3     3     1    1
     4     4    12    1
     5     5     2    1
     6     6     2    1
     7     7     3    1
     8     8     3    1
     9     9     3    1
    10    10    48    3
    11    11    49    3
    12    12    13   ar
    13    13    14   ar
    14    14    15   ar
    15    15    16   ar
    16    16    17   ar
    17    17    12   ar
    18    18     5    1
    19    19    18   ar
    20    20    19   ar
    21    21    20   ar
    22    22    21   ar
    23    23    18   ar
    24    24     6    1
    25    25    24   ar
    26    26    25   ar
    27    27    26   ar
    28    28    27   ar
    29    29    24   ar
    30    30     7    1
    31    31    30   ar
    32    32    31   ar
    33    33    32   ar
    34    34    33   ar
    35    35    30   ar
    36    36     8    1
    37    37    36   ar
    38    38    37   ar
    39    39    38   ar
    40    40    39   ar
    41    41    36   ar
    42    42     9    1
    43    43    42   ar
    44    44    43   ar
    45    45    44   ar
    46    46    45   ar
    47    47    42   ar
    48    48     1    1
    49    49     1    1
    50    50     1    1
    51    51     1    1
    52    52    13    1
    53    53    14    1
    54    54    15    1
    55    55    16    1
    56    56    17    1
    57    57    19    1
    58    58    20    1
    59    59    21    1
    60    60    22    1
    61    61    23    1
    62    62    25    1
    63    63    26    1
    64    64    27    1
    65    65    28    1
    66    66    29    1
    67    67    31    1
    68    68    32    1
    69    69    33    1
    70    70    34    1
    71    71    35    1
    72    72    37    1
    73    73    38    1
    74    74    39    1
    75    75    40    1
    76    76    41    1
    77    77    43    1
    78    78    44    1
    79    79    45    1
    80    80    46    1
    81    81    47    1
    82    22    23   ar
    83    28    29   ar
    84    34    35   ar
    85    40    41   ar
    86    46    47   ar
@<TRIPOS>SUBSTRUCTURE
     1 RES1        1 GROUP             0 ****  ****    0  
@<TRIPOS>CRYSIN
    9.6397   10.4410   18.3810  102.1480   94.6670  107.4020     2     1
