@<TRIPOS>MOLECULE
QOSZON25
    81    86     1     0     0
SMALL
NO_CHARGES
****
Generated from the CSD

@<TRIPOS>ATOM
     1 Fe1      2.1087   7.1096   4.8055   Fe        1 RES1   0.0000
     2 P1       0.8384   6.3943   3.2920   P.3       1 RES1   0.0000
     3 P2       3.3728   8.5444   5.7191   P.3       1 RES1   0.0000
     4 O1       0.2856   7.3928   2.1671   O.3       1 RES1   0.0000
     5 O2       1.5327   5.3102   2.3145   O.3       1 RES1   0.0000
     6 O3      -0.5991   5.7205   3.6353   O.3       1 RES1   0.0000
     7 O4       2.8407   9.4203   6.9567   O.3       1 RES1   0.0000
     8 O5       4.6314   7.8547   6.4227   O.3       1 RES1   0.0000
     9 O6       4.0486   9.7568   4.9110   O.3       1 RES1   0.0000
    10 O7       0.7664   6.3089   7.2832   O.2       1 RES1   0.0000
    11 O8       4.2067   5.0924   4.5372   O.2       1 RES1   0.0000
    12 C1       0.0398   8.7474   2.3113   C.ar      1 RES1   0.0000
    13 C2      -1.1734   9.1708   2.8277   C.ar      1 RES1   0.0000
    14 C3      -1.4739  10.5285   2.8398   C.ar      1 RES1   0.0000
    15 C4      -0.5547  11.4489   2.3445   C.ar      1 RES1   0.0000
    16 C5       0.6675  11.0055   1.8415   C.ar      1 RES1   0.0000
    17 C6       0.9723   9.6491   1.8224   C.ar      1 RES1   0.0000
    18 C7       1.0819   5.0388   1.0252   C.ar      1 RES1   0.0000
    19 C8       1.7312   5.6657  -0.0352   C.ar      1 RES1   0.0000
    20 C9       1.3260   5.3742  -1.3334   C.ar      1 RES1   0.0000
    21 C10      0.2800   4.4817  -1.5655   C.ar      1 RES1   0.0000
    22 C11     -0.3459   3.8646  -0.4887   C.ar      1 RES1   0.0000
    23 C12      0.0602   4.1328   0.8158   C.ar      1 RES1   0.0000
    24 C13     -0.7901   4.7078   4.5640   C.ar      1 RES1   0.0000
    25 C14     -1.9968   4.7145   5.2496   C.ar      1 RES1   0.0000
    26 C15     -2.2731   3.6973   6.1568   C.ar      1 RES1   0.0000
    27 C16     -1.3532   2.6805   6.3861   C.ar      1 RES1   0.0000
    28 C17     -0.1513   2.6836   5.6911   C.ar      1 RES1   0.0000
    29 C18      0.1395   3.6935   4.7708   C.ar      1 RES1   0.0000
    30 C19      2.0346  10.5406   6.9189   C.ar      1 RES1   0.0000
    31 C20      1.9022  11.2102   8.1297   C.ar      1 RES1   0.0000
    32 C21      1.0879  12.3343   8.2032   C.ar      1 RES1   0.0000
    33 C22      0.4147  12.7897   7.0748   C.ar      1 RES1   0.0000
    34 C23      0.5667  12.1173   5.8690   C.ar      1 RES1   0.0000
    35 C24      1.3804  10.9879   5.7792   C.ar      1 RES1   0.0000
    36 C25      5.7202   8.5408   6.9628   C.ar      1 RES1   0.0000
    37 C26      6.9076   8.5181   6.2594   C.ar      1 RES1   0.0000
    38 C27      8.0406   9.0822   6.8238   C.ar      1 RES1   0.0000
    39 C28      7.9828   9.6605   8.0800   C.ar      1 RES1   0.0000
    40 C29      6.7758   9.6816   8.7732   C.ar      1 RES1   0.0000
    41 C30      5.6309   9.1219   8.2158   C.ar      1 RES1   0.0000
    42 C31      4.2921   9.9048   3.5634   C.ar      1 RES1   0.0000
    43 C32      4.8169   8.8808   2.7821   C.ar      1 RES1   0.0000
    44 C33      5.0592   9.1250   1.4355   C.ar      1 RES1   0.0000
    45 C34      4.7985  10.3735   0.8809   C.ar      1 RES1   0.0000
    46 C35      4.2899  11.3897   1.6830   C.ar      1 RES1   0.0000
    47 C36      4.0369  11.1623   3.0328   C.ar      1 RES1   0.0000
    48 C37      1.2945   6.5917   6.3119   C.1       1 RES1   0.0000
    49 C38      3.3668   5.8604   4.6623   C.1       1 RES1   0.0000
    50 H1       1.1146   8.2628   4.7543   H         1 RES1   0.0000
    51 H2       2.6224   7.7806   3.5773   H         1 RES1   0.0000
    52 H3      -1.8734   8.4557   3.1796   H         1 RES1   0.0000
    53 H4      -2.4274  10.8945   3.2666   H         1 RES1   0.0000
    54 H5      -0.7961  12.5154   2.3008   H         1 RES1   0.0000
    55 H6       1.4026  11.7402   1.4327   H         1 RES1   0.0000
    56 H7       1.9135   9.2887   1.3918   H         1 RES1   0.0000
    57 H8       2.5646   6.3860   0.1775   H         1 RES1   0.0000
    58 H9       1.8133   5.8476  -2.1872   H         1 RES1   0.0000
    59 H10     -0.0350   4.2954  -2.5866   H         1 RES1   0.0000
    60 H11     -1.1496   3.1431  -0.6835   H         1 RES1   0.0000
    61 H12     -0.3786   3.6779   1.6564   H         1 RES1   0.0000
    62 H13     -2.6799   5.5255   5.0614   H         1 RES1   0.0000
    63 H14     -3.2206   3.6910   6.7089   H         1 RES1   0.0000
    64 H15     -1.5811   1.8820   7.1225   H         1 RES1   0.0000
    65 H16      0.5830   1.8926   5.8212   H         1 RES1   0.0000
    66 H17      1.0612   3.6624   4.1968   H         1 RES1   0.0000
    67 H18      2.4583  10.8200   8.9760   H         1 RES1   0.0000
    68 H19      0.9965  12.8534   9.1482   H         1 RES1   0.0000
    69 H20     -0.2131  13.6712   7.1385   H         1 RES1   0.0000
    70 H21      0.0425  12.4598   4.9868   H         1 RES1   0.0000
    71 H22      1.4633  10.4734   4.8217   H         1 RES1   0.0000
    72 H23      6.9473   7.9941   5.3046   H         1 RES1   0.0000
    73 H24      8.9595   9.0433   6.2704   H         1 RES1   0.0000
    74 H25      8.9190  10.0581   8.5446   H         1 RES1   0.0000
    75 H26      6.7150  10.1316   9.7695   H         1 RES1   0.0000
    76 H27      4.6848   9.1641   8.7452   H         1 RES1   0.0000
    77 H28      5.0350   7.8946   3.2080   H         1 RES1   0.0000
    78 H29      5.4573   8.3035   0.8166   H         1 RES1   0.0000
    79 H30      4.9699  10.5658  -0.1758   H         1 RES1   0.0000
    80 H31      4.0603  12.3434   1.2551   H         1 RES1   0.0000
    81 H32      3.6239  11.9589   3.6447   H         1 RES1   0.0000
@<TRIPOS>BOND
     1     1     2    1
     2     2     4    1
     3     3     1    1
     4     4    12    1
     5     5     2    1
     6     6     2    1
     7     7     3    1
     8     8     3    1
     9     9     3    1
    10    10    48    3
    11    11    49    3
    12    12    13   ar
    13    13    14   ar
    14    14    15   ar
    15    15    16   ar
    16    16    17   ar
    17    17    12   ar
    18    18     5    1
    19    19    18   ar
    20    20    19   ar
    21    21    20   ar
    22    22    21   ar
    23    23    18   ar
    24    24     6    1
    25    25    24   ar
    26    26    25   ar
    27    27    26   ar
    28    28    27   ar
    29    29    24   ar
    30    30     7    1
    31    31    30   ar
    32    32    31   ar
    33    33    32   ar
    34    34    33   ar
    35    35    30   ar
    36    36     8    1
    37    37    36   ar
    38    38    37   ar
    39    39    38   ar
    40    40    39   ar
    41    41    36   ar
    42    42     9    1
    43    43    42   ar
    44    44    43   ar
    45    45    44   ar
    46    46    45   ar
    47    47    42   ar
    48    48     1    1
    49    49     1    1
    50    50     1    1
    51    51     1    1
    52    52    13    1
    53    53    14    1
    54    54    15    1
    55    55    16    1
    56    56    17    1
    57    57    19    1
    58    58    20    1
    59    59    21    1
    60    60    22    1
    61    61    23    1
    62    62    25    1
    63    63    26    1
    64    64    27    1
    65    65    28    1
    66    66    29    1
    67    67    31    1
    68    68    32    1
    69    69    33    1
    70    70    34    1
    71    71    35    1
    72    72    37    1
    73    73    38    1
    74    74    39    1
    75    75    40    1
    76    76    41    1
    77    77    43    1
    78    78    44    1
    79    79    45    1
    80    80    46    1
    81    81    47    1
    82    22    23   ar
    83    28    29   ar
    84    34    35   ar
    85    40    41   ar
    86    46    47   ar
@<TRIPOS>SUBSTRUCTURE
     1 RES1        1 GROUP             0 ****  ****    0  
@<TRIPOS>CRYSIN
    9.6397   10.4410   18.3810  102.1480   94.6670  107.4020     2     1
