@<TRIPOS>MOLECULE
QOSZON30
    81    86     1     0     0
SMALL
NO_CHARGES
****
Generated from the CSD

@<TRIPOS>ATOM
     1 Fe1      2.1087   7.1096   4.8056   Fe        1 RES1   0.0000
     2 P1       0.8383   6.3941   3.2916   P.3       1 RES1   0.0000
     3 P2       3.3729   8.5447   5.7192   P.3       1 RES1   0.0000
     4 O1       0.2855   7.3932   2.1677   O.3       1 RES1   0.0000
     5 O2       1.5324   5.3108   2.3145   O.3       1 RES1   0.0000
     6 O3      -0.5986   5.7201   3.6355   O.3       1 RES1   0.0000
     7 O4       2.8405   9.4204   6.9560   O.3       1 RES1   0.0000
     8 O5       4.6310   7.8549   6.4227   O.3       1 RES1   0.0000
     9 O6       4.0482   9.7563   4.9110   O.3       1 RES1   0.0000
    10 O7       0.7665   6.3090   7.2830   O.2       1 RES1   0.0000
    11 O8       4.2059   5.0929   4.5372   O.2       1 RES1   0.0000
    12 C1       0.0396   8.7474   2.3113   C.ar      1 RES1   0.0000
    13 C2      -1.1737   9.1706   2.8281   C.ar      1 RES1   0.0000
    14 C3      -1.4730  10.5283   2.8398   C.ar      1 RES1   0.0000
    15 C4      -0.5545  11.4486   2.3445   C.ar      1 RES1   0.0000
    16 C5       0.6671  11.0050   1.8417   C.ar      1 RES1   0.0000
    17 C6       0.9716   9.6496   1.8227   C.ar      1 RES1   0.0000
    18 C7       1.0819   5.0392   1.0251   C.ar      1 RES1   0.0000
    19 C8       1.7306   5.6656  -0.0355   C.ar      1 RES1   0.0000
    20 C9       1.3259   5.3737  -1.3338   C.ar      1 RES1   0.0000
    21 C10      0.2804   4.4818  -1.5651   C.ar      1 RES1   0.0000
    22 C11     -0.3458   3.8651  -0.4893   C.ar      1 RES1   0.0000
    23 C12      0.0601   4.1327   0.8158   C.ar      1 RES1   0.0000
    24 C13     -0.7897   4.7075   4.5640   C.ar      1 RES1   0.0000
    25 C14     -1.9967   4.7145   5.2494   C.ar      1 RES1   0.0000
    26 C15     -2.2725   3.6972   6.1566   C.ar      1 RES1   0.0000
    27 C16     -1.3534   2.6805   6.3856   C.ar      1 RES1   0.0000
    28 C17     -0.1515   2.6835   5.6908   C.ar      1 RES1   0.0000
    29 C18      0.1392   3.6937   4.7711   C.ar      1 RES1   0.0000
    30 C19      2.0347  10.5405   6.9189   C.ar      1 RES1   0.0000
    31 C20      1.9017  11.2107   8.1293   C.ar      1 RES1   0.0000
    32 C21      1.0878  12.3338   8.2025   C.ar      1 RES1   0.0000
    33 C22      0.4152  12.7893   7.0743   C.ar      1 RES1   0.0000
    34 C23      0.5667  12.1171   5.8692   C.ar      1 RES1   0.0000
    35 C24      1.3802  10.9887   5.7790   C.ar      1 RES1   0.0000
    36 C25      5.7206   8.5410   6.9628   C.ar      1 RES1   0.0000
    37 C26      6.9078   8.5182   6.2594   C.ar      1 RES1   0.0000
    38 C27      8.0406   9.0822   6.8245   C.ar      1 RES1   0.0000
    39 C28      7.9818   9.6602   8.0798   C.ar      1 RES1   0.0000
    40 C29      6.7763   9.6816   8.7729   C.ar      1 RES1   0.0000
    41 C30      5.6310   9.1217   8.2154   C.ar      1 RES1   0.0000
    42 C31      4.2917   9.9045   3.5632   C.ar      1 RES1   0.0000
    43 C32      4.8167   8.8814   2.7821   C.ar      1 RES1   0.0000
    44 C33      5.0592   9.1254   1.4355   C.ar      1 RES1   0.0000
    45 C34      4.7984  10.3736   0.8816   C.ar      1 RES1   0.0000
    46 C35      4.2902  11.3890   1.6826   C.ar      1 RES1   0.0000
    47 C36      4.0371  11.1621   3.0328   C.ar      1 RES1   0.0000
    48 C37      1.2945   6.5915   6.3121   C.1       1 RES1   0.0000
    49 C38      3.3670   5.8601   4.6623   C.1       1 RES1   0.0000
    50 H1       1.1161   8.2664   4.7561   H         1 RES1   0.0000
    51 H2       2.6280   7.7831   3.5790   H         1 RES1   0.0000
    52 H3      -1.8765   8.4444   3.1849   H         1 RES1   0.0000
    53 H4      -2.4270  10.8958   3.2612   H         1 RES1   0.0000
    54 H5      -0.7935  12.5172   2.2937   H         1 RES1   0.0000
    55 H6       1.3985  11.7502   1.4327   H         1 RES1   0.0000
    56 H7       1.9170   9.2897   1.3918   H         1 RES1   0.0000
    57 H8       2.5591   6.3905   0.1793   H         1 RES1   0.0000
    58 H9       1.8139   5.8494  -2.1943   H         1 RES1   0.0000
    59 H10     -0.0446   4.2954  -2.5866   H         1 RES1   0.0000
    60 H11     -1.1513   3.1332  -0.6835   H         1 RES1   0.0000
    61 H12     -0.3783   3.6709   1.6564   H         1 RES1   0.0000
    62 H13     -2.6773   5.5246   5.0650   H         1 RES1   0.0000
    63 H14     -3.2285   3.6906   6.7107   H         1 RES1   0.0000
    64 H15     -1.5835   1.8729   7.1190   H         1 RES1   0.0000
    65 H16      0.5911   1.8842   5.8230   H         1 RES1   0.0000
    66 H17      1.0587   3.6625   4.2004   H         1 RES1   0.0000
    67 H18      2.4593  10.8211   8.9795   H         1 RES1   0.0000
    68 H19      0.9964  12.8530   9.1500   H         1 RES1   0.0000
    69 H20     -0.2118  13.6751   7.1350   H         1 RES1   0.0000
    70 H21      0.0441  12.4627   4.9833   H         1 RES1   0.0000
    71 H22      1.4663  10.4728   4.8164   H         1 RES1   0.0000
    72 H23      6.9522   7.9946   5.3029   H         1 RES1   0.0000
    73 H24      8.9643   9.0433   6.2704   H         1 RES1   0.0000
    74 H25      8.9220  10.0586   8.5428   H         1 RES1   0.0000
    75 H26      6.7063  10.1316   9.7695   H         1 RES1   0.0000
    76 H27      4.6815   9.1621   8.7452   H         1 RES1   0.0000
    77 H28      5.0329   7.9009   3.2027   H         1 RES1   0.0000
    78 H29      5.4585   8.3014   0.8131   H         1 RES1   0.0000
    79 H30      4.9627  10.5676  -0.1829   H         1 RES1   0.0000
    80 H31      4.0571  12.3529   1.2569   H         1 RES1   0.0000
    81 H32      3.6230  11.9599   3.6483   H         1 RES1   0.0000
@<TRIPOS>BOND
     1     1     2    1
     2     2     4    1
     3     3     1    1
     4     4    12    1
     5     5     2    1
     6     6     2    1
     7     7     3    1
     8     8     3    1
     9     9     3    1
    10    10    48    3
    11    11    49    3
    12    12    13   ar
    13    13    14   ar
    14    14    15   ar
    15    15    16   ar
    16    16    17   ar
    17    17    12   ar
    18    18     5    1
    19    19    18   ar
    20    20    19   ar
    21    21    20   ar
    22    22    21   ar
    23    23    18   ar
    24    24     6    1
    25    25    24   ar
    26    26    25   ar
    27    27    26   ar
    28    28    27   ar
    29    29    24   ar
    30    30     7    1
    31    31    30   ar
    32    32    31   ar
    33    33    32   ar
    34    34    33   ar
    35    35    30   ar
    36    36     8    1
    37    37    36   ar
    38    38    37   ar
    39    39    38   ar
    40    40    39   ar
    41    41    36   ar
    42    42     9    1
    43    43    42   ar
    44    44    43   ar
    45    45    44   ar
    46    46    45   ar
    47    47    42   ar
    48    48     1    1
    49    49     1    1
    50    50     1    1
    51    51     1    1
    52    52    13    1
    53    53    14    1
    54    54    15    1
    55    55    16    1
    56    56    17    1
    57    57    19    1
    58    58    20    1
    59    59    21    1
    60    60    22    1
    61    61    23    1
    62    62    25    1
    63    63    26    1
    64    64    27    1
    65    65    28    1
    66    66    29    1
    67    67    31    1
    68    68    32    1
    69    69    33    1
    70    70    34    1
    71    71    35    1
    72    72    37    1
    73    73    38    1
    74    74    39    1
    75    75    40    1
    76    76    41    1
    77    77    43    1
    78    78    44    1
    79    79    45    1
    80    80    46    1
    81    81    47    1
    82    22    23   ar
    83    28    29   ar
    84    34    35   ar
    85    40    41   ar
    86    46    47   ar
@<TRIPOS>SUBSTRUCTURE
     1 RES1        1 GROUP             0 ****  ****    0  
@<TRIPOS>CRYSIN
    9.6397   10.4410   18.3810  102.1480   94.6670  107.4020     2     1
