@<TRIPOS>MOLECULE
QOSZON01
    81    86     1     0     0
SMALL
NO_CHARGES
****
Generated from the CSD

@<TRIPOS>ATOM
     1 Fe1      3.6385   0.5923   4.0294   Fe        1 RES1   0.0000
     2 P1       4.9061   1.3073   5.5421   P.3       1 RES1   0.0000
     3 P2       2.3681  -0.8376   3.1181   P.3       1 RES1   0.0000
     4 O1       1.5366   2.6203   4.2811   O.2       1 RES1   0.0000
     5 O2       5.0104   1.3734   1.5481   O.2       1 RES1   0.0000
     6 O3       1.1058  -0.1372   2.4233   O.3       1 RES1   0.0000
     7 O4       2.8941  -1.7122   1.8724   O.3       1 RES1   0.0000
     8 O5       1.6900  -2.0573   3.9221   O.3       1 RES1   0.0000
     9 O6       6.3546   1.9723   5.1981   O.3       1 RES1   0.0000
    10 O7       4.2181   2.3997   6.5182   O.3       1 RES1   0.0000
    11 O8       5.4536   0.3055   6.6738   O.3       1 RES1   0.0000
    12 C1       2.3760   1.8505   4.1632   C.1       1 RES1   0.0000
    13 C2       4.4674   1.1020   2.5167   C.1       1 RES1   0.0000
    14 C3       0.0169  -0.8235   1.8824   C.ar      1 RES1   0.0000
    15 C4       0.1041  -1.4178   0.6297   C.ar      1 RES1   0.0000
    16 C5      -1.0470  -1.9767   0.0772   C.ar      1 RES1   0.0000
    17 C6      -2.2573  -1.9481   0.7723   C.ar      1 RES1   0.0000
    18 C7      -2.3209  -1.3548   2.0308   C.ar      1 RES1   0.0000
    19 C8      -1.1805  -0.7863   2.5925   C.ar      1 RES1   0.0000
    20 C9       3.6968  -2.8396   1.9172   C.ar      1 RES1   0.0000
    21 C10      3.8160  -3.5251   0.7101   C.ar      1 RES1   0.0000
    22 C11      4.6324  -4.6521   0.6436   C.ar      1 RES1   0.0000
    23 C12      5.3171  -5.0989   1.7776   C.ar      1 RES1   0.0000
    24 C13      5.1696  -4.4124   2.9797   C.ar      1 RES1   0.0000
    25 C14      4.3546  -3.2779   3.0654   C.ar      1 RES1   0.0000
    26 C15      1.4543  -2.2086   5.2742   C.ar      1 RES1   0.0000
    27 C16      1.7157  -3.4712   5.8019   C.ar      1 RES1   0.0000
    28 C17      1.4711  -3.6999   7.1546   C.ar      1 RES1   0.0000
    29 C18      0.9702  -2.6790   7.9634   C.ar      1 RES1   0.0000
    30 C19      0.7067  -1.4253   7.4156   C.ar      1 RES1   0.0000
    31 C20      0.9380  -1.1798   6.0589   C.ar      1 RES1   0.0000
    32 C21      6.5415   2.9924   4.2723   C.ar      1 RES1   0.0000
    33 C22      5.6047   4.0061   4.0656   C.ar      1 RES1   0.0000
    34 C23      5.8910   5.0211   3.1458   C.ar      1 RES1   0.0000
    35 C24      7.1059   5.0286   2.4547   C.ar      1 RES1   0.0000
    36 C25      8.0353   4.0143   2.6836   C.ar      1 RES1   0.0000
    37 C26      7.7549   2.9877   3.5846   C.ar      1 RES1   0.0000
    38 C27      4.6769   2.6604   7.8090   C.ar      1 RES1   0.0000
    39 C28      4.0421   2.0254   8.8710   C.ar      1 RES1   0.0000
    40 C29      4.4589   2.3074  10.1717   C.ar      1 RES1   0.0000
    41 C30      5.5104   3.1972  10.3967   C.ar      1 RES1   0.0000
    42 C31      6.1312   3.8262   9.3181   C.ar      1 RES1   0.0000
    43 C32      5.7089   3.5690   8.0120   C.ar      1 RES1   0.0000
    44 C33      5.6948  -1.0524   6.5212   C.ar      1 RES1   0.0000
    45 C34      6.9106  -1.4773   6.0005   C.ar      1 RES1   0.0000
    46 C35      7.2072  -2.8421   5.9856   C.ar      1 RES1   0.0000
    47 C36      6.2834  -3.7613   6.4863   C.ar      1 RES1   0.0000
    48 C37      5.0593  -3.3147   6.9882   C.ar      1 RES1   0.0000
    49 C38      4.7532  -1.9530   7.0104   C.ar      1 RES1   0.0000
    50 H1       3.1257  -0.0330   5.3171   H         1 RES1   0.0000
    51 H2       4.6250  -0.5746   4.0917   H         1 RES1   0.0000
    52 H3       1.0462  -1.4019   0.0932   H         1 RES1   0.0000
    53 H4      -0.9936  -2.4187  -0.9128   H         1 RES1   0.0000
    54 H5      -3.1534  -2.3744   0.3317   H         1 RES1   0.0000
    55 H6      -3.2602  -1.3276   2.5756   H         1 RES1   0.0000
    56 H7      -1.2111  -0.2979   3.5585   H         1 RES1   0.0000
    57 H8       3.2835  -3.1623  -0.1616   H         1 RES1   0.0000
    58 H9       4.7328  -5.1839  -0.3001   H         1 RES1   0.0000
    59 H10      5.9583  -5.9745   1.7222   H         1 RES1   0.0000
    60 H11      5.6871  -4.7512   3.8705   H         1 RES1   0.0000
    61 H12      4.2563  -2.7553   4.0085   H         1 RES1   0.0000
    62 H13      2.1023  -4.2509   5.1484   H         1 RES1   0.0000
    63 H14      1.6921  -4.6772   7.5777   H         1 RES1   0.0000
    64 H15      0.7820  -2.8509   9.0159   H         1 RES1   0.0000
    65 H16      0.3151  -0.6277   8.0425   H         1 RES1   0.0000
    66 H17      0.7267  -0.2072   5.6283   H         1 RES1   0.0000
    67 H18      4.6684   4.0129   4.6190   H         1 RES1   0.0000
    68 H19      5.1663   5.8179   2.9806   H         1 RES1   0.0000
    69 H20      7.3253   5.8340   1.7566   H         1 RES1   0.0000
    70 H21      8.9894   4.0253   2.1660   H         1 RES1   0.0000
    71 H22      8.4701   2.1903   3.7624   H         1 RES1   0.0000
    72 H23      3.2313   1.3322   8.6657   H         1 RES1   0.0000
    73 H24      3.9646   1.8289  11.0108   H         1 RES1   0.0000
    74 H25      5.8549   3.3880  11.4078   H         1 RES1   0.0000
    75 H26      6.9616   4.5035   9.4930   H         1 RES1   0.0000
    76 H27      6.1779   4.0464   7.1597   H         1 RES1   0.0000
    77 H28      7.6282  -0.7383   5.6514   H         1 RES1   0.0000
    78 H29      8.1694  -3.1759   5.6022   H         1 RES1   0.0000
    79 H30      6.5207  -4.8225   6.4949   H         1 RES1   0.0000
    80 H31      4.3343  -4.0215   7.3786   H         1 RES1   0.0000
    81 H32      3.8088  -1.5891   7.4052   H         1 RES1   0.0000
@<TRIPOS>BOND
     1     1     2    1
     2     2     9    1
     3     3     1    1
     4     4    12    3
     5     5    13    3
     6     6     3    1
     7     7     3    1
     8     8     3    1
     9     9    32    1
    10    10     2    1
    11    11     2    1
    12    12     1    1
    13    13     1    1
    14    14     6    1
    15    15    14   ar
    16    16    15   ar
    17    17    16   ar
    18    18    17   ar
    19    19    14   ar
    20    20     7    1
    21    21    20   ar
    22    22    21   ar
    23    23    22   ar
    24    24    23   ar
    25    25    20   ar
    26    26     8    1
    27    27    26   ar
    28    28    27   ar
    29    29    28   ar
    30    30    29   ar
    31    31    26   ar
    32    32    33   ar
    33    33    34   ar
    34    34    35   ar
    35    35    36   ar
    36    36    37   ar
    37    37    32   ar
    38    38    10    1
    39    39    38   ar
    40    40    39   ar
    41    41    40   ar
    42    42    41   ar
    43    43    38   ar
    44    44    11    1
    45    45    44   ar
    46    46    45   ar
    47    47    46   ar
    48    48    47   ar
    49    49    44   ar
    50    50     1    1
    51    51     1    1
    52    52    15    1
    53    53    16    1
    54    54    17    1
    55    55    18    1
    56    56    19    1
    57    57    21    1
    58    58    22    1
    59    59    23    1
    60    60    24    1
    61    61    25    1
    62    62    27    1
    63    63    28    1
    64    64    29    1
    65    65    30    1
    66    66    31    1
    67    67    33    1
    68    68    34    1
    69    69    35    1
    70    70    36    1
    71    71    37    1
    72    72    39    1
    73    73    40    1
    74    74    41    1
    75    75    42    1
    76    76    43    1
    77    77    45    1
    78    78    46    1
    79    79    47    1
    80    80    48    1
    81    81    49    1
    82    18    19   ar
    83    24    25   ar
    84    30    31   ar
    85    42    43   ar
    86    48    49   ar
@<TRIPOS>SUBSTRUCTURE
     1 RES1        1 GROUP             0 ****  ****    0  
@<TRIPOS>CRYSIN
    9.5682   10.3878   18.2514  102.3230   94.5270  107.1120     2     1
