@<TRIPOS>MOLECULE
QOSZON49
    81    86     1     0     0
SMALL
NO_CHARGES
****
Generated from the CSD

@<TRIPOS>ATOM
     1 Fe1      2.1086   7.1097   4.8054   Fe        1 RES1   0.0000
     2 P1       0.8395   6.3944   3.2923   P.3       1 RES1   0.0000
     3 P2       3.3713   8.5443   5.7185   P.3       1 RES1   0.0000
     4 O1       0.2874   7.3909   2.1655   O.3       1 RES1   0.0000
     5 O2       1.5339   5.3105   2.3186   O.3       1 RES1   0.0000
     6 O3      -0.6005   5.7235   3.6318   O.3       1 RES1   0.0000
     7 O4       2.8421   9.4167   6.9578   O.3       1 RES1   0.0000
     8 O5       4.6294   7.8494   6.4213   O.3       1 RES1   0.0000
     9 O6       4.0471   9.7584   4.9160   O.3       1 RES1   0.0000
    10 O7       0.7664   6.3077   7.2825   O.2       1 RES1   0.0000
    11 O8       4.2064   5.0907   4.5368   O.2       1 RES1   0.0000
    12 C1       0.0374   8.7544   2.3115   C.ar      1 RES1   0.0000
    13 C2      -1.1690   9.1705   2.8261   C.ar      1 RES1   0.0000
    14 C3      -1.4640  10.5278   2.8364   C.ar      1 RES1   0.0000
    15 C4      -0.5531  11.4428   2.3463   C.ar      1 RES1   0.0000
    16 C5       0.6607  11.0009   1.8435   C.ar      1 RES1   0.0000
    17 C6       0.9691   9.6502   1.8266   C.ar      1 RES1   0.0000
    18 C7       1.0814   5.0357   1.0146   C.ar      1 RES1   0.0000
    19 C8       1.7256   5.6622  -0.0359   C.ar      1 RES1   0.0000
    20 C9       1.3205   5.3726  -1.3317   C.ar      1 RES1   0.0000
    21 C10      0.2815   4.4816  -1.5575   C.ar      1 RES1   0.0000
    22 C11     -0.3389   3.8707  -0.4928   C.ar      1 RES1   0.0000
    23 C12      0.0626   4.1330   0.8124   C.ar      1 RES1   0.0000
    24 C13     -0.7899   4.6998   4.5668   C.ar      1 RES1   0.0000
    25 C14     -1.9938   4.7087   5.2484   C.ar      1 RES1   0.0000
    26 C15     -2.2682   3.6934   6.1518   C.ar      1 RES1   0.0000
    27 C16     -1.3522   2.6863   6.3821   C.ar      1 RES1   0.0000
    28 C17     -0.1561   2.6890   5.6911   C.ar      1 RES1   0.0000
    29 C18      0.1351   3.6948   4.7738   C.ar      1 RES1   0.0000
    30 C19      2.0295  10.5445   6.9205   C.ar      1 RES1   0.0000
    31 C20      1.8972  11.2128   8.1261   C.ar      1 RES1   0.0000
    32 C21      1.0883  12.3296   8.1970   C.ar      1 RES1   0.0000
    33 C22      0.4191  12.7832   7.0734   C.ar      1 RES1   0.0000
    34 C23      0.5705  12.1108   5.8722   C.ar      1 RES1   0.0000
    35 C24      1.3784  10.9909   5.7822   C.ar      1 RES1   0.0000
    36 C25      5.7265   8.5460   6.9685   C.ar      1 RES1   0.0000
    37 C26      6.9068   8.5178   6.2606   C.ar      1 RES1   0.0000
    38 C27      8.0368   9.0877   6.8275   C.ar      1 RES1   0.0000
    39 C28      7.9731   9.6596   8.0793   C.ar      1 RES1   0.0000
    40 C29      6.7803   9.6811   8.7690   C.ar      1 RES1   0.0000
    41 C30      5.6332   9.1204   8.2128   C.ar      1 RES1   0.0000
    42 C31      4.2961   9.9033   3.5536   C.ar      1 RES1   0.0000
    43 C32      4.8138   8.8863   2.7840   C.ar      1 RES1   0.0000
    44 C33      5.0555   9.1293   1.4352   C.ar      1 RES1   0.0000
    45 C34      4.7961  10.3726   0.8880   C.ar      1 RES1   0.0000
    46 C35      4.2931  11.3821   1.6809   C.ar      1 RES1   0.0000
    47 C36      4.0366  11.1597   3.0312   C.ar      1 RES1   0.0000
    48 C37      1.2938   6.5930   6.3111   C.1       1 RES1   0.0000
    49 C38      3.3656   5.8631   4.6630   C.1       1 RES1   0.0000
    50 H1       1.1855   8.2131   4.7578   H         1 RES1   0.0000
    51 H2       2.5471   7.7562   3.6181   H         1 RES1   0.0000
    52 H3      -1.7839   8.5037   3.1476   H         1 RES1   0.0000
    53 H4      -2.3236  10.8007   3.1654   H         1 RES1   0.0000
    54 H5      -0.7606  12.3945   2.3452   H         1 RES1   0.0000
    55 H6       1.2813  11.5953   1.5321   H         1 RES1   0.0000
    56 H7       1.7773   9.3314   1.4238   H         1 RES1   0.0000
    57 H8       2.4555   6.2709   0.1402   H         1 RES1   0.0000
    58 H9       1.7667   5.7942  -2.0949   H         1 RES1   0.0000
    59 H10      0.0151   4.3399  -2.4482   H         1 RES1   0.0000
    60 H11     -1.0757   3.2391  -0.6302   H         1 RES1   0.0000
    61 H12     -0.3399   3.6928   1.5392   H         1 RES1   0.0000
    62 H13     -2.5845   5.4295   5.0863   H         1 RES1   0.0000
    63 H14     -3.1154   3.7014   6.6290   H         1 RES1   0.0000
    64 H15     -1.5400   1.9788   7.0160   H         1 RES1   0.0000
    65 H16      0.4726   1.9929   5.8266   H         1 RES1   0.0000
    66 H17      0.9374   3.6670   4.2607   H         1 RES1   0.0000
    67 H18      2.3913  10.8775   8.8872   H         1 RES1   0.0000
    68 H19      1.0092  12.7560   9.0221   H         1 RES1   0.0000
    69 H20     -0.1148  13.5153   7.1368   H         1 RES1   0.0000
    70 H21      0.0835  12.4285   5.0667   H         1 RES1   0.0000
    71 H22      1.4884  10.5704   4.9300   H         1 RES1   0.0000
    72 H23      6.9298   8.0838   5.4218   H         1 RES1   0.0000
    73 H24      8.8380   9.0411   6.3574   H         1 RES1   0.0000
    74 H25      8.8072  10.0513   8.4931   H         1 RES1   0.0000
    75 H26      6.7116  10.0780   9.6399   H         1 RES1   0.0000
    76 H27      4.8088   9.1175   8.6777   H         1 RES1   0.0000
    77 H28      5.0163   7.9934   3.1565   H         1 RES1   0.0000
    78 H29      5.4077   8.4291   0.9374   H         1 RES1   0.0000
    79 H30      4.9543  10.5120  -0.0426   H         1 RES1   0.0000
    80 H31      4.1175  12.2705   1.3457   H         1 RES1   0.0000
    81 H32      3.6844  11.8737   3.5684   H         1 RES1   0.0000
@<TRIPOS>BOND
     1     1     2    1
     2     2     4    1
     3     3     1    1
     4     4    12    1
     5     5     2    1
     6     6     2    1
     7     7     3    1
     8     8     3    1
     9     9     3    1
    10    10    48    3
    11    11    49    3
    12    12    13   ar
    13    13    14   ar
    14    14    15   ar
    15    15    16   ar
    16    16    17   ar
    17    17    12   ar
    18    18     5    1
    19    19    18   ar
    20    20    19   ar
    21    21    20   ar
    22    22    21   ar
    23    23    18   ar
    24    24     6    1
    25    25    24   ar
    26    26    25   ar
    27    27    26   ar
    28    28    27   ar
    29    29    24   ar
    30    30     7    1
    31    31    30   ar
    32    32    31   ar
    33    33    32   ar
    34    34    33   ar
    35    35    30   ar
    36    36     8    1
    37    37    36   ar
    38    38    37   ar
    39    39    38   ar
    40    40    39   ar
    41    41    36   ar
    42    42     9    1
    43    43    42   ar
    44    44    43   ar
    45    45    44   ar
    46    46    45   ar
    47    47    42   ar
    48    48     1    1
    49    49     1    1
    50    50     1    1
    51    51     1    1
    52    52    13    1
    53    53    14    1
    54    54    15    1
    55    55    16    1
    56    56    17    1
    57    57    19    1
    58    58    20    1
    59    59    21    1
    60    60    22    1
    61    61    23    1
    62    62    25    1
    63    63    26    1
    64    64    27    1
    65    65    28    1
    66    66    29    1
    67    67    31    1
    68    68    32    1
    69    69    33    1
    70    70    34    1
    71    71    35    1
    72    72    37    1
    73    73    38    1
    74    74    39    1
    75    75    40    1
    76    76    41    1
    77    77    43    1
    78    78    44    1
    79    79    45    1
    80    80    46    1
    81    81    47    1
    82    22    23   ar
    83    28    29   ar
    84    34    35   ar
    85    40    41   ar
    86    46    47   ar
@<TRIPOS>SUBSTRUCTURE
     1 RES1        1 GROUP             0 ****  ****    0  
@<TRIPOS>CRYSIN
    9.6397   10.4410   18.3810  102.1480   94.6670  107.4020     2     1
