@<TRIPOS>MOLECULE
QOSZON46
    81    86     1     0     0
SMALL
NO_CHARGES
****
Generated from the CSD

@<TRIPOS>ATOM
     1 Fe1      2.1087   7.1097   4.8053   Fe        1 RES1   0.0000
     2 P1       0.8390   6.3942   3.2918   P.3       1 RES1   0.0000
     3 P2       3.3726   8.5443   5.7189   P.3       1 RES1   0.0000
     4 O1       0.2866   7.3930   2.1666   O.3       1 RES1   0.0000
     5 O2       1.5312   5.3103   2.3154   O.3       1 RES1   0.0000
     6 O3      -0.6001   5.7208   3.6344   O.3       1 RES1   0.0000
     7 O4       2.8406   9.4198   6.9567   O.3       1 RES1   0.0000
     8 O5       4.6318   7.8536   6.4229   O.3       1 RES1   0.0000
     9 O6       4.0491   9.7565   4.9110   O.3       1 RES1   0.0000
    10 O7       0.7668   6.3075   7.2827   O.2       1 RES1   0.0000
    11 O8       4.2070   5.0919   4.5375   O.2       1 RES1   0.0000
    12 C1       0.0391   8.7467   2.3106   C.ar      1 RES1   0.0000
    13 C2      -1.1744   9.1688   2.8281   C.ar      1 RES1   0.0000
    14 C3      -1.4718  10.5273   2.8389   C.ar      1 RES1   0.0000
    15 C4      -0.5551  11.4485   2.3448   C.ar      1 RES1   0.0000
    16 C5       0.6659  11.0051   1.8422   C.ar      1 RES1   0.0000
    17 C6       0.9725   9.6477   1.8236   C.ar      1 RES1   0.0000
    18 C7       1.0827   5.0387   1.0235   C.ar      1 RES1   0.0000
    19 C8       1.7298   5.6659  -0.0343   C.ar      1 RES1   0.0000
    20 C9       1.3238   5.3757  -1.3334   C.ar      1 RES1   0.0000
    21 C10      0.2807   4.4813  -1.5639   C.ar      1 RES1   0.0000
    22 C11     -0.3445   3.8660  -0.4893   C.ar      1 RES1   0.0000
    23 C12      0.0609   4.1334   0.8159   C.ar      1 RES1   0.0000
    24 C13     -0.7896   4.7071   4.5629   C.ar      1 RES1   0.0000
    25 C14     -1.9964   4.7130   5.2494   C.ar      1 RES1   0.0000
    26 C15     -2.2743   3.6957   6.1557   C.ar      1 RES1   0.0000
    27 C16     -1.3521   2.6798   6.3854   C.ar      1 RES1   0.0000
    28 C17     -0.1521   2.6858   5.6908   C.ar      1 RES1   0.0000
    29 C18      0.1381   3.6939   4.7713   C.ar      1 RES1   0.0000
    30 C19      2.0329  10.5396   6.9209   C.ar      1 RES1   0.0000
    31 C20      1.9018  11.2091   8.1302   C.ar      1 RES1   0.0000
    32 C21      1.0877  12.3336   8.2021   C.ar      1 RES1   0.0000
    33 C22      0.4140  12.7886   7.0737   C.ar      1 RES1   0.0000
    34 C23      0.5671  12.1159   5.8683   C.ar      1 RES1   0.0000
    35 C24      1.3799  10.9872   5.7778   C.ar      1 RES1   0.0000
    36 C25      5.7191   8.5403   6.9637   C.ar      1 RES1   0.0000
    37 C26      6.9065   8.5148   6.2569   C.ar      1 RES1   0.0000
    38 C27      8.0419   9.0855   6.8213   C.ar      1 RES1   0.0000
    39 C28      7.9814   9.6621   8.0809   C.ar      1 RES1   0.0000
    40 C29      6.7761   9.6826   8.7729   C.ar      1 RES1   0.0000
    41 C30      5.6299   9.1204   8.2170   C.ar      1 RES1   0.0000
    42 C31      4.2926   9.9058   3.5643   C.ar      1 RES1   0.0000
    43 C32      4.8167   8.8800   2.7819   C.ar      1 RES1   0.0000
    44 C33      5.0570   9.1250   1.4350   C.ar      1 RES1   0.0000
    45 C34      4.7979  10.3723   0.8806   C.ar      1 RES1   0.0000
    46 C35      4.2897  11.3895   1.6825   C.ar      1 RES1   0.0000
    47 C36      4.0365  11.1616   3.0328   C.ar      1 RES1   0.0000
    48 C37      1.2942   6.5916   6.3135   C.1       1 RES1   0.0000
    49 C38      3.3691   5.8600   4.6614   C.1       1 RES1   0.0000
    50 H1       1.1369   8.2653   4.7720   H         1 RES1   0.0000
    51 H2       2.6157   7.7974   3.5737   H         1 RES1   0.0000
    52 H3      -1.8763   8.4286   3.2080   H         1 RES1   0.0000
    53 H4      -2.4622  10.8768   3.2186   H         1 RES1   0.0000
    54 H5      -0.7944  12.5135   2.3239   H         1 RES1   0.0000
    55 H6       1.3908  11.7289   1.4380   H         1 RES1   0.0000
    56 H7       1.9285   9.3156   1.4078   H         1 RES1   0.0000
    57 H8       2.5517   6.3674   0.1917   H         1 RES1   0.0000
    58 H9       1.8419   5.8177  -2.1872   H         1 RES1   0.0000
    59 H10     -0.0320   4.2850  -2.5849   H         1 RES1   0.0000
    60 H11     -1.1789   3.1603  -0.6728   H         1 RES1   0.0000
    61 H12     -0.4003   3.6358   1.6457   H         1 RES1   0.0000
    62 H13     -2.6723   5.5327   5.0721   H         1 RES1   0.0000
    63 H14     -3.2098   3.6684   6.6805   H         1 RES1   0.0000
    64 H15     -1.6062   1.8666   7.1048   H         1 RES1   0.0000
    65 H16      0.5629   1.8774   5.8497   H         1 RES1   0.0000
    66 H17      1.0481   3.6869   4.1826   H         1 RES1   0.0000
    67 H18      2.4647  10.8315   8.9973   H         1 RES1   0.0000
    68 H19      1.0028  12.8335   9.1482   H         1 RES1   0.0000
    69 H20     -0.2042  13.6720   7.1474   H         1 RES1   0.0000
    70 H21      0.0361  12.4697   4.9833   H         1 RES1   0.0000
    71 H22      1.4479  10.4927   4.7969   H         1 RES1   0.0000
    72 H23      6.9226   8.0331   5.2691   H         1 RES1   0.0000
    73 H24      8.9755   9.0587   6.2491   H         1 RES1   0.0000
    74 H25      8.9032  10.0889   8.5410   H         1 RES1   0.0000
    75 H26      6.7235  10.1233   9.7749   H         1 RES1   0.0000
    76 H27      4.6964   9.1450   8.7576   H         1 RES1   0.0000
    77 H28      5.0231   7.8811   3.2062   H         1 RES1   0.0000
    78 H29      5.4549   8.3100   0.8184   H         1 RES1   0.0000
    79 H30      4.9653  10.5454  -0.1740   H         1 RES1   0.0000
    80 H31      4.0779  12.3547   1.2498   H         1 RES1   0.0000
    81 H32      3.6396  11.9692   3.6589   H         1 RES1   0.0000
@<TRIPOS>BOND
     1     1     2    1
     2     2     4    1
     3     3     1    1
     4     4    12    1
     5     5     2    1
     6     6     2    1
     7     7     3    1
     8     8     3    1
     9     9     3    1
    10    10    48    3
    11    11    49    3
    12    12    13   ar
    13    13    14   ar
    14    14    15   ar
    15    15    16   ar
    16    16    17   ar
    17    17    12   ar
    18    18     5    1
    19    19    18   ar
    20    20    19   ar
    21    21    20   ar
    22    22    21   ar
    23    23    18   ar
    24    24     6    1
    25    25    24   ar
    26    26    25   ar
    27    27    26   ar
    28    28    27   ar
    29    29    24   ar
    30    30     7    1
    31    31    30   ar
    32    32    31   ar
    33    33    32   ar
    34    34    33   ar
    35    35    30   ar
    36    36     8    1
    37    37    36   ar
    38    38    37   ar
    39    39    38   ar
    40    40    39   ar
    41    41    36   ar
    42    42     9    1
    43    43    42   ar
    44    44    43   ar
    45    45    44   ar
    46    46    45   ar
    47    47    42   ar
    48    48     1    1
    49    49     1    1
    50    50     1    1
    51    51     1    1
    52    52    13    1
    53    53    14    1
    54    54    15    1
    55    55    16    1
    56    56    17    1
    57    57    19    1
    58    58    20    1
    59    59    21    1
    60    60    22    1
    61    61    23    1
    62    62    25    1
    63    63    26    1
    64    64    27    1
    65    65    28    1
    66    66    29    1
    67    67    31    1
    68    68    32    1
    69    69    33    1
    70    70    34    1
    71    71    35    1
    72    72    37    1
    73    73    38    1
    74    74    39    1
    75    75    40    1
    76    76    41    1
    77    77    43    1
    78    78    44    1
    79    79    45    1
    80    80    46    1
    81    81    47    1
    82    22    23   ar
    83    28    29   ar
    84    34    35   ar
    85    40    41   ar
    86    46    47   ar
@<TRIPOS>SUBSTRUCTURE
     1 RES1        1 GROUP             0 ****  ****    0  
@<TRIPOS>CRYSIN
    9.6397   10.4410   18.3810  102.1480   94.6670  107.4020     2     1
