@<TRIPOS>MOLECULE
QOSZON04
    81    86     1     0     0
SMALL
NO_CHARGES
****
Generated from the CSD

@<TRIPOS>ATOM
     1 Fe1      2.1087   7.1097   4.8055   Fe        1 RES1   0.0000
     2 P1       0.8388   6.3942   3.2918   P.3       1 RES1   0.0000
     3 P2       3.3726   8.5443   5.7191   P.3       1 RES1   0.0000
     4 O1       0.2859   7.3928   2.1668   O.3       1 RES1   0.0000
     5 O2       1.5320   5.3103   2.3150   O.3       1 RES1   0.0000
     6 O3      -0.5996   5.7209   3.6348   O.3       1 RES1   0.0000
     7 O4       2.8405   9.4200   6.9566   O.3       1 RES1   0.0000
     8 O5       4.6318   7.8542   6.4227   O.3       1 RES1   0.0000
     9 O6       4.0491   9.7568   4.9112   O.3       1 RES1   0.0000
    10 O7       0.7668   6.3078   7.2829   O.2       1 RES1   0.0000
    11 O8       4.2067   5.0925   4.5375   O.2       1 RES1   0.0000
    12 C1       0.0396   8.7467   2.3106   C.ar      1 RES1   0.0000
    13 C2      -1.1741   9.1693   2.8286   C.ar      1 RES1   0.0000
    14 C3      -1.4728  10.5287   2.8393   C.ar      1 RES1   0.0000
    15 C4      -0.5542  11.4493   2.3445   C.ar      1 RES1   0.0000
    16 C5       0.6673  11.0048   1.8421   C.ar      1 RES1   0.0000
    17 C6       0.9726   9.6481   1.8232   C.ar      1 RES1   0.0000
    18 C7       1.0825   5.0389   1.0244   C.ar      1 RES1   0.0000
    19 C8       1.7309   5.6660  -0.0344   C.ar      1 RES1   0.0000
    20 C9       1.3252   5.3747  -1.3331   C.ar      1 RES1   0.0000
    21 C10      0.2803   4.4812  -1.5649   C.ar      1 RES1   0.0000
    22 C11     -0.3452   3.8660  -0.4891   C.ar      1 RES1   0.0000
    23 C12      0.0603   4.1330   0.8159   C.ar      1 RES1   0.0000
    24 C13     -0.7896   4.7076   4.5633   C.ar      1 RES1   0.0000
    25 C14     -1.9970   4.7139   5.2496   C.ar      1 RES1   0.0000
    26 C15     -2.2742   3.6969   6.1559   C.ar      1 RES1   0.0000
    27 C16     -1.3527   2.6805   6.3853   C.ar      1 RES1   0.0000
    28 C17     -0.1514   2.6843   5.6915   C.ar      1 RES1   0.0000
    29 C18      0.1392   3.6943   4.7704   C.ar      1 RES1   0.0000
    30 C19      2.0338  10.5400   6.9198   C.ar      1 RES1   0.0000
    31 C20      1.9021  11.2096   8.1304   C.ar      1 RES1   0.0000
    32 C21      1.0876  12.3344   8.2030   C.ar      1 RES1   0.0000
    33 C22      0.4142  12.7898   7.0746   C.ar      1 RES1   0.0000
    34 C23      0.5667  12.1160   5.8688   C.ar      1 RES1   0.0000
    35 C24      1.3800  10.9873   5.7783   C.ar      1 RES1   0.0000
    36 C25      5.7195   8.5402   6.9635   C.ar      1 RES1   0.0000
    37 C26      6.9072   8.5156   6.2576   C.ar      1 RES1   0.0000
    38 C27      8.0416   9.0835   6.8218   C.ar      1 RES1   0.0000
    39 C28      7.9821   9.6615   8.0803   C.ar      1 RES1   0.0000
    40 C29      6.7764   9.6822   8.7734   C.ar      1 RES1   0.0000
    41 C30      5.6298   9.1208   8.2170   C.ar      1 RES1   0.0000
    42 C31      4.2924   9.9054   3.5638   C.ar      1 RES1   0.0000
    43 C32      4.8168   8.8793   2.7824   C.ar      1 RES1   0.0000
    44 C33      5.0581   9.1251   1.4348   C.ar      1 RES1   0.0000
    45 C34      4.7984  10.3726   0.8804   C.ar      1 RES1   0.0000
    46 C35      4.2897  11.3905   1.6825   C.ar      1 RES1   0.0000
    47 C36      4.0364  11.1627   3.0333   C.ar      1 RES1   0.0000
    48 C37      1.2947   6.5918   6.3125   C.1       1 RES1   0.0000
    49 C38      3.3679   5.8600   4.6620   C.1       1 RES1   0.0000
    50 H1       1.1262   8.2716   4.7667   H         1 RES1   0.0000
    51 H2       2.6205   7.7993   3.5702   H         1 RES1   0.0000
    52 H3      -1.8767   8.4334   3.2009   H         1 RES1   0.0000
    53 H4      -2.4470  10.8840   3.2293   H         1 RES1   0.0000
    54 H5      -0.7959  12.5100   2.3221   H         1 RES1   0.0000
    55 H6       1.3967  11.7371   1.4451   H         1 RES1   0.0000
    56 H7       1.9223   9.3065   1.4043   H         1 RES1   0.0000
    57 H8       2.5554   6.3774   0.1917   H         1 RES1   0.0000
    58 H9       1.8289   5.8267  -2.1836   H         1 RES1   0.0000
    59 H10     -0.0222   4.2855  -2.5866   H         1 RES1   0.0000
    60 H11     -1.1600   3.1621  -0.6799   H         1 RES1   0.0000
    61 H12     -0.3917   3.6413   1.6475   H         1 RES1   0.0000
    62 H13     -2.6879   5.5246   5.0650   H         1 RES1   0.0000
    63 H14     -3.2211   3.6770   6.6858   H         1 RES1   0.0000
    64 H15     -1.5899   1.8770   7.1030   H         1 RES1   0.0000
    65 H16      0.5806   1.8843   5.8461   H         1 RES1   0.0000
    66 H17      1.0561   3.6781   4.1862   H         1 RES1   0.0000
    67 H18      2.4633  10.8310   8.9955   H         1 RES1   0.0000
    68 H19      0.9924  12.8312   9.1571   H         1 RES1   0.0000
    69 H20     -0.2061  13.6720   7.1474   H         1 RES1   0.0000
    70 H21      0.0437  12.4627   4.9797   H         1 RES1   0.0000
    71 H22      1.4576  10.4796   4.8093   H         1 RES1   0.0000
    72 H23      6.9344   8.0204   5.2798   H         1 RES1   0.0000
    73 H24      8.9672   9.0673   6.2544   H         1 RES1   0.0000
    74 H25      8.9047  10.0798   8.5375   H         1 RES1   0.0000
    75 H26      6.7190  10.1313   9.7749   H         1 RES1   0.0000
    76 H27      4.6907   9.1480   8.7576   H         1 RES1   0.0000
    77 H28      5.0261   7.8726   3.2044   H         1 RES1   0.0000
    78 H29      5.4489   8.3014   0.8131   H         1 RES1   0.0000
    79 H30      4.9669  10.5550  -0.1722   H         1 RES1   0.0000
    80 H31      4.0752  12.3552   1.2480   H         1 RES1   0.0000
    81 H32      3.6230  11.9706   3.6571   H         1 RES1   0.0000
@<TRIPOS>BOND
     1     1     2    1
     2     2     4    1
     3     3     1    1
     4     4    12    1
     5     5     2    1
     6     6     2    1
     7     7     3    1
     8     8     3    1
     9     9     3    1
    10    10    48    3
    11    11    49    3
    12    12    13   ar
    13    13    14   ar
    14    14    15   ar
    15    15    16   ar
    16    16    17   ar
    17    17    12   ar
    18    18     5    1
    19    19    18   ar
    20    20    19   ar
    21    21    20   ar
    22    22    21   ar
    23    23    18   ar
    24    24     6    1
    25    25    24   ar
    26    26    25   ar
    27    27    26   ar
    28    28    27   ar
    29    29    24   ar
    30    30     7    1
    31    31    30   ar
    32    32    31   ar
    33    33    32   ar
    34    34    33   ar
    35    35    30   ar
    36    36     8    1
    37    37    36   ar
    38    38    37   ar
    39    39    38   ar
    40    40    39   ar
    41    41    36   ar
    42    42     9    1
    43    43    42   ar
    44    44    43   ar
    45    45    44   ar
    46    46    45   ar
    47    47    42   ar
    48    48     1    1
    49    49     1    1
    50    50     1    1
    51    51     1    1
    52    52    13    1
    53    53    14    1
    54    54    15    1
    55    55    16    1
    56    56    17    1
    57    57    19    1
    58    58    20    1
    59    59    21    1
    60    60    22    1
    61    61    23    1
    62    62    25    1
    63    63    26    1
    64    64    27    1
    65    65    28    1
    66    66    29    1
    67    67    31    1
    68    68    32    1
    69    69    33    1
    70    70    34    1
    71    71    35    1
    72    72    37    1
    73    73    38    1
    74    74    39    1
    75    75    40    1
    76    76    41    1
    77    77    43    1
    78    78    44    1
    79    79    45    1
    80    80    46    1
    81    81    47    1
    82    22    23   ar
    83    28    29   ar
    84    34    35   ar
    85    40    41   ar
    86    46    47   ar
@<TRIPOS>SUBSTRUCTURE
     1 RES1        1 GROUP             0 ****  ****    0  
@<TRIPOS>CRYSIN
    9.6397   10.4410   18.3810  102.1480   94.6670  107.4020     2     1
