@<TRIPOS>MOLECULE
QOSZON15
    81    86     1     0     0
SMALL
NO_CHARGES
****
Generated from the CSD

@<TRIPOS>ATOM
     1 Fe1      2.1087   7.1097   4.8056   Fe        1 RES1   0.0000
     2 P1       0.8382   6.3942   3.2915   P.3       1 RES1   0.0000
     3 P2       3.3729   8.5448   5.7192   P.3       1 RES1   0.0000
     4 O1       0.2854   7.3934   2.1675   O.3       1 RES1   0.0000
     5 O2       1.5324   5.3107   2.3145   O.3       1 RES1   0.0000
     6 O3      -0.5987   5.7201   3.6355   O.3       1 RES1   0.0000
     7 O4       2.8406   9.4205   6.9562   O.3       1 RES1   0.0000
     8 O5       4.6311   7.8549   6.4227   O.3       1 RES1   0.0000
     9 O6       4.0481   9.7564   4.9112   O.3       1 RES1   0.0000
    10 O7       0.7661   6.3091   7.2836   O.2       1 RES1   0.0000
    11 O8       4.2064   5.0925   4.5372   O.2       1 RES1   0.0000
    12 C1       0.0398   8.7473   2.3113   C.ar      1 RES1   0.0000
    13 C2      -1.1736   9.1706   2.8279   C.ar      1 RES1   0.0000
    14 C3      -1.4730  10.5282   2.8398   C.ar      1 RES1   0.0000
    15 C4      -0.5544  11.4484   2.3445   C.ar      1 RES1   0.0000
    16 C5       0.6669  11.0049   1.8417   C.ar      1 RES1   0.0000
    17 C6       0.9715   9.6495   1.8227   C.ar      1 RES1   0.0000
    18 C7       1.0818   5.0393   1.0252   C.ar      1 RES1   0.0000
    19 C8       1.7305   5.6656  -0.0353   C.ar      1 RES1   0.0000
    20 C9       1.3259   5.3737  -1.3338   C.ar      1 RES1   0.0000
    21 C10      0.2805   4.4817  -1.5651   C.ar      1 RES1   0.0000
    22 C11     -0.3456   3.8651  -0.4893   C.ar      1 RES1   0.0000
    23 C12      0.0602   4.1328   0.8158   C.ar      1 RES1   0.0000
    24 C13     -0.7896   4.7076   4.5640   C.ar      1 RES1   0.0000
    25 C14     -1.9967   4.7144   5.2492   C.ar      1 RES1   0.0000
    26 C15     -2.2725   3.6973   6.1564   C.ar      1 RES1   0.0000
    27 C16     -1.3533   2.6804   6.3856   C.ar      1 RES1   0.0000
    28 C17     -0.1515   2.6835   5.6908   C.ar      1 RES1   0.0000
    29 C18      0.1391   3.6938   4.7711   C.ar      1 RES1   0.0000
    30 C19      2.0347  10.5404   6.9189   C.ar      1 RES1   0.0000
    31 C20      1.9017  11.2108   8.1293   C.ar      1 RES1   0.0000
    32 C21      1.0878  12.3337   8.2025   C.ar      1 RES1   0.0000
    33 C22      0.4153  12.7892   7.0743   C.ar      1 RES1   0.0000
    34 C23      0.5667  12.1171   5.8692   C.ar      1 RES1   0.0000
    35 C24      1.3801  10.9886   5.7790   C.ar      1 RES1   0.0000
    36 C25      5.7203   8.5411   6.9628   C.ar      1 RES1   0.0000
    37 C26      6.9077   8.5183   6.2594   C.ar      1 RES1   0.0000
    38 C27      8.0406   9.0822   6.8243   C.ar      1 RES1   0.0000
    39 C28      7.9819   9.6602   8.0796   C.ar      1 RES1   0.0000
    40 C29      6.7764   9.6816   8.7727   C.ar      1 RES1   0.0000
    41 C30      5.6309   9.1218   8.2154   C.ar      1 RES1   0.0000
    42 C31      4.2917   9.9045   3.5632   C.ar      1 RES1   0.0000
    43 C32      4.8166   8.8817   2.7821   C.ar      1 RES1   0.0000
    44 C33      5.0590   9.1255   1.4355   C.ar      1 RES1   0.0000
    45 C34      4.7983  10.3735   0.8816   C.ar      1 RES1   0.0000
    46 C35      4.2901  11.3889   1.6826   C.ar      1 RES1   0.0000
    47 C36      4.0371  11.1621   3.0328   C.ar      1 RES1   0.0000
    48 C37      1.2940   6.5915   6.3128   C.1       1 RES1   0.0000
    49 C38      3.3676   5.8596   4.6620   C.1       1 RES1   0.0000
    50 H1       1.1206   8.2589   4.7543   H         1 RES1   0.0000
    51 H2       2.6239   7.7833   3.5861   H         1 RES1   0.0000
    52 H3      -1.8786   8.4548   3.1831   H         1 RES1   0.0000
    53 H4      -2.4269  10.8963   3.2595   H         1 RES1   0.0000
    54 H5      -0.7938  12.5163   2.2973   H         1 RES1   0.0000
    55 H6       1.3972  11.7493   1.4362   H         1 RES1   0.0000
    56 H7       1.9130   9.2893   1.3936   H         1 RES1   0.0000
    57 H8       2.5563   6.3909   0.1775   H         1 RES1   0.0000
    58 H9       1.8137   5.8489  -2.1925   H         1 RES1   0.0000
    59 H10     -0.0448   4.2950  -2.5849   H         1 RES1   0.0000
    60 H11     -1.1544   3.1431  -0.6835   H         1 RES1   0.0000
    61 H12     -0.3756   3.6724   1.6546   H         1 RES1   0.0000
    62 H13     -2.6744   5.5246   5.0650   H         1 RES1   0.0000
    63 H14     -3.2247   3.6906   6.7107   H         1 RES1   0.0000
    64 H15     -1.5827   1.8724   7.1208   H         1 RES1   0.0000
    65 H16      0.5882   1.8842   5.8230   H         1 RES1   0.0000
    66 H17      1.0589   3.6525   4.2004   H         1 RES1   0.0000
    67 H18      2.4577  10.8220   8.9760   H         1 RES1   0.0000
    68 H19      0.9967  12.8539   9.1464   H         1 RES1   0.0000
    69 H20     -0.2100  13.6747   7.1368   H         1 RES1   0.0000
    70 H21      0.0449  12.4623   4.9851   H         1 RES1   0.0000
    71 H22      1.4641  10.4738   4.8164   H         1 RES1   0.0000
    72 H23      6.9500   7.9937   5.3064   H         1 RES1   0.0000
    73 H24      8.9629   9.0420   6.2757   H         1 RES1   0.0000
    74 H25      8.9214  10.0595   8.5392   H         1 RES1   0.0000
    75 H26      6.7068  10.1256   9.7660   H         1 RES1   0.0000
    76 H27      4.6836   9.1626   8.7434   H         1 RES1   0.0000
    77 H28      5.0329   7.9058   3.1991   H         1 RES1   0.0000
    78 H29      5.4584   8.3009   0.8149   H         1 RES1   0.0000
    79 H30      4.9627  10.5676  -0.1829   H         1 RES1   0.0000
    80 H31      4.0591  12.3425   1.2587   H         1 RES1   0.0000
    81 H32      3.6229  11.9559   3.6447   H         1 RES1   0.0000
@<TRIPOS>BOND
     1     1     2    1
     2     2     4    1
     3     3     1    1
     4     4    12    1
     5     5     2    1
     6     6     2    1
     7     7     3    1
     8     8     3    1
     9     9     3    1
    10    10    48    3
    11    11    49    3
    12    12    13   ar
    13    13    14   ar
    14    14    15   ar
    15    15    16   ar
    16    16    17   ar
    17    17    12   ar
    18    18     5    1
    19    19    18   ar
    20    20    19   ar
    21    21    20   ar
    22    22    21   ar
    23    23    18   ar
    24    24     6    1
    25    25    24   ar
    26    26    25   ar
    27    27    26   ar
    28    28    27   ar
    29    29    24   ar
    30    30     7    1
    31    31    30   ar
    32    32    31   ar
    33    33    32   ar
    34    34    33   ar
    35    35    30   ar
    36    36     8    1
    37    37    36   ar
    38    38    37   ar
    39    39    38   ar
    40    40    39   ar
    41    41    36   ar
    42    42     9    1
    43    43    42   ar
    44    44    43   ar
    45    45    44   ar
    46    46    45   ar
    47    47    42   ar
    48    48     1    1
    49    49     1    1
    50    50     1    1
    51    51     1    1
    52    52    13    1
    53    53    14    1
    54    54    15    1
    55    55    16    1
    56    56    17    1
    57    57    19    1
    58    58    20    1
    59    59    21    1
    60    60    22    1
    61    61    23    1
    62    62    25    1
    63    63    26    1
    64    64    27    1
    65    65    28    1
    66    66    29    1
    67    67    31    1
    68    68    32    1
    69    69    33    1
    70    70    34    1
    71    71    35    1
    72    72    37    1
    73    73    38    1
    74    74    39    1
    75    75    40    1
    76    76    41    1
    77    77    43    1
    78    78    44    1
    79    79    45    1
    80    80    46    1
    81    81    47    1
    82    22    23   ar
    83    28    29   ar
    84    34    35   ar
    85    40    41   ar
    86    46    47   ar
@<TRIPOS>SUBSTRUCTURE
     1 RES1        1 GROUP             0 ****  ****    0  
@<TRIPOS>CRYSIN
    9.6397   10.4410   18.3810  102.1480   94.6670  107.4020     2     1
