@<TRIPOS>MOLECULE
QOSZON47
    81    86     1     0     0
SMALL
NO_CHARGES
****
Generated from the CSD

@<TRIPOS>ATOM
     1 Fe1      2.1087   7.1096   4.8054   Fe        1 RES1   0.0000
     2 P1       0.8394   6.3943   3.2925   P.3       1 RES1   0.0000
     3 P2       3.3718   8.5441   5.7183   P.3       1 RES1   0.0000
     4 O1       0.2876   7.3910   2.1657   O.3       1 RES1   0.0000
     5 O2       1.5330   5.3113   2.3180   O.3       1 RES1   0.0000
     6 O3      -0.6012   5.7234   3.6316   O.3       1 RES1   0.0000
     7 O4       2.8431   9.4173   6.9578   O.3       1 RES1   0.0000
     8 O5       4.6296   7.8498   6.4213   O.3       1 RES1   0.0000
     9 O6       4.0476   9.7595   4.9155   O.3       1 RES1   0.0000
    10 O7       0.7663   6.3069   7.2816   O.2       1 RES1   0.0000
    11 O8       4.2072   5.0911   4.5372   O.2       1 RES1   0.0000
    12 C1       0.0386   8.7544   2.3123   C.ar      1 RES1   0.0000
    13 C2      -1.1695   9.1726   2.8254   C.ar      1 RES1   0.0000
    14 C3      -1.4598  10.5271   2.8352   C.ar      1 RES1   0.0000
    15 C4      -0.5528  11.4389   2.3455   C.ar      1 RES1   0.0000
    16 C5       0.6590  10.9995   1.8453   C.ar      1 RES1   0.0000
    17 C6       0.9680   9.6515   1.8256   C.ar      1 RES1   0.0000
    18 C7       1.0811   5.0368   1.0153   C.ar      1 RES1   0.0000
    19 C8       1.7246   5.6621  -0.0353   C.ar      1 RES1   0.0000
    20 C9       1.3210   5.3703  -1.3304   C.ar      1 RES1   0.0000
    21 C10      0.2827   4.4806  -1.5573   C.ar      1 RES1   0.0000
    22 C11     -0.3390   3.8704  -0.4918   C.ar      1 RES1   0.0000
    23 C12      0.0621   4.1354   0.8106   C.ar      1 RES1   0.0000
    24 C13     -0.7896   4.6992   4.5661   C.ar      1 RES1   0.0000
    25 C14     -1.9907   4.7072   5.2501   C.ar      1 RES1   0.0000
    26 C15     -2.2679   3.6925   6.1516   C.ar      1 RES1   0.0000
    27 C16     -1.3515   2.6846   6.3810   C.ar      1 RES1   0.0000
    28 C17     -0.1595   2.6925   5.6927   C.ar      1 RES1   0.0000
    29 C18      0.1338   3.6929   4.7735   C.ar      1 RES1   0.0000
    30 C19      2.0288  10.5446   6.9203   C.ar      1 RES1   0.0000
    31 C20      1.8986  11.2120   8.1256   C.ar      1 RES1   0.0000
    32 C21      1.0872  12.3283   8.1943   C.ar      1 RES1   0.0000
    33 C22      0.4201  12.7805   7.0723   C.ar      1 RES1   0.0000
    34 C23      0.5696  12.1108   5.8720   C.ar      1 RES1   0.0000
    35 C24      1.3774  10.9917   5.7831   C.ar      1 RES1   0.0000
    36 C25      5.7267   8.5449   6.9677   C.ar      1 RES1   0.0000
    37 C26      6.9058   8.5177   6.2610   C.ar      1 RES1   0.0000
    38 C27      8.0371   9.0869   6.8268   C.ar      1 RES1   0.0000
    39 C28      7.9751   9.6597   8.0786   C.ar      1 RES1   0.0000
    40 C29      6.7811   9.6798   8.7665   C.ar      1 RES1   0.0000
    41 C30      5.6326   9.1208   8.2153   C.ar      1 RES1   0.0000
    42 C31      4.2949   9.9027   3.5538   C.ar      1 RES1   0.0000
    43 C32      4.8136   8.8873   2.7840   C.ar      1 RES1   0.0000
    44 C33      5.0532   9.1328   1.4369   C.ar      1 RES1   0.0000
    45 C34      4.7977  10.3706   0.8878   C.ar      1 RES1   0.0000
    46 C35      4.2940  11.3810   1.6812   C.ar      1 RES1   0.0000
    47 C36      4.0389  11.1572   3.0290   C.ar      1 RES1   0.0000
    48 C37      1.2940   6.5917   6.3123   C.1       1 RES1   0.0000
    49 C38      3.3658   5.8639   4.6636   C.1       1 RES1   0.0000
    50 H1       1.1863   8.2174   4.7685   H         1 RES1   0.0000
    51 H2       2.5608   7.7693   3.6216   H         1 RES1   0.0000
    52 H3      -1.7568   8.5468   3.1352   H         1 RES1   0.0000
    53 H4      -2.2834  10.7767   3.1423   H         1 RES1   0.0000
    54 H5      -0.7487  12.3451   2.3434   H         1 RES1   0.0000
    55 H6       1.2463  11.5867   1.5268   H         1 RES1   0.0000
    56 H7       1.7590   9.3441   1.4522   H         1 RES1   0.0000
    57 H8       2.4234   6.2809   0.1402   H         1 RES1   0.0000
    58 H9       1.7463   5.7638  -2.0540   H         1 RES1   0.0000
    59 H10      0.0187   4.3313  -2.4535   H         1 RES1   0.0000
    60 H11     -1.0698   3.2473  -0.6231   H         1 RES1   0.0000
    61 H12     -0.3282   3.7281   1.5179   H         1 RES1   0.0000
    62 H13     -2.5617   5.3914   5.0792   H         1 RES1   0.0000
    63 H14     -3.1075   3.6865   6.6095   H         1 RES1   0.0000
    64 H15     -1.5492   1.9834   6.9983   H         1 RES1   0.0000
    65 H16      0.4289   2.0160   5.8141   H         1 RES1   0.0000
    66 H17      0.9236   3.6738   4.2732   H         1 RES1   0.0000
    67 H18      2.3668  10.8803   8.8606   H         1 RES1   0.0000
    68 H19      1.0287  12.7315   8.9618   H         1 RES1   0.0000
    69 H20     -0.0940  13.4713   7.1527   H         1 RES1   0.0000
    70 H21      0.1050  12.4380   5.0650   H         1 RES1   0.0000
    71 H22      1.4857  10.5785   4.9371   H         1 RES1   0.0000
    72 H23      6.9059   8.1029   5.4254   H         1 RES1   0.0000
    73 H24      8.8305   9.0574   6.3716   H         1 RES1   0.0000
    74 H25      8.7857  10.0350   8.4789   H         1 RES1   0.0000
    75 H26      6.7168  10.0743   9.6151   H         1 RES1   0.0000
    76 H27      4.8095   9.1198   8.6688   H         1 RES1   0.0000
    77 H28      5.0134   8.0282   3.1370   H         1 RES1   0.0000
    78 H29      5.3931   8.4916   0.9658   H         1 RES1   0.0000
    79 H30      4.9252  10.4874  -0.0124   H         1 RES1   0.0000
    80 H31      4.1198  12.2320   1.3404   H         1 RES1   0.0000
    81 H32      3.7112  11.8470   3.5559   H         1 RES1   0.0000
@<TRIPOS>BOND
     1     1     2    1
     2     2     4    1
     3     3     1    1
     4     4    12    1
     5     5     2    1
     6     6     2    1
     7     7     3    1
     8     8     3    1
     9     9     3    1
    10    10    48    3
    11    11    49    3
    12    12    13   ar
    13    13    14   ar
    14    14    15   ar
    15    15    16   ar
    16    16    17   ar
    17    17    12   ar
    18    18     5    1
    19    19    18   ar
    20    20    19   ar
    21    21    20   ar
    22    22    21   ar
    23    23    18   ar
    24    24     6    1
    25    25    24   ar
    26    26    25   ar
    27    27    26   ar
    28    28    27   ar
    29    29    24   ar
    30    30     7    1
    31    31    30   ar
    32    32    31   ar
    33    33    32   ar
    34    34    33   ar
    35    35    30   ar
    36    36     8    1
    37    37    36   ar
    38    38    37   ar
    39    39    38   ar
    40    40    39   ar
    41    41    36   ar
    42    42     9    1
    43    43    42   ar
    44    44    43   ar
    45    45    44   ar
    46    46    45   ar
    47    47    42   ar
    48    48     1    1
    49    49     1    1
    50    50     1    1
    51    51     1    1
    52    52    13    1
    53    53    14    1
    54    54    15    1
    55    55    16    1
    56    56    17    1
    57    57    19    1
    58    58    20    1
    59    59    21    1
    60    60    22    1
    61    61    23    1
    62    62    25    1
    63    63    26    1
    64    64    27    1
    65    65    28    1
    66    66    29    1
    67    67    31    1
    68    68    32    1
    69    69    33    1
    70    70    34    1
    71    71    35    1
    72    72    37    1
    73    73    38    1
    74    74    39    1
    75    75    40    1
    76    76    41    1
    77    77    43    1
    78    78    44    1
    79    79    45    1
    80    80    46    1
    81    81    47    1
    82    22    23   ar
    83    28    29   ar
    84    34    35   ar
    85    40    41   ar
    86    46    47   ar
@<TRIPOS>SUBSTRUCTURE
     1 RES1        1 GROUP             0 ****  ****    0  
@<TRIPOS>CRYSIN
    9.6397   10.4410   18.3810  102.1480   94.6670  107.4020     2     1
