@<TRIPOS>MOLECULE
QOSZON
    81    86     1     0     0
SMALL
NO_CHARGES
****
Generated from the CSD

@<TRIPOS>ATOM
     1 Fe1      2.1086   7.1097   4.8054   Fe        1 RES1   0.0000
     2 P1       0.8395   6.3944   3.2923   P.3       1 RES1   0.0000
     3 P2       3.3713   8.5443   5.7185   P.3       1 RES1   0.0000
     4 O1       0.2879   7.3907   2.1657   O.3       1 RES1   0.0000
     5 O2       1.5340   5.3108   2.3186   O.3       1 RES1   0.0000
     6 O3      -0.6008   5.7238   3.6319   O.3       1 RES1   0.0000
     7 O4       2.8423   9.4168   6.9578   O.3       1 RES1   0.0000
     8 O5       4.6297   7.8488   6.4213   O.3       1 RES1   0.0000
     9 O6       4.0469   9.7583   4.9162   O.3       1 RES1   0.0000
    10 O7       0.7666   6.3077   7.2825   O.2       1 RES1   0.0000
    11 O8       4.2063   5.0902   4.5375   O.2       1 RES1   0.0000
    12 C1       0.0376   8.7545   2.3113   C.ar      1 RES1   0.0000
    13 C2      -1.1681   9.1703   2.8267   C.ar      1 RES1   0.0000
    14 C3      -1.4630  10.5280   2.8359   C.ar      1 RES1   0.0000
    15 C4      -0.5525  11.4409   2.3459   C.ar      1 RES1   0.0000
    16 C5       0.6601  11.0001   1.8430   C.ar      1 RES1   0.0000
    17 C6       0.9690   9.6502   1.8270   C.ar      1 RES1   0.0000
    18 C7       1.0814   5.0358   1.0141   C.ar      1 RES1   0.0000
    19 C8       1.7256   5.6621  -0.0353   C.ar      1 RES1   0.0000
    20 C9       1.3208   5.3715  -1.3313   C.ar      1 RES1   0.0000
    21 C10      0.2819   4.4821  -1.5555   C.ar      1 RES1   0.0000
    22 C11     -0.3382   3.8719  -0.4935   C.ar      1 RES1   0.0000
    23 C12      0.0616   4.1329   0.8127   C.ar      1 RES1   0.0000
    24 C13     -0.7900   4.6999   4.5666   C.ar      1 RES1   0.0000
    25 C14     -1.9934   4.7078   5.2478   C.ar      1 RES1   0.0000
    26 C15     -2.2679   3.6925   6.1515   C.ar      1 RES1   0.0000
    27 C16     -1.3511   2.6866   6.3808   C.ar      1 RES1   0.0000
    28 C17     -0.1575   2.6898   5.6916   C.ar      1 RES1   0.0000
    29 C18      0.1344   3.6948   4.7738   C.ar      1 RES1   0.0000
    30 C19      2.0292  10.5443   6.9209   C.ar      1 RES1   0.0000
    31 C20      1.8978  11.2118   8.1261   C.ar      1 RES1   0.0000
    32 C21      1.0878  12.3291   8.1950   C.ar      1 RES1   0.0000
    33 C22      0.4191  12.7831   7.0736   C.ar      1 RES1   0.0000
    34 C23      0.5705  12.1108   5.8722   C.ar      1 RES1   0.0000
    35 C24      1.3781  10.9918   5.7829   C.ar      1 RES1   0.0000
    36 C25      5.7267   8.5460   6.9679   C.ar      1 RES1   0.0000
    37 C26      6.9059   8.5179   6.2603   C.ar      1 RES1   0.0000
    38 C27      8.0386   9.0875   6.8282   C.ar      1 RES1   0.0000
    39 C28      7.9716   9.6587   8.0786   C.ar      1 RES1   0.0000
    40 C29      6.7817   9.6804   8.7679   C.ar      1 RES1   0.0000
    41 C30      5.6335   9.1195   8.2126   C.ar      1 RES1   0.0000
    42 C31      4.2966   9.9030   3.5533   C.ar      1 RES1   0.0000
    43 C32      4.8133   8.8872   2.7844   C.ar      1 RES1   0.0000
    44 C33      5.0552   9.1302   1.4353   C.ar      1 RES1   0.0000
    45 C34      4.7960  10.3721   0.8898   C.ar      1 RES1   0.0000
    46 C35      4.2942  11.3812   1.6803   C.ar      1 RES1   0.0000
    47 C36      4.0369  11.1597   3.0310   C.ar      1 RES1   0.0000
    48 C37      1.2938   6.5929   6.3114   C.1       1 RES1   0.0000
    49 C38      3.3658   5.8629   4.6636   C.1       1 RES1   0.0000
    50 H1       1.1796   8.2050   4.7507   H         1 RES1   0.0000
    51 H2       2.5342   7.7657   3.6199   H         1 RES1   0.0000
    52 H3      -1.7844   8.5024   3.1530   H         1 RES1   0.0000
    53 H4      -2.3199  10.7925   3.1583   H         1 RES1   0.0000
    54 H5      -0.7542  12.3750   2.3434   H         1 RES1   0.0000
    55 H6       1.2704  11.5917   1.5463   H         1 RES1   0.0000
    56 H7       1.7642   9.3405   1.4274   H         1 RES1   0.0000
    57 H8       2.4359   6.2700   0.1438   H         1 RES1   0.0000
    58 H9       1.7788   5.7824  -2.0878   H         1 RES1   0.0000
    59 H10      0.0263   4.3544  -2.4269   H         1 RES1   0.0000
    60 H11     -1.0789   3.2487  -0.6285   H         1 RES1   0.0000
    61 H12     -0.3500   3.6914   1.5445   H         1 RES1   0.0000
    62 H13     -2.5843   5.4299   5.0845   H         1 RES1   0.0000
    63 H14     -3.1248   3.7019   6.6272   H         1 RES1   0.0000
    64 H15     -1.5320   1.9933   6.9983   H         1 RES1   0.0000
    65 H16      0.4717   1.9902   5.8372   H         1 RES1   0.0000
    66 H17      0.9180   3.6666   4.2625   H         1 RES1   0.0000
    67 H18      2.3913  10.8775   8.8872   H         1 RES1   0.0000
    68 H19      1.0077  12.7420   8.9991   H         1 RES1   0.0000
    69 H20     -0.1183  13.4949   7.1385   H         1 RES1   0.0000
    70 H21      0.0871  12.4199   5.0614   H         1 RES1   0.0000
    71 H22      1.4948  10.5799   4.9318   H         1 RES1   0.0000
    72 H23      6.9301   8.0847   5.4183   H         1 RES1   0.0000
    73 H24      8.8503   9.0588   6.3663   H         1 RES1   0.0000
    74 H25      8.7922  10.0450   8.4789   H         1 RES1   0.0000
    75 H26      6.7064  10.0721   9.6240   H         1 RES1   0.0000
    76 H27      4.8217   9.1080   8.6759   H         1 RES1   0.0000
    77 H28      5.0166   7.9943   3.1530   H         1 RES1   0.0000
    78 H29      5.4104   8.4468   0.9462   H         1 RES1   0.0000
    79 H30      4.9565  10.4993  -0.0320   H         1 RES1   0.0000
    80 H31      4.1206  12.2605   1.3457   H         1 RES1   0.0000
    81 H32      3.6882  11.8660   3.5595   H         1 RES1   0.0000
@<TRIPOS>BOND
     1     1     2    1
     2     2     4    1
     3     3     1    1
     4     4    12    1
     5     5     2    1
     6     6     2    1
     7     7     3    1
     8     8     3    1
     9     9     3    1
    10    10    48    3
    11    11    49    3
    12    12    13   ar
    13    13    14   ar
    14    14    15   ar
    15    15    16   ar
    16    16    17   ar
    17    17    12   ar
    18    18     5    1
    19    19    18   ar
    20    20    19   ar
    21    21    20   ar
    22    22    21   ar
    23    23    18   ar
    24    24     6    1
    25    25    24   ar
    26    26    25   ar
    27    27    26   ar
    28    28    27   ar
    29    29    24   ar
    30    30     7    1
    31    31    30   ar
    32    32    31   ar
    33    33    32   ar
    34    34    33   ar
    35    35    30   ar
    36    36     8    1
    37    37    36   ar
    38    38    37   ar
    39    39    38   ar
    40    40    39   ar
    41    41    36   ar
    42    42     9    1
    43    43    42   ar
    44    44    43   ar
    45    45    44   ar
    46    46    45   ar
    47    47    42   ar
    48    48     1    1
    49    49     1    1
    50    50     1    1
    51    51     1    1
    52    52    13    1
    53    53    14    1
    54    54    15    1
    55    55    16    1
    56    56    17    1
    57    57    19    1
    58    58    20    1
    59    59    21    1
    60    60    22    1
    61    61    23    1
    62    62    25    1
    63    63    26    1
    64    64    27    1
    65    65    28    1
    66    66    29    1
    67    67    31    1
    68    68    32    1
    69    69    33    1
    70    70    34    1
    71    71    35    1
    72    72    37    1
    73    73    38    1
    74    74    39    1
    75    75    40    1
    76    76    41    1
    77    77    43    1
    78    78    44    1
    79    79    45    1
    80    80    46    1
    81    81    47    1
    82    22    23   ar
    83    28    29   ar
    84    34    35   ar
    85    40    41   ar
    86    46    47   ar
@<TRIPOS>SUBSTRUCTURE
     1 RES1        1 GROUP             0 ****  ****    0  
@<TRIPOS>CRYSIN
    9.6397   10.4410   18.3810  102.1480   94.6670  107.4020     2     1
