@<TRIPOS>MOLECULE
QOSZON08
    81    86     1     0     0
SMALL
NO_CHARGES
****
Generated from the CSD

@<TRIPOS>ATOM
     1 Fe1      2.1087   7.1097   4.8056   Fe        1 RES1   0.0000
     2 P1       0.8382   6.3941   3.2916   P.3       1 RES1   0.0000
     3 P2       3.3730   8.5448   5.7193   P.3       1 RES1   0.0000
     4 O1       0.2857   7.3933   2.1673   O.3       1 RES1   0.0000
     5 O2       1.5325   5.3108   2.3141   O.3       1 RES1   0.0000
     6 O3      -0.5991   5.7204   3.6355   O.3       1 RES1   0.0000
     7 O4       2.8408   9.4204   6.9560   O.3       1 RES1   0.0000
     8 O5       4.6311   7.8549   6.4225   O.3       1 RES1   0.0000
     9 O6       4.0484   9.7568   4.9110   O.3       1 RES1   0.0000
    10 O7       0.7666   6.3089   7.2829   O.2       1 RES1   0.0000
    11 O8       4.2059   5.0923   4.5370   O.2       1 RES1   0.0000
    12 C1       0.0399   8.7470   2.3118   C.ar      1 RES1   0.0000
    13 C2      -1.1732   9.1711   2.8268   C.ar      1 RES1   0.0000
    14 C3      -1.4703  10.5274   2.8396   C.ar      1 RES1   0.0000
    15 C4      -0.5543  11.4476   2.3452   C.ar      1 RES1   0.0000
    16 C5       0.6657  11.0045   1.8433   C.ar      1 RES1   0.0000
    17 C6       0.9711   9.6497   1.8224   C.ar      1 RES1   0.0000
    18 C7       1.0825   5.0389   1.0258   C.ar      1 RES1   0.0000
    19 C8       1.7301   5.6653  -0.0364   C.ar      1 RES1   0.0000
    20 C9       1.3253   5.3731  -1.3333   C.ar      1 RES1   0.0000
    21 C10      0.2817   4.4815  -1.5642   C.ar      1 RES1   0.0000
    22 C11     -0.3451   3.8655  -0.4886   C.ar      1 RES1   0.0000
    23 C12      0.0600   4.1343   0.8143   C.ar      1 RES1   0.0000
    24 C13     -0.7897   4.7064   4.5636   C.ar      1 RES1   0.0000
    25 C14     -1.9952   4.7146   5.2510   C.ar      1 RES1   0.0000
    26 C15     -2.2723   3.6973   6.1562   C.ar      1 RES1   0.0000
    27 C16     -1.3530   2.6795   6.3860   C.ar      1 RES1   0.0000
    28 C17     -0.1534   2.6851   5.6906   C.ar      1 RES1   0.0000
    29 C18      0.1382   3.6929   4.7715   C.ar      1 RES1   0.0000
    30 C19      2.0347  10.5407   6.9186   C.ar      1 RES1   0.0000
    31 C20      1.9024  11.2102   8.1293   C.ar      1 RES1   0.0000
    32 C21      1.0879  12.3331   8.2016   C.ar      1 RES1   0.0000
    33 C22      0.4152  12.7882   7.0737   C.ar      1 RES1   0.0000
    34 C23      0.5673  12.1174   5.8704   C.ar      1 RES1   0.0000
    35 C24      1.3801  10.9888   5.7792   C.ar      1 RES1   0.0000
    36 C25      5.7208   8.5401   6.9628   C.ar      1 RES1   0.0000
    37 C26      6.9081   8.5187   6.2603   C.ar      1 RES1   0.0000
    38 C27      8.0388   9.0821   6.8252   C.ar      1 RES1   0.0000
    39 C28      7.9825   9.6601   8.0794   C.ar      1 RES1   0.0000
    40 C29      6.7764   9.6819   8.7731   C.ar      1 RES1   0.0000
    41 C30      5.6308   9.1218   8.2158   C.ar      1 RES1   0.0000
    42 C31      4.2917   9.9041   3.5638   C.ar      1 RES1   0.0000
    43 C32      4.8170   8.8817   2.7814   C.ar      1 RES1   0.0000
    44 C33      5.0589   9.1270   1.4368   C.ar      1 RES1   0.0000
    45 C34      4.7990  10.3729   0.8806   C.ar      1 RES1   0.0000
    46 C35      4.2894  11.3883   1.6839   C.ar      1 RES1   0.0000
    47 C36      4.0392  11.1606   3.0308   C.ar      1 RES1   0.0000
    48 C37      1.2943   6.5906   6.3130   C.1       1 RES1   0.0000
    49 C38      3.3677   5.8590   4.6621   C.1       1 RES1   0.0000
    50 H1       1.1222   8.2627   4.7667   H         1 RES1   0.0000
    51 H2       2.6191   7.7718   3.5844   H         1 RES1   0.0000
    52 H3      -1.8672   8.4610   3.1902   H         1 RES1   0.0000
    53 H4      -2.4100  10.8638   3.2541   H         1 RES1   0.0000
    54 H5      -0.7844  12.5013   2.2742   H         1 RES1   0.0000
    55 H6       1.3843  11.7334   1.4398   H         1 RES1   0.0000
    56 H7       1.9092   9.3019   1.3989   H         1 RES1   0.0000
    57 H8       2.5532   6.3796   0.1829   H         1 RES1   0.0000
    58 H9       1.8158   5.8582  -2.1819   H         1 RES1   0.0000
    59 H10     -0.0489   4.2903  -2.5742   H         1 RES1   0.0000
    60 H11     -1.1603   3.1419  -0.6746   H         1 RES1   0.0000
    61 H12     -0.3627   3.6763   1.6510   H         1 RES1   0.0000
    62 H13     -2.6712   5.5244   5.0579   H         1 RES1   0.0000
    63 H14     -3.2275   3.7014   6.7071   H         1 RES1   0.0000
    64 H15     -1.5868   1.8824   7.1208   H         1 RES1   0.0000
    65 H16      0.5677   1.8980   5.8159   H         1 RES1   0.0000
    66 H17      1.0490   3.6691   4.2057   H         1 RES1   0.0000
    67 H18      2.4461  10.8171   8.9795   H         1 RES1   0.0000
    68 H19      1.0006  12.8571   9.1340   H         1 RES1   0.0000
    69 H20     -0.2082  13.6646   7.1332   H         1 RES1   0.0000
    70 H21      0.0611  12.4618   4.9868   H         1 RES1   0.0000
    71 H22      1.4606  10.4847   4.8164   H         1 RES1   0.0000
    72 H23      6.9381   8.0122   5.3082   H         1 RES1   0.0000
    73 H24      8.9505   9.0520   6.2793   H         1 RES1   0.0000
    74 H25      8.9198  10.0577   8.5463   H         1 RES1   0.0000
    75 H26      6.7137  10.1356   9.7695   H         1 RES1   0.0000
    76 H27      4.6794   9.1759   8.7381   H         1 RES1   0.0000
    77 H28      5.0271   7.9124   3.2044   H         1 RES1   0.0000
    78 H29      5.4663   8.3170   0.8184   H         1 RES1   0.0000
    79 H30      4.9628  10.5591  -0.1846   H         1 RES1   0.0000
    80 H31      4.0699  12.3286   1.2427   H         1 RES1   0.0000
    81 H32      3.6338  11.9461   3.6323   H         1 RES1   0.0000
@<TRIPOS>BOND
     1     1     2    1
     2     2     4    1
     3     3     1    1
     4     4    12    1
     5     5     2    1
     6     6     2    1
     7     7     3    1
     8     8     3    1
     9     9     3    1
    10    10    48    3
    11    11    49    3
    12    12    13   ar
    13    13    14   ar
    14    14    15   ar
    15    15    16   ar
    16    16    17   ar
    17    17    12   ar
    18    18     5    1
    19    19    18   ar
    20    20    19   ar
    21    21    20   ar
    22    22    21   ar
    23    23    18   ar
    24    24     6    1
    25    25    24   ar
    26    26    25   ar
    27    27    26   ar
    28    28    27   ar
    29    29    24   ar
    30    30     7    1
    31    31    30   ar
    32    32    31   ar
    33    33    32   ar
    34    34    33   ar
    35    35    30   ar
    36    36     8    1
    37    37    36   ar
    38    38    37   ar
    39    39    38   ar
    40    40    39   ar
    41    41    36   ar
    42    42     9    1
    43    43    42   ar
    44    44    43   ar
    45    45    44   ar
    46    46    45   ar
    47    47    42   ar
    48    48     1    1
    49    49     1    1
    50    50     1    1
    51    51     1    1
    52    52    13    1
    53    53    14    1
    54    54    15    1
    55    55    16    1
    56    56    17    1
    57    57    19    1
    58    58    20    1
    59    59    21    1
    60    60    22    1
    61    61    23    1
    62    62    25    1
    63    63    26    1
    64    64    27    1
    65    65    28    1
    66    66    29    1
    67    67    31    1
    68    68    32    1
    69    69    33    1
    70    70    34    1
    71    71    35    1
    72    72    37    1
    73    73    38    1
    74    74    39    1
    75    75    40    1
    76    76    41    1
    77    77    43    1
    78    78    44    1
    79    79    45    1
    80    80    46    1
    81    81    47    1
    82    22    23   ar
    83    28    29   ar
    84    34    35   ar
    85    40    41   ar
    86    46    47   ar
@<TRIPOS>SUBSTRUCTURE
     1 RES1        1 GROUP             0 ****  ****    0  
@<TRIPOS>CRYSIN
    9.6397   10.4410   18.3810  102.1480   94.6670  107.4020     2     1
