@<TRIPOS>MOLECULE
QOSZON31
    81    86     1     0     0
SMALL
NO_CHARGES
****
Generated from the CSD

@<TRIPOS>ATOM
     1 Fe1      2.1087   7.1096   4.8056   Fe        1 RES1   0.0000
     2 P1       0.8388   6.3940   3.2915   P.3       1 RES1   0.0000
     3 P2       3.3727   8.5447   5.7192   P.3       1 RES1   0.0000
     4 O1       0.2859   7.3933   2.1669   O.3       1 RES1   0.0000
     5 O2       1.5317   5.3108   2.3152   O.3       1 RES1   0.0000
     6 O3      -0.5995   5.7204   3.6349   O.3       1 RES1   0.0000
     7 O4       2.8404   9.4199   6.9564   O.3       1 RES1   0.0000
     8 O5       4.6317   7.8541   6.4227   O.3       1 RES1   0.0000
     9 O6       4.0489   9.7566   4.9114   O.3       1 RES1   0.0000
    10 O7       0.7669   6.3075   7.2825   O.2       1 RES1   0.0000
    11 O8       4.2063   5.0927   4.5375   O.2       1 RES1   0.0000
    12 C1       0.0393   8.7467   2.3104   C.ar      1 RES1   0.0000
    13 C2      -1.1739   9.1695   2.8284   C.ar      1 RES1   0.0000
    14 C3      -1.4720  10.5288   2.8391   C.ar      1 RES1   0.0000
    15 C4      -0.5540  11.4488   2.3445   C.ar      1 RES1   0.0000
    16 C5       0.6670  11.0047   1.8419   C.ar      1 RES1   0.0000
    17 C6       0.9723   9.6483   1.8234   C.ar      1 RES1   0.0000
    18 C7       1.0826   5.0390   1.0242   C.ar      1 RES1   0.0000
    19 C8       1.7303   5.6658  -0.0344   C.ar      1 RES1   0.0000
    20 C9       1.3247   5.3745  -1.3331   C.ar      1 RES1   0.0000
    21 C10      0.2808   4.4811  -1.5646   C.ar      1 RES1   0.0000
    22 C11     -0.3450   3.8663  -0.4896   C.ar      1 RES1   0.0000
    23 C12      0.0603   4.1330   0.8158   C.ar      1 RES1   0.0000
    24 C13     -0.7894   4.7074   4.5631   C.ar      1 RES1   0.0000
    25 C14     -1.9970   4.7139   5.2496   C.ar      1 RES1   0.0000
    26 C15     -2.2738   3.6967   6.1559   C.ar      1 RES1   0.0000
    27 C16     -1.3530   2.6806   6.3849   C.ar      1 RES1   0.0000
    28 C17     -0.1516   2.6840   5.6916   C.ar      1 RES1   0.0000
    29 C18      0.1387   3.6945   4.7708   C.ar      1 RES1   0.0000
    30 C19      2.0337  10.5399   6.9202   C.ar      1 RES1   0.0000
    31 C20      1.9020  11.2100   8.1302   C.ar      1 RES1   0.0000
    32 C21      1.0878  12.3341   8.2025   C.ar      1 RES1   0.0000
    33 C22      0.4144  12.7896   7.0744   C.ar      1 RES1   0.0000
    34 C23      0.5668  12.1159   5.8688   C.ar      1 RES1   0.0000
    35 C24      1.3799  10.9876   5.7783   C.ar      1 RES1   0.0000
    36 C25      5.7198   8.5402   6.9633   C.ar      1 RES1   0.0000
    37 C26      6.9074   8.5156   6.2578   C.ar      1 RES1   0.0000
    38 C27      8.0414   9.0841   6.8223   C.ar      1 RES1   0.0000
    39 C28      7.9813   9.6614   8.0803   C.ar      1 RES1   0.0000
    40 C29      6.7772   9.6823   8.7731   C.ar      1 RES1   0.0000
    41 C30      5.6300   9.1207   8.2169   C.ar      1 RES1   0.0000
    42 C31      4.2920   9.9055   3.5638   C.ar      1 RES1   0.0000
    43 C32      4.8164   8.8799   2.7821   C.ar      1 RES1   0.0000
    44 C33      5.0583   9.1253   1.4346   C.ar      1 RES1   0.0000
    45 C34      4.7983  10.3726   0.8807   C.ar      1 RES1   0.0000
    46 C35      4.2900  11.3900   1.6823   C.ar      1 RES1   0.0000
    47 C36      4.0365  11.1626   3.0331   C.ar      1 RES1   0.0000
    48 C37      1.2940   6.5913   6.3139   C.1       1 RES1   0.0000
    49 C38      3.3689   5.8589   4.6620   C.1       1 RES1   0.0000
    50 H1       1.1264   8.2694   4.7756   H         1 RES1   0.0000
    51 H2       2.6215   7.7974   3.5737   H         1 RES1   0.0000
    52 H3      -1.8743   8.4290   3.2062   H         1 RES1   0.0000
    53 H4      -2.4336  10.8759   3.2222   H         1 RES1   0.0000
    54 H5      -0.7956  12.5109   2.3186   H         1 RES1   0.0000
    55 H6       1.3925  11.7362   1.4487   H         1 RES1   0.0000
    56 H7       1.9229   9.3056   1.4078   H         1 RES1   0.0000
    57 H8       2.5465   6.3769   0.1935   H         1 RES1   0.0000
    58 H9       1.8286   5.8258  -2.1801   H         1 RES1   0.0000
    59 H10     -0.0225   4.2846  -2.5831   H         1 RES1   0.0000
    60 H11     -1.1623   3.1717  -0.6782   H         1 RES1   0.0000
    61 H12     -0.3924   3.6362   1.6439   H         1 RES1   0.0000
    62 H13     -2.6779   5.5255   5.0614   H         1 RES1   0.0000
    63 H14     -3.2131   3.6779   6.6823   H         1 RES1   0.0000
    64 H15     -1.5891   1.8792   7.0941   H         1 RES1   0.0000
    65 H16      0.5793   1.8883   5.8461   H         1 RES1   0.0000
    66 H17      1.0518   3.6756   4.1880   H         1 RES1   0.0000
    67 H18      2.4620  10.8358   8.9884   H         1 RES1   0.0000
    68 H19      0.9965  12.8244   9.1446   H         1 RES1   0.0000
    69 H20     -0.2039  13.6729   7.1439   H         1 RES1   0.0000
    70 H21      0.0461  12.4632   4.9815   H         1 RES1   0.0000
    71 H22      1.4596  10.4796   4.8093   H         1 RES1   0.0000
    72 H23      6.9349   8.0217   5.2745   H         1 RES1   0.0000
    73 H24      8.9557   9.0569   6.2562   H         1 RES1   0.0000
    74 H25      8.8915  10.0807   8.5339   H         1 RES1   0.0000
    75 H26      6.7150  10.1346   9.7695   H         1 RES1   0.0000
    76 H27      4.6951   9.1498   8.7505   H         1 RES1   0.0000
    77 H28      5.0253   7.8730   3.2027   H         1 RES1   0.0000
    78 H29      5.4549   8.3100   0.8184   H         1 RES1   0.0000
    79 H30      4.9711  10.5531  -0.1651   H         1 RES1   0.0000
    80 H31      4.0778  12.3543   1.2516   H         1 RES1   0.0000
    81 H32      3.6202  11.9651   3.6554   H         1 RES1   0.0000
@<TRIPOS>BOND
     1     1     2    1
     2     2     4    1
     3     3     1    1
     4     4    12    1
     5     5     2    1
     6     6     2    1
     7     7     3    1
     8     8     3    1
     9     9     3    1
    10    10    48    3
    11    11    49    3
    12    12    13   ar
    13    13    14   ar
    14    14    15   ar
    15    15    16   ar
    16    16    17   ar
    17    17    12   ar
    18    18     5    1
    19    19    18   ar
    20    20    19   ar
    21    21    20   ar
    22    22    21   ar
    23    23    18   ar
    24    24     6    1
    25    25    24   ar
    26    26    25   ar
    27    27    26   ar
    28    28    27   ar
    29    29    24   ar
    30    30     7    1
    31    31    30   ar
    32    32    31   ar
    33    33    32   ar
    34    34    33   ar
    35    35    30   ar
    36    36     8    1
    37    37    36   ar
    38    38    37   ar
    39    39    38   ar
    40    40    39   ar
    41    41    36   ar
    42    42     9    1
    43    43    42   ar
    44    44    43   ar
    45    45    44   ar
    46    46    45   ar
    47    47    42   ar
    48    48     1    1
    49    49     1    1
    50    50     1    1
    51    51     1    1
    52    52    13    1
    53    53    14    1
    54    54    15    1
    55    55    16    1
    56    56    17    1
    57    57    19    1
    58    58    20    1
    59    59    21    1
    60    60    22    1
    61    61    23    1
    62    62    25    1
    63    63    26    1
    64    64    27    1
    65    65    28    1
    66    66    29    1
    67    67    31    1
    68    68    32    1
    69    69    33    1
    70    70    34    1
    71    71    35    1
    72    72    37    1
    73    73    38    1
    74    74    39    1
    75    75    40    1
    76    76    41    1
    77    77    43    1
    78    78    44    1
    79    79    45    1
    80    80    46    1
    81    81    47    1
    82    22    23   ar
    83    28    29   ar
    84    34    35   ar
    85    40    41   ar
    86    46    47   ar
@<TRIPOS>SUBSTRUCTURE
     1 RES1        1 GROUP             0 ****  ****    0  
@<TRIPOS>CRYSIN
    9.6397   10.4410   18.3810  102.1480   94.6670  107.4020     2     1
