@<TRIPOS>MOLECULE
QOSZON06
    81    86     1     0     0
SMALL
NO_CHARGES
****
Generated from the CSD

@<TRIPOS>ATOM
     1 Fe1      2.1086   7.1097   4.8054   Fe        1 RES1   0.0000
     2 P1       0.8396   6.3943   3.2925   P.3       1 RES1   0.0000
     3 P2       3.3713   8.5443   5.7185   P.3       1 RES1   0.0000
     4 O1       0.2876   7.3909   2.1655   O.3       1 RES1   0.0000
     5 O2       1.5338   5.3107   2.3186   O.3       1 RES1   0.0000
     6 O3      -0.6006   5.7236   3.6319   O.3       1 RES1   0.0000
     7 O4       2.8424   9.4167   6.9578   O.3       1 RES1   0.0000
     8 O5       4.6295   7.8492   6.4213   O.3       1 RES1   0.0000
     9 O6       4.0471   9.7585   4.9160   O.3       1 RES1   0.0000
    10 O7       0.7665   6.3077   7.2825   O.2       1 RES1   0.0000
    11 O8       4.2062   5.0907   4.5372   O.2       1 RES1   0.0000
    12 C1       0.0376   8.7545   2.3113   C.ar      1 RES1   0.0000
    13 C2      -1.1683   9.1715   2.8261   C.ar      1 RES1   0.0000
    14 C3      -1.4630  10.5279   2.8361   C.ar      1 RES1   0.0000
    15 C4      -0.5525  11.4409   2.3459   C.ar      1 RES1   0.0000
    16 C5       0.6601  11.0000   1.8433   C.ar      1 RES1   0.0000
    17 C6       0.9689   9.6502   1.8266   C.ar      1 RES1   0.0000
    18 C7       1.0814   5.0358   1.0144   C.ar      1 RES1   0.0000
    19 C8       1.7256   5.6621  -0.0355   C.ar      1 RES1   0.0000
    20 C9       1.3198   5.3715  -1.3311   C.ar      1 RES1   0.0000
    21 C10      0.2819   4.4821  -1.5555   C.ar      1 RES1   0.0000
    22 C11     -0.3383   3.8717  -0.4930   C.ar      1 RES1   0.0000
    23 C12      0.0623   4.1340   0.8124   C.ar      1 RES1   0.0000
    24 C13     -0.7899   4.6999   4.5668   C.ar      1 RES1   0.0000
    25 C14     -1.9935   4.7077   5.2484   C.ar      1 RES1   0.0000
    26 C15     -2.2679   3.6926   6.1513   C.ar      1 RES1   0.0000
    27 C16     -1.3511   2.6867   6.3806   C.ar      1 RES1   0.0000
    28 C17     -0.1575   2.6898   5.6916   C.ar      1 RES1   0.0000
    29 C18      0.1341   3.6948   4.7738   C.ar      1 RES1   0.0000
    30 C19      2.0293  10.5444   6.9205   C.ar      1 RES1   0.0000
    31 C20      1.8973  11.2129   8.1260   C.ar      1 RES1   0.0000
    32 C21      1.0878  12.3290   8.1954   C.ar      1 RES1   0.0000
    33 C22      0.4191  12.7831   7.0736   C.ar      1 RES1   0.0000
    34 C23      0.5705  12.1107   5.8726   C.ar      1 RES1   0.0000
    35 C24      1.3780  10.9917   5.7831   C.ar      1 RES1   0.0000
    36 C25      5.7267   8.5459   6.9681   C.ar      1 RES1   0.0000
    37 C26      6.9058   8.5177   6.2608   C.ar      1 RES1   0.0000
    38 C27      8.0377   9.0875   6.8282   C.ar      1 RES1   0.0000
    39 C28      7.9716   9.6588   8.0784   C.ar      1 RES1   0.0000
    40 C29      6.7807   9.6805   8.7677   C.ar      1 RES1   0.0000
    41 C30      5.6332   9.1204   8.2128   C.ar      1 RES1   0.0000
    42 C31      4.2963   9.9033   3.5533   C.ar      1 RES1   0.0000
    43 C32      4.8133   8.8873   2.7840   C.ar      1 RES1   0.0000
    44 C33      5.0552   9.1303   1.4352   C.ar      1 RES1   0.0000
    45 C34      4.7960  10.3722   0.8894   C.ar      1 RES1   0.0000
    46 C35      4.2937  11.3821   1.6807   C.ar      1 RES1   0.0000
    47 C36      4.0373  11.1587   3.0310   C.ar      1 RES1   0.0000
    48 C37      1.2938   6.5930   6.3111   C.1       1 RES1   0.0000
    49 C38      3.3656   5.8631   4.6630   C.1       1 RES1   0.0000
    50 H1       1.1760   8.2136   4.7561   H         1 RES1   0.0000
    51 H2       2.5440   7.7662   3.6181   H         1 RES1   0.0000
    52 H3      -1.7839   8.5037   3.1476   H         1 RES1   0.0000
    53 H4      -2.3199  10.7925   3.1583   H         1 RES1   0.0000
    54 H5      -0.7541  12.3755   2.3416   H         1 RES1   0.0000
    55 H6       1.2712  11.5940   1.5374   H         1 RES1   0.0000
    56 H7       1.7642   9.3405   1.4274   H         1 RES1   0.0000
    57 H8       2.4458   6.2709   0.1402   H         1 RES1   0.0000
    58 H9       1.7690   5.7819  -2.0860   H         1 RES1   0.0000
    59 H10      0.0298   4.3453  -2.4304   H         1 RES1   0.0000
    60 H11     -1.0690   3.2496  -0.6320   H         1 RES1   0.0000
    61 H12     -0.3401   3.6923   1.5410   H         1 RES1   0.0000
    62 H13     -2.5843   5.4299   5.0845   H         1 RES1   0.0000
    63 H14     -3.1118   3.6928   6.6237   H         1 RES1   0.0000
    64 H15     -1.5291   1.9829   7.0001   H         1 RES1   0.0000
    65 H16      0.4723   1.9920   5.8301   H         1 RES1   0.0000
    66 H17      0.9277   3.6666   4.2625   H         1 RES1   0.0000
    67 H18      2.3819  10.8784   8.8837   H         1 RES1   0.0000
    68 H19      1.0076  12.7415   9.0008   H         1 RES1   0.0000
    69 H20     -0.1118  13.5048   7.1385   H         1 RES1   0.0000
    70 H21      0.0930  12.4281   5.0685   H         1 RES1   0.0000
    71 H22      1.4943  10.5785   4.9371   H         1 RES1   0.0000
    72 H23      6.9299   8.0843   5.4200   H         1 RES1   0.0000
    73 H24      8.8441   9.0497   6.3627   H         1 RES1   0.0000
    74 H25      8.7918  10.0436   8.4842   H         1 RES1   0.0000
    75 H26      6.7063  10.0716   9.6257   H         1 RES1   0.0000
    76 H27      4.8091   9.1185   8.6742   H         1 RES1   0.0000
    77 H28      5.0139   8.0056   3.1476   H         1 RES1   0.0000
    78 H29      5.4045   8.4386   0.9391   H         1 RES1   0.0000
    79 H30      4.9532  10.5088  -0.0302   H         1 RES1   0.0000
    80 H31      4.1206  12.2605   1.3457   H         1 RES1   0.0000
    81 H32      3.6879  11.8651   3.5630   H         1 RES1   0.0000
@<TRIPOS>BOND
     1     1     2    1
     2     2     4    1
     3     3     1    1
     4     4    12    1
     5     5     2    1
     6     6     2    1
     7     7     3    1
     8     8     3    1
     9     9     3    1
    10    10    48    3
    11    11    49    3
    12    12    13   ar
    13    13    14   ar
    14    14    15   ar
    15    15    16   ar
    16    16    17   ar
    17    17    12   ar
    18    18     5    1
    19    19    18   ar
    20    20    19   ar
    21    21    20   ar
    22    22    21   ar
    23    23    18   ar
    24    24     6    1
    25    25    24   ar
    26    26    25   ar
    27    27    26   ar
    28    28    27   ar
    29    29    24   ar
    30    30     7    1
    31    31    30   ar
    32    32    31   ar
    33    33    32   ar
    34    34    33   ar
    35    35    30   ar
    36    36     8    1
    37    37    36   ar
    38    38    37   ar
    39    39    38   ar
    40    40    39   ar
    41    41    36   ar
    42    42     9    1
    43    43    42   ar
    44    44    43   ar
    45    45    44   ar
    46    46    45   ar
    47    47    42   ar
    48    48     1    1
    49    49     1    1
    50    50     1    1
    51    51     1    1
    52    52    13    1
    53    53    14    1
    54    54    15    1
    55    55    16    1
    56    56    17    1
    57    57    19    1
    58    58    20    1
    59    59    21    1
    60    60    22    1
    61    61    23    1
    62    62    25    1
    63    63    26    1
    64    64    27    1
    65    65    28    1
    66    66    29    1
    67    67    31    1
    68    68    32    1
    69    69    33    1
    70    70    34    1
    71    71    35    1
    72    72    37    1
    73    73    38    1
    74    74    39    1
    75    75    40    1
    76    76    41    1
    77    77    43    1
    78    78    44    1
    79    79    45    1
    80    80    46    1
    81    81    47    1
    82    22    23   ar
    83    28    29   ar
    84    34    35   ar
    85    40    41   ar
    86    46    47   ar
@<TRIPOS>SUBSTRUCTURE
     1 RES1        1 GROUP             0 ****  ****    0  
@<TRIPOS>CRYSIN
    9.6397   10.4410   18.3810  102.1480   94.6670  107.4020     2     1
