@<TRIPOS>MOLECULE
QOSZON50
    81    86     1     0     0
SMALL
NO_CHARGES
****
Generated from the CSD

@<TRIPOS>ATOM
     1 Fe1      2.1087   7.1097   4.8050   Fe        1 RES1   0.0000
     2 P1       0.8393   6.3942   3.2918   P.3       1 RES1   0.0000
     3 P2       3.3723   8.5443   5.7187   P.3       1 RES1   0.0000
     4 O1       0.2867   7.3930   2.1668   O.3       1 RES1   0.0000
     5 O2       1.5306   5.3106   2.3155   O.3       1 RES1   0.0000
     6 O3      -0.6011   5.7209   3.6344   O.3       1 RES1   0.0000
     7 O4       2.8407   9.4195   6.9569   O.3       1 RES1   0.0000
     8 O5       4.6324   7.8529   6.4240   O.3       1 RES1   0.0000
     9 O6       4.0491   9.7560   4.9112   O.3       1 RES1   0.0000
    10 O7       0.7668   6.3078   7.2823   O.2       1 RES1   0.0000
    11 O8       4.2072   5.0916   4.5377   O.2       1 RES1   0.0000
    12 C1       0.0388   8.7470   2.3106   C.ar      1 RES1   0.0000
    13 C2      -1.1744   9.1679   2.8274   C.ar      1 RES1   0.0000
    14 C3      -1.4714  10.5265   2.8387   C.ar      1 RES1   0.0000
    15 C4      -0.5564  11.4474   2.3452   C.ar      1 RES1   0.0000
    16 C5       0.6652  11.0061   1.8421   C.ar      1 RES1   0.0000
    17 C6       0.9727   9.6474   1.8245   C.ar      1 RES1   0.0000
    18 C7       1.0825   5.0386   1.0231   C.ar      1 RES1   0.0000
    19 C8       1.7291   5.6657  -0.0339   C.ar      1 RES1   0.0000
    20 C9       1.3233   5.3773  -1.3340   C.ar      1 RES1   0.0000
    21 C10      0.2812   4.4813  -1.5630   C.ar      1 RES1   0.0000
    22 C11     -0.3441   3.8658  -0.4898   C.ar      1 RES1   0.0000
    23 C12      0.0608   4.1337   0.8166   C.ar      1 RES1   0.0000
    24 C13     -0.7899   4.7070   4.5624   C.ar      1 RES1   0.0000
    25 C14     -1.9967   4.7129   5.2492   C.ar      1 RES1   0.0000
    26 C15     -2.2742   3.6950   6.1559   C.ar      1 RES1   0.0000
    27 C16     -1.3519   2.6792   6.3865   C.ar      1 RES1   0.0000
    28 C17     -0.1526   2.6867   5.6904   C.ar      1 RES1   0.0000
    29 C18      0.1371   3.6934   4.7719   C.ar      1 RES1   0.0000
    30 C19      2.0322  10.5388   6.9225   C.ar      1 RES1   0.0000
    31 C20      1.9009  11.2083   8.1295   C.ar      1 RES1   0.0000
    32 C21      1.0881  12.3328   8.2016   C.ar      1 RES1   0.0000
    33 C22      0.4139  12.7878   7.0721   C.ar      1 RES1   0.0000
    34 C23      0.5677  12.1164   5.8670   C.ar      1 RES1   0.0000
    35 C24      1.3798  10.9867   5.7776   C.ar      1 RES1   0.0000
    36 C25      5.7189   8.5404   6.9642   C.ar      1 RES1   0.0000
    37 C26      6.9061   8.5133   6.2566   C.ar      1 RES1   0.0000
    38 C27      8.0429   9.0866   6.8200   C.ar      1 RES1   0.0000
    39 C28      7.9804   9.6626   8.0819   C.ar      1 RES1   0.0000
    40 C29      6.7766   9.6822   8.7725   C.ar      1 RES1   0.0000
    41 C30      5.6301   9.1211   8.2176   C.ar      1 RES1   0.0000
    42 C31      4.2928   9.9062   3.5646   C.ar      1 RES1   0.0000
    43 C32      4.8167   8.8810   2.7810   C.ar      1 RES1   0.0000
    44 C33      5.0561   9.1231   1.4337   C.ar      1 RES1   0.0000
    45 C34      4.7973  10.3725   0.8809   C.ar      1 RES1   0.0000
    46 C35      4.2895  11.3892   1.6826   C.ar      1 RES1   0.0000
    47 C36      4.0368  11.1610   3.0326   C.ar      1 RES1   0.0000
    48 C37      1.2932   6.5910   6.3146   C.1       1 RES1   0.0000
    49 C38      3.3704   5.8601   4.6620   C.1       1 RES1   0.0000
    50 H1       1.1389   8.2566   4.7827   H         1 RES1   0.0000
    51 H2       2.6157   7.7788   3.5684   H         1 RES1   0.0000
    52 H3      -1.8798   8.4376   3.2115   H         1 RES1   0.0000
    53 H4      -2.4771  10.8709   3.2027   H         1 RES1   0.0000
    54 H5      -0.7969  12.5177   2.3310   H         1 RES1   0.0000
    55 H6       1.3747  11.7221   1.4256   H         1 RES1   0.0000
    56 H7       1.9389   9.3151   1.4096   H         1 RES1   0.0000
    57 H8       2.5452   6.3574   0.1917   H         1 RES1   0.0000
    58 H9       1.8766   5.8254  -2.1783   H         1 RES1   0.0000
    59 H10     -0.0188   4.2764  -2.5902   H         1 RES1   0.0000
    60 H11     -1.1904   3.1549  -0.6515   H         1 RES1   0.0000
    61 H12     -0.4126   3.6285   1.6351   H         1 RES1   0.0000
    62 H13     -2.6660   5.5422   5.0738   H         1 RES1   0.0000
    63 H14     -3.2195   3.6684   6.6805   H         1 RES1   0.0000
    64 H15     -1.6253   1.8670   7.1030   H         1 RES1   0.0000
    65 H16      0.5562   1.8670   5.8514   H         1 RES1   0.0000
    66 H17      1.0438   3.7069   4.1826   H         1 RES1   0.0000
    67 H18      2.4655  10.8300   8.9955   H         1 RES1   0.0000
    68 H19      1.0062  12.8244   9.1446   H         1 RES1   0.0000
    69 H20     -0.2040  13.6724   7.1456   H         1 RES1   0.0000
    70 H21      0.0358  12.4688   4.9868   H         1 RES1   0.0000
    71 H22      1.4554  10.5096   4.7774   H         1 RES1   0.0000
    72 H23      6.9014   8.0466   5.2549   H         1 RES1   0.0000
    73 H24      8.9828   9.0420   6.2367   H         1 RES1   0.0000
    74 H25      8.9102  10.1002   8.5357   H         1 RES1   0.0000
    75 H26      6.7307  10.1355   9.7660   H         1 RES1   0.0000
    76 H27      4.7068   9.1298   8.7470   H         1 RES1   0.0000
    77 H28      5.0207   7.8901   3.2098   H         1 RES1   0.0000
    78 H29      5.4518   8.3199   0.8184   H         1 RES1   0.0000
    79 H30      4.9650  10.5445  -0.1704   H         1 RES1   0.0000
    80 H31      4.0809  12.3443   1.2516   H         1 RES1   0.0000
    81 H32      3.6488  11.9697   3.6607   H         1 RES1   0.0000
@<TRIPOS>BOND
     1     1     2    1
     2     2     4    1
     3     3     1    1
     4     4    12    1
     5     5     2    1
     6     6     2    1
     7     7     3    1
     8     8     3    1
     9     9     3    1
    10    10    48    3
    11    11    49    3
    12    12    13   ar
    13    13    14   ar
    14    14    15   ar
    15    15    16   ar
    16    16    17   ar
    17    17    12   ar
    18    18     5    1
    19    19    18   ar
    20    20    19   ar
    21    21    20   ar
    22    22    21   ar
    23    23    18   ar
    24    24     6    1
    25    25    24   ar
    26    26    25   ar
    27    27    26   ar
    28    28    27   ar
    29    29    24   ar
    30    30     7    1
    31    31    30   ar
    32    32    31   ar
    33    33    32   ar
    34    34    33   ar
    35    35    30   ar
    36    36     8    1
    37    37    36   ar
    38    38    37   ar
    39    39    38   ar
    40    40    39   ar
    41    41    36   ar
    42    42     9    1
    43    43    42   ar
    44    44    43   ar
    45    45    44   ar
    46    46    45   ar
    47    47    42   ar
    48    48     1    1
    49    49     1    1
    50    50     1    1
    51    51     1    1
    52    52    13    1
    53    53    14    1
    54    54    15    1
    55    55    16    1
    56    56    17    1
    57    57    19    1
    58    58    20    1
    59    59    21    1
    60    60    22    1
    61    61    23    1
    62    62    25    1
    63    63    26    1
    64    64    27    1
    65    65    28    1
    66    66    29    1
    67    67    31    1
    68    68    32    1
    69    69    33    1
    70    70    34    1
    71    71    35    1
    72    72    37    1
    73    73    38    1
    74    74    39    1
    75    75    40    1
    76    76    41    1
    77    77    43    1
    78    78    44    1
    79    79    45    1
    80    80    46    1
    81    81    47    1
    82    22    23   ar
    83    28    29   ar
    84    34    35   ar
    85    40    41   ar
    86    46    47   ar
@<TRIPOS>SUBSTRUCTURE
     1 RES1        1 GROUP             0 ****  ****    0  
@<TRIPOS>CRYSIN
    9.6397   10.4410   18.3810  102.1480   94.6670  107.4020     2     1
