@<TRIPOS>MOLECULE
QOSZON21
    81    86     1     0     0
SMALL
NO_CHARGES
****
Generated from the CSD

@<TRIPOS>ATOM
     1 Fe1      2.1087   7.1096   4.8055   Fe        1 RES1   0.0000
     2 P1       0.8384   6.3944   3.2919   P.3       1 RES1   0.0000
     3 P2       3.3729   8.5445   5.7190   P.3       1 RES1   0.0000
     4 O1       0.2855   7.3930   2.1671   O.3       1 RES1   0.0000
     5 O2       1.5327   5.3102   2.3145   O.3       1 RES1   0.0000
     6 O3      -0.5991   5.7205   3.6351   O.3       1 RES1   0.0000
     7 O4       2.8406   9.4204   6.9567   O.3       1 RES1   0.0000
     8 O5       4.6314   7.8547   6.4227   O.3       1 RES1   0.0000
     9 O6       4.0484   9.7569   4.9110   O.3       1 RES1   0.0000
    10 O7       0.7660   6.3092   7.2837   O.2       1 RES1   0.0000
    11 O8       4.2069   5.0920   4.5372   O.2       1 RES1   0.0000
    12 C1       0.0399   8.7471   2.3113   C.ar      1 RES1   0.0000
    13 C2      -1.1735   9.1707   2.8279   C.ar      1 RES1   0.0000
    14 C3      -1.4735  10.5282   2.8396   C.ar      1 RES1   0.0000
    15 C4      -0.5545  11.4487   2.3445   C.ar      1 RES1   0.0000
    16 C5       0.6671  11.0050   1.8419   C.ar      1 RES1   0.0000
    17 C6       0.9719   9.6493   1.8225   C.ar      1 RES1   0.0000
    18 C7       1.0819   5.0390   1.0252   C.ar      1 RES1   0.0000
    19 C8       1.7308   5.6656  -0.0352   C.ar      1 RES1   0.0000
    20 C9       1.3259   5.3740  -1.3338   C.ar      1 RES1   0.0000
    21 C10      0.2799   4.4816  -1.5653   C.ar      1 RES1   0.0000
    22 C11     -0.3456   3.8649  -0.4889   C.ar      1 RES1   0.0000
    23 C12      0.0603   4.1327   0.8158   C.ar      1 RES1   0.0000
    24 C13     -0.7900   4.7078   4.5638   C.ar      1 RES1   0.0000
    25 C14     -1.9968   4.7144   5.2494   C.ar      1 RES1   0.0000
    26 C15     -2.2729   3.6973   6.1562   C.ar      1 RES1   0.0000
    27 C16     -1.3531   2.6805   6.3860   C.ar      1 RES1   0.0000
    28 C17     -0.1512   2.6837   5.6908   C.ar      1 RES1   0.0000
    29 C18      0.1395   3.6936   4.7708   C.ar      1 RES1   0.0000
    30 C19      2.0347  10.5403   6.9189   C.ar      1 RES1   0.0000
    31 C20      1.9020  11.2104   8.1295   C.ar      1 RES1   0.0000
    32 C21      1.0879  12.3340   8.2030   C.ar      1 RES1   0.0000
    33 C22      0.4149  12.7895   7.0744   C.ar      1 RES1   0.0000
    34 C23      0.5667  12.1169   5.8692   C.ar      1 RES1   0.0000
    35 C24      1.3802  10.9881   5.7790   C.ar      1 RES1   0.0000
    36 C25      5.7201   8.5408   6.9629   C.ar      1 RES1   0.0000
    37 C26      6.9073   8.5182   6.2594   C.ar      1 RES1   0.0000
    38 C27      8.0406   9.0821   6.8238   C.ar      1 RES1   0.0000
    39 C28      7.9825   9.6602   8.0794   C.ar      1 RES1   0.0000
    40 C29      6.7759   9.6815   8.7729   C.ar      1 RES1   0.0000
    41 C30      5.6309   9.1219   8.2158   C.ar      1 RES1   0.0000
    42 C31      4.2921   9.9047   3.5632   C.ar      1 RES1   0.0000
    43 C32      4.8168   8.8812   2.7823   C.ar      1 RES1   0.0000
    44 C33      5.0588   9.1251   1.4355   C.ar      1 RES1   0.0000
    45 C34      4.7985  10.3735   0.8813   C.ar      1 RES1   0.0000
    46 C35      4.2900  11.3893   1.6828   C.ar      1 RES1   0.0000
    47 C36      4.0368  11.1623   3.0329   C.ar      1 RES1   0.0000
    48 C37      1.2944   6.5918   6.3118   C.1       1 RES1   0.0000
    49 C38      3.3668   5.8605   4.6621   C.1       1 RES1   0.0000
    50 H1       1.1163   8.2613   4.7525   H         1 RES1   0.0000
    51 H2       2.6247   7.7856   3.5773   H         1 RES1   0.0000
    52 H3      -1.8783   8.4557   3.1796   H         1 RES1   0.0000
    53 H4      -2.4269  10.8963   3.2595   H         1 RES1   0.0000
    54 H5      -0.7964  12.5145   2.3044   H         1 RES1   0.0000
    55 H6       1.4015  11.7398   1.4345   H         1 RES1   0.0000
    56 H7       1.9104   9.2872   1.3901   H         1 RES1   0.0000
    57 H8       2.5622   6.3884   0.1758   H         1 RES1   0.0000
    58 H9       1.8137   5.8489  -2.1925   H         1 RES1   0.0000
    59 H10     -0.0446   4.2954  -2.5866   H         1 RES1   0.0000
    60 H11     -1.1554   3.1431  -0.6835   H         1 RES1   0.0000
    61 H12     -0.3774   3.6758   1.6528   H         1 RES1   0.0000
    62 H13     -2.6794   5.5241   5.0667   H         1 RES1   0.0000
    63 H14     -3.2255   3.6910   6.7089   H         1 RES1   0.0000
    64 H15     -1.5830   1.8715   7.1243   H         1 RES1   0.0000
    65 H16      0.5849   1.8848   5.8248   H         1 RES1   0.0000
    66 H17      1.0618   3.6574   4.1968   H         1 RES1   0.0000
    67 H18      2.4561  10.8191   8.9795   H         1 RES1   0.0000
    68 H19      0.9933  12.8629   9.1500   H         1 RES1   0.0000
    69 H20     -0.2129  13.6698   7.1403   H         1 RES1   0.0000
    70 H21      0.0428  12.4618   4.9868   H         1 RES1   0.0000
    71 H22      1.4622  10.4738   4.8164   H         1 RES1   0.0000
    72 H23      6.9471   7.9937   5.3064   H         1 RES1   0.0000
    73 H24      8.9634   9.0433   6.2704   H         1 RES1   0.0000
    74 H25      8.9248  10.0581   8.5446   H         1 RES1   0.0000
    75 H26      6.7114  10.1296   9.7660   H         1 RES1   0.0000
    76 H27      4.6853   9.1617   8.7470   H         1 RES1   0.0000
    77 H28      5.0364   7.9019   3.2027   H         1 RES1   0.0000
    78 H29      5.4584   8.3009   0.8149   H         1 RES1   0.0000
    79 H30      4.9672  10.5626  -0.1829   H         1 RES1   0.0000
    80 H31      4.0585  12.3445   1.2587   H         1 RES1   0.0000
    81 H32      3.6233  11.9579   3.6447   H         1 RES1   0.0000
@<TRIPOS>BOND
     1     1     2    1
     2     2     4    1
     3     3     1    1
     4     4    12    1
     5     5     2    1
     6     6     2    1
     7     7     3    1
     8     8     3    1
     9     9     3    1
    10    10    48    3
    11    11    49    3
    12    12    13   ar
    13    13    14   ar
    14    14    15   ar
    15    15    16   ar
    16    16    17   ar
    17    17    12   ar
    18    18     5    1
    19    19    18   ar
    20    20    19   ar
    21    21    20   ar
    22    22    21   ar
    23    23    18   ar
    24    24     6    1
    25    25    24   ar
    26    26    25   ar
    27    27    26   ar
    28    28    27   ar
    29    29    24   ar
    30    30     7    1
    31    31    30   ar
    32    32    31   ar
    33    33    32   ar
    34    34    33   ar
    35    35    30   ar
    36    36     8    1
    37    37    36   ar
    38    38    37   ar
    39    39    38   ar
    40    40    39   ar
    41    41    36   ar
    42    42     9    1
    43    43    42   ar
    44    44    43   ar
    45    45    44   ar
    46    46    45   ar
    47    47    42   ar
    48    48     1    1
    49    49     1    1
    50    50     1    1
    51    51     1    1
    52    52    13    1
    53    53    14    1
    54    54    15    1
    55    55    16    1
    56    56    17    1
    57    57    19    1
    58    58    20    1
    59    59    21    1
    60    60    22    1
    61    61    23    1
    62    62    25    1
    63    63    26    1
    64    64    27    1
    65    65    28    1
    66    66    29    1
    67    67    31    1
    68    68    32    1
    69    69    33    1
    70    70    34    1
    71    71    35    1
    72    72    37    1
    73    73    38    1
    74    74    39    1
    75    75    40    1
    76    76    41    1
    77    77    43    1
    78    78    44    1
    79    79    45    1
    80    80    46    1
    81    81    47    1
    82    22    23   ar
    83    28    29   ar
    84    34    35   ar
    85    40    41   ar
    86    46    47   ar
@<TRIPOS>SUBSTRUCTURE
     1 RES1        1 GROUP             0 ****  ****    0  
@<TRIPOS>CRYSIN
    9.6397   10.4410   18.3810  102.1480   94.6670  107.4020     2     1
