@<TRIPOS>MOLECULE
QOSZON03
    81    86     1     0     0
SMALL
NO_CHARGES
****
Generated from the CSD

@<TRIPOS>ATOM
     1 Fe1      2.1087   7.1096   4.8056   Fe        1 RES1   0.0000
     2 P1       0.8382   6.3941   3.2915   P.3       1 RES1   0.0000
     3 P2       3.3730   8.5447   5.7193   P.3       1 RES1   0.0000
     4 O1       0.2854   7.3932   2.1673   O.3       1 RES1   0.0000
     5 O2       1.5326   5.3105   2.3147   O.3       1 RES1   0.0000
     6 O3      -0.5988   5.7201   3.6355   O.3       1 RES1   0.0000
     7 O4       2.8406   9.4205   6.9562   O.3       1 RES1   0.0000
     8 O5       4.6311   7.8547   6.4227   O.3       1 RES1   0.0000
     9 O6       4.0483   9.7565   4.9110   O.3       1 RES1   0.0000
    10 O7       0.7665   6.3090   7.2832   O.2       1 RES1   0.0000
    11 O8       4.2061   5.0928   4.5372   O.2       1 RES1   0.0000
    12 C1       0.0397   8.7473   2.3113   C.ar      1 RES1   0.0000
    13 C2      -1.1737   9.1705   2.8279   C.ar      1 RES1   0.0000
    14 C3      -1.4734  10.5284   2.8401   C.ar      1 RES1   0.0000
    15 C4      -0.5546  11.4488   2.3445   C.ar      1 RES1   0.0000
    16 C5       0.6672  11.0053   1.8417   C.ar      1 RES1   0.0000
    17 C6       0.9718   9.6494   1.8225   C.ar      1 RES1   0.0000
    18 C7       1.0819   5.0392   1.0252   C.ar      1 RES1   0.0000
    19 C8       1.7308   5.6657  -0.0355   C.ar      1 RES1   0.0000
    20 C9       1.3261   5.3738  -1.3338   C.ar      1 RES1   0.0000
    21 C10      0.2804   4.4817  -1.5653   C.ar      1 RES1   0.0000
    22 C11     -0.3459   3.8648  -0.4891   C.ar      1 RES1   0.0000
    23 C12      0.0600   4.1327   0.8159   C.ar      1 RES1   0.0000
    24 C13     -0.7897   4.7077   4.5638   C.ar      1 RES1   0.0000
    25 C14     -1.9968   4.7147   5.2494   C.ar      1 RES1   0.0000
    26 C15     -2.2727   3.6973   6.1568   C.ar      1 RES1   0.0000
    27 C16     -1.3534   2.6804   6.3858   C.ar      1 RES1   0.0000
    28 C17     -0.1513   2.6833   5.6909   C.ar      1 RES1   0.0000
    29 C18      0.1392   3.6936   4.7711   C.ar      1 RES1   0.0000
    30 C19      2.0347  10.5404   6.9189   C.ar      1 RES1   0.0000
    31 C20      1.9018  11.2107   8.1295   C.ar      1 RES1   0.0000
    32 C21      1.0878  12.3339   8.2026   C.ar      1 RES1   0.0000
    33 C22      0.4150  12.7895   7.0744   C.ar      1 RES1   0.0000
    34 C23      0.5667  12.1173   5.8690   C.ar      1 RES1   0.0000
    35 C24      1.3802  10.9885   5.7790   C.ar      1 RES1   0.0000
    36 C25      5.7205   8.5408   6.9626   C.ar      1 RES1   0.0000
    37 C26      6.9079   8.5181   6.2592   C.ar      1 RES1   0.0000
    38 C27      8.0408   9.0822   6.8243   C.ar      1 RES1   0.0000
    39 C28      7.9821   9.6603   8.0800   C.ar      1 RES1   0.0000
    40 C29      6.7764   9.6817   8.7731   C.ar      1 RES1   0.0000
    41 C30      5.6309   9.1217   8.2154   C.ar      1 RES1   0.0000
    42 C31      4.2916   9.9046   3.5634   C.ar      1 RES1   0.0000
    43 C32      4.8167   8.8813   2.7819   C.ar      1 RES1   0.0000
    44 C33      5.0593   9.1252   1.4355   C.ar      1 RES1   0.0000
    45 C34      4.7983  10.3736   0.8813   C.ar      1 RES1   0.0000
    46 C35      4.2901  11.3893   1.6828   C.ar      1 RES1   0.0000
    47 C36      4.0371  11.1622   3.0328   C.ar      1 RES1   0.0000
    48 C37      1.2940   6.5914   6.3130   C.1       1 RES1   0.0000
    49 C38      3.3676   5.8595   4.6621   C.1       1 RES1   0.0000
    50 H1       1.1197   8.2619   4.7543   H         1 RES1   0.0000
    51 H2       2.6243   7.7798   3.5844   H         1 RES1   0.0000
    52 H3      -1.8768   8.4544   3.1849   H         1 RES1   0.0000
    53 H4      -2.4175  10.8954   3.2630   H         1 RES1   0.0000
    54 H5      -0.7903  12.5077   2.2919   H         1 RES1   0.0000
    55 H6       1.3994  11.7502   1.4327   H         1 RES1   0.0000
    56 H7       1.9159   9.2893   1.3936   H         1 RES1   0.0000
    57 H8       2.5622   6.3805   0.1793   H         1 RES1   0.0000
    58 H9       1.8136   5.8485  -2.1907   H         1 RES1   0.0000
    59 H10     -0.0448   4.2950  -2.5849   H         1 RES1   0.0000
    60 H11     -1.1525   3.1431  -0.6835   H         1 RES1   0.0000
    61 H12     -0.3778   3.6734   1.6546   H         1 RES1   0.0000
    62 H13     -2.6763   5.5246   5.0650   H         1 RES1   0.0000
    63 H14     -3.2297   3.7005   6.7107   H         1 RES1   0.0000
    64 H15     -1.5814   1.8734   7.1172   H         1 RES1   0.0000
    65 H16      0.5903   1.8847   5.8212   H         1 RES1   0.0000
    66 H17      1.0547   3.6620   4.2022   H         1 RES1   0.0000
    67 H18      2.4582  10.8225   8.9777   H         1 RES1   0.0000
    68 H19      0.9965  12.8534   9.1482   H         1 RES1   0.0000
    69 H20     -0.2108  13.6751   7.1350   H         1 RES1   0.0000
    70 H21      0.0452  12.4613   4.9851   H         1 RES1   0.0000
    71 H22      1.4665  10.4743   4.8182   H         1 RES1   0.0000
    72 H23      6.9540   7.9941   5.3046   H         1 RES1   0.0000
    73 H24      8.9631   9.0424   6.2740   H         1 RES1   0.0000
    74 H25      8.9193  10.0590   8.5410   H         1 RES1   0.0000
    75 H26      6.7054  10.1346   9.7695   H         1 RES1   0.0000
    76 H27      4.6836   9.1626   8.7434   H         1 RES1   0.0000
    77 H28      5.0311   7.9014   3.2009   H         1 RES1   0.0000
    78 H29      5.4584   8.3009   0.8149   H         1 RES1   0.0000
    79 H30      4.9634  10.5667  -0.1793   H         1 RES1   0.0000
    80 H31      4.0594  12.3434   1.2551   H         1 RES1   0.0000
    81 H32      3.6231  11.9574   3.6465   H         1 RES1   0.0000
@<TRIPOS>BOND
     1     1     2    1
     2     2     4    1
     3     3     1    1
     4     4    12    1
     5     5     2    1
     6     6     2    1
     7     7     3    1
     8     8     3    1
     9     9     3    1
    10    10    48    3
    11    11    49    3
    12    12    13   ar
    13    13    14   ar
    14    14    15   ar
    15    15    16   ar
    16    16    17   ar
    17    17    12   ar
    18    18     5    1
    19    19    18   ar
    20    20    19   ar
    21    21    20   ar
    22    22    21   ar
    23    23    18   ar
    24    24     6    1
    25    25    24   ar
    26    26    25   ar
    27    27    26   ar
    28    28    27   ar
    29    29    24   ar
    30    30     7    1
    31    31    30   ar
    32    32    31   ar
    33    33    32   ar
    34    34    33   ar
    35    35    30   ar
    36    36     8    1
    37    37    36   ar
    38    38    37   ar
    39    39    38   ar
    40    40    39   ar
    41    41    36   ar
    42    42     9    1
    43    43    42   ar
    44    44    43   ar
    45    45    44   ar
    46    46    45   ar
    47    47    42   ar
    48    48     1    1
    49    49     1    1
    50    50     1    1
    51    51     1    1
    52    52    13    1
    53    53    14    1
    54    54    15    1
    55    55    16    1
    56    56    17    1
    57    57    19    1
    58    58    20    1
    59    59    21    1
    60    60    22    1
    61    61    23    1
    62    62    25    1
    63    63    26    1
    64    64    27    1
    65    65    28    1
    66    66    29    1
    67    67    31    1
    68    68    32    1
    69    69    33    1
    70    70    34    1
    71    71    35    1
    72    72    37    1
    73    73    38    1
    74    74    39    1
    75    75    40    1
    76    76    41    1
    77    77    43    1
    78    78    44    1
    79    79    45    1
    80    80    46    1
    81    81    47    1
    82    22    23   ar
    83    28    29   ar
    84    34    35   ar
    85    40    41   ar
    86    46    47   ar
@<TRIPOS>SUBSTRUCTURE
     1 RES1        1 GROUP             0 ****  ****    0  
@<TRIPOS>CRYSIN
    9.6397   10.4410   18.3810  102.1480   94.6670  107.4020     2     1
