@<TRIPOS>MOLECULE
QOSZON43
    81    86     1     0     0
SMALL
NO_CHARGES
****
Generated from the CSD

@<TRIPOS>ATOM
     1 Fe1      2.1086   7.1097   4.8055   Fe        1 RES1   0.0000
     2 P1       0.8396   6.3944   3.2923   P.3       1 RES1   0.0000
     3 P2       3.3712   8.5444   5.7185   P.3       1 RES1   0.0000
     4 O1       0.2877   7.3907   2.1655   O.3       1 RES1   0.0000
     5 O2       1.5342   5.3103   2.3187   O.3       1 RES1   0.0000
     6 O3      -0.6005   5.7234   3.6316   O.3       1 RES1   0.0000
     7 O4       2.8420   9.4166   6.9578   O.3       1 RES1   0.0000
     8 O5       4.6294   7.8495   6.4213   O.3       1 RES1   0.0000
     9 O6       4.0469   9.7582   4.9160   O.3       1 RES1   0.0000
    10 O7       0.7667   6.3077   7.2825   O.2       1 RES1   0.0000
    11 O8       4.2062   5.0902   4.5366   O.2       1 RES1   0.0000
    12 C1       0.0372   8.7546   2.3111   C.ar      1 RES1   0.0000
    13 C2      -1.1687   9.1695   2.8261   C.ar      1 RES1   0.0000
    14 C3      -1.4649  10.5280   2.8359   C.ar      1 RES1   0.0000
    15 C4      -0.5531  11.4427   2.3464   C.ar      1 RES1   0.0000
    16 C5       0.6618  11.0012   1.8426   C.ar      1 RES1   0.0000
    17 C6       0.9693   9.6504   1.8261   C.ar      1 RES1   0.0000
    18 C7       1.0814   5.0358   1.0142   C.ar      1 RES1   0.0000
    19 C8       1.7265   5.6621  -0.0353   C.ar      1 RES1   0.0000
    20 C9       1.3215   5.3728  -1.3325   C.ar      1 RES1   0.0000
    21 C10      0.2815   4.4817  -1.5577   C.ar      1 RES1   0.0000
    22 C11     -0.3396   3.8698  -0.4932   C.ar      1 RES1   0.0000
    23 C12      0.0628   4.1317   0.8136   C.ar      1 RES1   0.0000
    24 C13     -0.7899   4.6999   4.5670   C.ar      1 RES1   0.0000
    25 C14     -1.9943   4.7079   5.2475   C.ar      1 RES1   0.0000
    26 C15     -2.2698   3.6925   6.1518   C.ar      1 RES1   0.0000
    27 C16     -1.3509   2.6854   6.3819   C.ar      1 RES1   0.0000
    28 C17     -0.1561   2.6890   5.6909   C.ar      1 RES1   0.0000
    29 C18      0.1351   3.6949   4.7733   C.ar      1 RES1   0.0000
    30 C19      2.0296  10.5445   6.9205   C.ar      1 RES1   0.0000
    31 C20      1.8972  11.2127   8.1267   C.ar      1 RES1   0.0000
    32 C21      1.0883  12.3296   8.1970   C.ar      1 RES1   0.0000
    33 C22      0.4178  12.7840   7.0741   C.ar      1 RES1   0.0000
    34 C23      0.5696  12.1110   5.8711   C.ar      1 RES1   0.0000
    35 C24      1.3788  10.9911   5.7817   C.ar      1 RES1   0.0000
    36 C25      5.7262   8.5464   6.9685   C.ar      1 RES1   0.0000
    37 C26      6.9053   8.5171   6.2592   C.ar      1 RES1   0.0000
    38 C27      8.0391   9.0871   6.8259   C.ar      1 RES1   0.0000
    39 C28      7.9731   9.6595   8.0796   C.ar      1 RES1   0.0000
    40 C29      6.7803   9.6811   8.7692   C.ar      1 RES1   0.0000
    41 C30      5.6325   9.1194   8.2128   C.ar      1 RES1   0.0000
    42 C31      4.2963   9.9034   3.5536   C.ar      1 RES1   0.0000
    43 C32      4.8139   8.8861   2.7848   C.ar      1 RES1   0.0000
    44 C33      5.0569   9.1284   1.4345   C.ar      1 RES1   0.0000
    45 C34      4.7961  10.3726   0.8877   C.ar      1 RES1   0.0000
    46 C35      4.2934  11.3833   1.6802   C.ar      1 RES1   0.0000
    47 C36      4.0358  11.1605   3.0319   C.ar      1 RES1   0.0000
    48 C37      1.2938   6.5930   6.3109   C.1       1 RES1   0.0000
    49 C38      3.3653   5.8631   4.6629   C.1       1 RES1   0.0000
    50 H1       1.1858   8.2140   4.7543   H         1 RES1   0.0000
    51 H2       2.5471   7.7562   3.6181   H         1 RES1   0.0000
    52 H3      -1.7909   8.4924   3.1530   H         1 RES1   0.0000
    53 H4      -2.3370  10.8089   3.1725   H         1 RES1   0.0000
    54 H5      -0.7637  12.4045   2.3452   H         1 RES1   0.0000
    55 H6       1.2943  11.6153   1.5321   H         1 RES1   0.0000
    56 H7       1.7873   9.3328   1.4185   H         1 RES1   0.0000
    57 H8       2.4552   6.2700   0.1438   H         1 RES1   0.0000
    58 H9       1.7775   5.7978  -2.1091   H         1 RES1   0.0000
    59 H10      0.0120   4.3498  -2.4482   H         1 RES1   0.0000
    60 H11     -1.0915   3.2301  -0.6338   H         1 RES1   0.0000
    61 H12     -0.3477   3.6792   1.5534   H         1 RES1   0.0000
    62 H13     -2.5876   5.4394   5.0863   H         1 RES1   0.0000
    63 H14     -3.1253   3.7005   6.6326   H         1 RES1   0.0000
    64 H15     -1.5304   1.9788   7.0160   H         1 RES1   0.0000
    65 H16      0.4722   1.9915   5.8319   H         1 RES1   0.0000
    66 H17      0.9413   3.6593   4.2519   H         1 RES1   0.0000
    67 H18      2.4006  10.8766   8.8908   H         1 RES1   0.0000
    68 H19      1.0089  12.7551   9.0257   H         1 RES1   0.0000
    69 H20     -0.1244  13.5153   7.1368   H         1 RES1   0.0000
    70 H21      0.0776  12.4204   5.0596   H         1 RES1   0.0000
    71 H22      1.4890  10.5722   4.9229   H         1 RES1   0.0000
    72 H23      6.9301   8.0847   5.4183   H         1 RES1   0.0000
    73 H24      8.8714   9.0352   6.3414   H         1 RES1   0.0000
    74 H25      8.8126  10.0581   8.5055   H         1 RES1   0.0000
    75 H26      6.7109  10.0757   9.6488   H         1 RES1   0.0000
    76 H27      4.8023   9.1076   8.6777   H         1 RES1   0.0000
    77 H28      5.0283   7.9811   3.1654   H         1 RES1   0.0000
    78 H29      5.4110   8.4196   0.9356   H         1 RES1   0.0000
    79 H30      4.9647  10.5142  -0.0515   H         1 RES1   0.0000
    80 H31      4.1239  12.2800   1.3475   H         1 RES1   0.0000
    81 H32      3.6842  11.8732   3.5702   H         1 RES1   0.0000
@<TRIPOS>BOND
     1     1     2    1
     2     2     4    1
     3     3     1    1
     4     4    12    1
     5     5     2    1
     6     6     2    1
     7     7     3    1
     8     8     3    1
     9     9     3    1
    10    10    48    3
    11    11    49    3
    12    12    13   ar
    13    13    14   ar
    14    14    15   ar
    15    15    16   ar
    16    16    17   ar
    17    17    12   ar
    18    18     5    1
    19    19    18   ar
    20    20    19   ar
    21    21    20   ar
    22    22    21   ar
    23    23    18   ar
    24    24     6    1
    25    25    24   ar
    26    26    25   ar
    27    27    26   ar
    28    28    27   ar
    29    29    24   ar
    30    30     7    1
    31    31    30   ar
    32    32    31   ar
    33    33    32   ar
    34    34    33   ar
    35    35    30   ar
    36    36     8    1
    37    37    36   ar
    38    38    37   ar
    39    39    38   ar
    40    40    39   ar
    41    41    36   ar
    42    42     9    1
    43    43    42   ar
    44    44    43   ar
    45    45    44   ar
    46    46    45   ar
    47    47    42   ar
    48    48     1    1
    49    49     1    1
    50    50     1    1
    51    51     1    1
    52    52    13    1
    53    53    14    1
    54    54    15    1
    55    55    16    1
    56    56    17    1
    57    57    19    1
    58    58    20    1
    59    59    21    1
    60    60    22    1
    61    61    23    1
    62    62    25    1
    63    63    26    1
    64    64    27    1
    65    65    28    1
    66    66    29    1
    67    67    31    1
    68    68    32    1
    69    69    33    1
    70    70    34    1
    71    71    35    1
    72    72    37    1
    73    73    38    1
    74    74    39    1
    75    75    40    1
    76    76    41    1
    77    77    43    1
    78    78    44    1
    79    79    45    1
    80    80    46    1
    81    81    47    1
    82    22    23   ar
    83    28    29   ar
    84    34    35   ar
    85    40    41   ar
    86    46    47   ar
@<TRIPOS>SUBSTRUCTURE
     1 RES1        1 GROUP             0 ****  ****    0  
@<TRIPOS>CRYSIN
    9.6397   10.4410   18.3810  102.1480   94.6670  107.4020     2     1
