@<TRIPOS>MOLECULE
QOSZON16
    81    86     1     0     0
SMALL
NO_CHARGES
****
Generated from the CSD

@<TRIPOS>ATOM
     1 Fe1      2.1087   7.1097   4.8056   Fe        1 RES1   0.0000
     2 P1       0.8387   6.3940   3.2915   P.3       1 RES1   0.0000
     3 P2       3.3727   8.5447   5.7192   P.3       1 RES1   0.0000
     4 O1       0.2859   7.3933   2.1671   O.3       1 RES1   0.0000
     5 O2       1.5314   5.3109   2.3152   O.3       1 RES1   0.0000
     6 O3      -0.5993   5.7205   3.6348   O.3       1 RES1   0.0000
     7 O4       2.8403   9.4200   6.9562   O.3       1 RES1   0.0000
     8 O5       4.6318   7.8542   6.4225   O.3       1 RES1   0.0000
     9 O6       4.0487   9.7565   4.9114   O.3       1 RES1   0.0000
    10 O7       0.7667   6.3075   7.2830   O.2       1 RES1   0.0000
    11 O8       4.2067   5.0924   4.5373   O.2       1 RES1   0.0000
    12 C1       0.0394   8.7466   2.3104   C.ar      1 RES1   0.0000
    13 C2      -1.1738   9.1696   2.8284   C.ar      1 RES1   0.0000
    14 C3      -1.4716  10.5286   2.8389   C.ar      1 RES1   0.0000
    15 C4      -0.5539  11.4485   2.3445   C.ar      1 RES1   0.0000
    16 C5       0.6668  11.0044   1.8419   C.ar      1 RES1   0.0000
    17 C6       0.9722   9.6483   1.8236   C.ar      1 RES1   0.0000
    18 C7       1.0824   5.0391   1.0242   C.ar      1 RES1   0.0000
    19 C8       1.7300   5.6658  -0.0344   C.ar      1 RES1   0.0000
    20 C9       1.3247   5.3745  -1.3333   C.ar      1 RES1   0.0000
    21 C10      0.2808   4.4811  -1.5644   C.ar      1 RES1   0.0000
    22 C11     -0.3447   3.8664  -0.4898   C.ar      1 RES1   0.0000
    23 C12      0.0604   4.1332   0.8156   C.ar      1 RES1   0.0000
    24 C13     -0.7894   4.7073   4.5633   C.ar      1 RES1   0.0000
    25 C14     -1.9969   4.7137   5.2494   C.ar      1 RES1   0.0000
    26 C15     -2.2736   3.6966   6.1557   C.ar      1 RES1   0.0000
    27 C16     -1.3529   2.6807   6.3847   C.ar      1 RES1   0.0000
    28 C17     -0.1518   2.6843   5.6915   C.ar      1 RES1   0.0000
    29 C18      0.1387   3.6946   4.7710   C.ar      1 RES1   0.0000
    30 C19      2.0338  10.5398   6.9200   C.ar      1 RES1   0.0000
    31 C20      1.9018  11.2100   8.1300   C.ar      1 RES1   0.0000
    32 C21      1.0877  12.3339   8.2023   C.ar      1 RES1   0.0000
    33 C22      0.4146  12.7895   7.0743   C.ar      1 RES1   0.0000
    34 C23      0.5669  12.1157   5.8690   C.ar      1 RES1   0.0000
    35 C24      1.3799  10.9877   5.7783   C.ar      1 RES1   0.0000
    36 C25      5.7200   8.5404   6.9635   C.ar      1 RES1   0.0000
    37 C26      6.9072   8.5158   6.2578   C.ar      1 RES1   0.0000
    38 C27      8.0412   9.0840   6.8225   C.ar      1 RES1   0.0000
    39 C28      7.9810   9.6612   8.0802   C.ar      1 RES1   0.0000
    40 C29      6.7773   9.6822   8.7727   C.ar      1 RES1   0.0000
    41 C30      5.6301   9.1208   8.2169   C.ar      1 RES1   0.0000
    42 C31      4.2921   9.9053   3.5636   C.ar      1 RES1   0.0000
    43 C32      4.8162   8.8803   2.7823   C.ar      1 RES1   0.0000
    44 C33      5.0581   9.1254   1.4346   C.ar      1 RES1   0.0000
    45 C34      4.7981  10.3726   0.8809   C.ar      1 RES1   0.0000
    46 C35      4.2901  11.3897   1.6823   C.ar      1 RES1   0.0000
    47 C36      4.0364  11.1625   3.0333   C.ar      1 RES1   0.0000
    48 C37      1.2938   6.5915   6.3139   C.1       1 RES1   0.0000
    49 C38      3.3689   5.8590   4.6616   C.1       1 RES1   0.0000
    50 H1       1.1289   8.2663   4.7720   H         1 RES1   0.0000
    51 H2       2.6184   7.7995   3.5773   H         1 RES1   0.0000
    52 H3      -1.8770   8.4295   3.2044   H         1 RES1   0.0000
    53 H4      -2.4333  10.8768   3.2186   H         1 RES1   0.0000
    54 H5      -0.7938  12.5104   2.3203   H         1 RES1   0.0000
    55 H6       1.3922  11.7353   1.4522   H         1 RES1   0.0000
    56 H7       1.9134   9.3061   1.4060   H         1 RES1   0.0000
    57 H8       2.5428   6.3774   0.1917   H         1 RES1   0.0000
    58 H9       1.8253   5.8353  -2.1783   H         1 RES1   0.0000
    59 H10     -0.0225   4.2846  -2.5831   H         1 RES1   0.0000
    60 H11     -1.1592   3.1617  -0.6782   H         1 RES1   0.0000
    61 H12     -0.3910   3.6387   1.6422   H         1 RES1   0.0000
    62 H13     -2.6779   5.5255   5.0614   H         1 RES1   0.0000
    63 H14     -3.2131   3.6779   6.6823   H         1 RES1   0.0000
    64 H15     -1.5894   1.8783   7.0977   H         1 RES1   0.0000
    65 H16      0.5793   1.8883   5.8461   H         1 RES1   0.0000
    66 H17      1.0521   3.6716   4.1880   H         1 RES1   0.0000
    67 H18      2.4606  10.8357   8.9849   H         1 RES1   0.0000
    68 H19      0.9936  12.8349   9.1429   H         1 RES1   0.0000
    69 H20     -0.2039  13.6729   7.1439   H         1 RES1   0.0000
    70 H21      0.0439  12.4642   4.9815   H         1 RES1   0.0000
    71 H22      1.4594  10.4780   4.8075   H         1 RES1   0.0000
    72 H23      6.9349   8.0217   5.2745   H         1 RES1   0.0000
    73 H24      8.9522   9.0660   6.2597   H         1 RES1   0.0000
    74 H25      8.8926  10.0812   8.5321   H         1 RES1   0.0000
    75 H26      6.7143  10.1355   9.7660   H         1 RES1   0.0000
    76 H27      4.6942   9.1498   8.7505   H         1 RES1   0.0000
    77 H28      5.0254   7.8745   3.2044   H         1 RES1   0.0000
    78 H29      5.4546   8.3091   0.8220   H         1 RES1   0.0000
    79 H30      4.9681  10.5636  -0.1669   H         1 RES1   0.0000
    80 H31      4.0813  12.3534   1.2551   H         1 RES1   0.0000
    81 H32      3.6199  11.9631   3.6554   H         1 RES1   0.0000
@<TRIPOS>BOND
     1     1     2    1
     2     2     4    1
     3     3     1    1
     4     4    12    1
     5     5     2    1
     6     6     2    1
     7     7     3    1
     8     8     3    1
     9     9     3    1
    10    10    48    3
    11    11    49    3
    12    12    13   ar
    13    13    14   ar
    14    14    15   ar
    15    15    16   ar
    16    16    17   ar
    17    17    12   ar
    18    18     5    1
    19    19    18   ar
    20    20    19   ar
    21    21    20   ar
    22    22    21   ar
    23    23    18   ar
    24    24     6    1
    25    25    24   ar
    26    26    25   ar
    27    27    26   ar
    28    28    27   ar
    29    29    24   ar
    30    30     7    1
    31    31    30   ar
    32    32    31   ar
    33    33    32   ar
    34    34    33   ar
    35    35    30   ar
    36    36     8    1
    37    37    36   ar
    38    38    37   ar
    39    39    38   ar
    40    40    39   ar
    41    41    36   ar
    42    42     9    1
    43    43    42   ar
    44    44    43   ar
    45    45    44   ar
    46    46    45   ar
    47    47    42   ar
    48    48     1    1
    49    49     1    1
    50    50     1    1
    51    51     1    1
    52    52    13    1
    53    53    14    1
    54    54    15    1
    55    55    16    1
    56    56    17    1
    57    57    19    1
    58    58    20    1
    59    59    21    1
    60    60    22    1
    61    61    23    1
    62    62    25    1
    63    63    26    1
    64    64    27    1
    65    65    28    1
    66    66    29    1
    67    67    31    1
    68    68    32    1
    69    69    33    1
    70    70    34    1
    71    71    35    1
    72    72    37    1
    73    73    38    1
    74    74    39    1
    75    75    40    1
    76    76    41    1
    77    77    43    1
    78    78    44    1
    79    79    45    1
    80    80    46    1
    81    81    47    1
    82    22    23   ar
    83    28    29   ar
    84    34    35   ar
    85    40    41   ar
    86    46    47   ar
@<TRIPOS>SUBSTRUCTURE
     1 RES1        1 GROUP             0 ****  ****    0  
@<TRIPOS>CRYSIN
    9.6397   10.4410   18.3810  102.1480   94.6670  107.4020     2     1
