@<TRIPOS>MOLECULE
QOSZON51
    81    86     1     0     0
SMALL
NO_CHARGES
****
Generated from the CSD

@<TRIPOS>ATOM
     1 Fe1      2.1086   7.1098   4.8051   Fe        1 RES1   0.0000
     2 P1       0.8393   6.3939   3.2914   P.3       1 RES1   0.0000
     3 P2       3.3729   8.5444   5.7185   P.3       1 RES1   0.0000
     4 O1       0.2868   7.3929   2.1662   O.3       1 RES1   0.0000
     5 O2       1.5285   5.3112   2.3157   O.3       1 RES1   0.0000
     6 O3      -0.6011   5.7207   3.6351   O.3       1 RES1   0.0000
     7 O4       2.8413   9.4202   6.9571   O.3       1 RES1   0.0000
     8 O5       4.6323   7.8520   6.4241   O.3       1 RES1   0.0000
     9 O6       4.0501   9.7561   4.9100   O.3       1 RES1   0.0000
    10 O7       0.7679   6.3047   7.2823   O.2       1 RES1   0.0000
    11 O8       4.2085   5.0908   4.5382   O.2       1 RES1   0.0000
    12 C1       0.0402   8.7467   2.3113   C.ar      1 RES1   0.0000
    13 C2      -1.1756   9.1688   2.8286   C.ar      1 RES1   0.0000
    14 C3      -1.4696  10.5275   2.8417   C.ar      1 RES1   0.0000
    15 C4      -0.5555  11.4452   2.3443   C.ar      1 RES1   0.0000
    16 C5       0.6642  11.0065   1.8410   C.ar      1 RES1   0.0000
    17 C6       0.9737   9.6473   1.8227   C.ar      1 RES1   0.0000
    18 C7       1.0819   5.0400   1.0222   C.ar      1 RES1   0.0000
    19 C8       1.7297   5.6667  -0.0341   C.ar      1 RES1   0.0000
    20 C9       1.3229   5.3780  -1.3334   C.ar      1 RES1   0.0000
    21 C10      0.2825   4.4781  -1.5633   C.ar      1 RES1   0.0000
    22 C11     -0.3461   3.8666  -0.4886   C.ar      1 RES1   0.0000
    23 C12      0.0611   4.1361   0.8158   C.ar      1 RES1   0.0000
    24 C13     -0.7901   4.7063   4.5615   C.ar      1 RES1   0.0000
    25 C14     -1.9949   4.7111   5.2507   C.ar      1 RES1   0.0000
    26 C15     -2.2738   3.6961   6.1571   C.ar      1 RES1   0.0000
    27 C16     -1.3500   2.6745   6.3853   C.ar      1 RES1   0.0000
    28 C17     -0.1520   2.6879   5.6915   C.ar      1 RES1   0.0000
    29 C18      0.1361   3.6921   4.7726   C.ar      1 RES1   0.0000
    30 C19      2.0309  10.5372   6.9219   C.ar      1 RES1   0.0000
    31 C20      1.9023  11.2069   8.1299   C.ar      1 RES1   0.0000
    32 C21      1.0866  12.3322   8.2023   C.ar      1 RES1   0.0000
    33 C22      0.4141  12.7875   7.0721   C.ar      1 RES1   0.0000
    34 C23      0.5661  12.1148   5.8681   C.ar      1 RES1   0.0000
    35 C24      1.3777  10.9869   5.7783   C.ar      1 RES1   0.0000
    36 C25      5.7203   8.5400   6.9633   C.ar      1 RES1   0.0000
    37 C26      6.9065   8.5122   6.2551   C.ar      1 RES1   0.0000
    38 C27      8.0438   9.0849   6.8191   C.ar      1 RES1   0.0000
    39 C28      7.9836   9.6658   8.0860   C.ar      1 RES1   0.0000
    40 C29      6.7767   9.6810   8.7732   C.ar      1 RES1   0.0000
    41 C30      5.6297   9.1216   8.2200   C.ar      1 RES1   0.0000
    42 C31      4.2921   9.9061   3.5641   C.ar      1 RES1   0.0000
    43 C32      4.8174   8.8802   2.7807   C.ar      1 RES1   0.0000
    44 C33      5.0549   9.1253   1.4350   C.ar      1 RES1   0.0000
    45 C34      4.7993  10.3697   0.8797   C.ar      1 RES1   0.0000
    46 C35      4.2910  11.3895   1.6832   C.ar      1 RES1   0.0000
    47 C36      4.0379  11.1611   3.0333   C.ar      1 RES1   0.0000
    48 C37      1.2949   6.5896   6.3164   C.1       1 RES1   0.0000
    49 C38      3.3704   5.8622   4.6623   C.1       1 RES1   0.0000
    50 H1       1.1348   8.2639   4.7933   H         1 RES1   0.0000
    51 H2       2.6345   7.7775   3.5737   H         1 RES1   0.0000
    52 H3      -1.8769   8.4667   3.1796   H         1 RES1   0.0000
    53 H4      -2.4754  10.8546   3.1885   H         1 RES1   0.0000
    54 H5      -0.7733  12.4502   2.3221   H         1 RES1   0.0000
    55 H6       1.3930  11.7163   1.4131   H         1 RES1   0.0000
    56 H7       1.9172   9.2979   1.3989   H         1 RES1   0.0000
    57 H8       2.5444   6.3977   0.1900   H         1 RES1   0.0000
    58 H9       1.8844   5.8044  -2.1623   H         1 RES1   0.0000
    59 H10     -0.0451   4.2388  -2.5991   H         1 RES1   0.0000
    60 H11     -1.1972   3.1305  -0.6338   H         1 RES1   0.0000
    61 H12     -0.4152   3.6800   1.6404   H         1 RES1   0.0000
    62 H13     -2.6846   5.5023   5.0348   H         1 RES1   0.0000
    63 H14     -3.2127   3.6327   6.6485   H         1 RES1   0.0000
    64 H15     -1.6516   1.8507   7.0888   H         1 RES1   0.0000
    65 H16      0.5415   1.8847   5.8603   H         1 RES1   0.0000
    66 H17      1.0692   3.6856   4.2270   H         1 RES1   0.0000
    67 H18      2.4564  10.8315   8.9777   H         1 RES1   0.0000
    68 H19      1.0790  12.7979   9.1393   H         1 RES1   0.0000
    69 H20     -0.1645  13.6375   7.1652   H         1 RES1   0.0000
    70 H21      0.0418  12.4860   4.9584   H         1 RES1   0.0000
    71 H22      1.4748  10.4702   4.7756   H         1 RES1   0.0000
    72 H23      6.8682   8.0602   5.2017   H         1 RES1   0.0000
    73 H24      9.0010   9.0569   6.2562   H         1 RES1   0.0000
    74 H25      8.9047  10.1256   8.5144   H         1 RES1   0.0000
    75 H26      6.7448  10.1383   9.7394   H         1 RES1   0.0000
    76 H27      4.6727   9.1393   8.7487   H         1 RES1   0.0000
    77 H28      5.0636   7.9042   3.2328   H         1 RES1   0.0000
    78 H29      5.4456   8.3449   0.8379   H         1 RES1   0.0000
    79 H30      4.8919  10.4731  -0.1988   H         1 RES1   0.0000
    80 H31      4.0566  12.3041   1.2179   H         1 RES1   0.0000
    81 H32      3.6615  11.9829   3.6873   H         1 RES1   0.0000
@<TRIPOS>BOND
     1     1     2    1
     2     2     4    1
     3     3     1    1
     4     4    12    1
     5     5     2    1
     6     6     2    1
     7     7     3    1
     8     8     3    1
     9     9     3    1
    10    10    48    3
    11    11    49    3
    12    12    13   ar
    13    13    14   ar
    14    14    15   ar
    15    15    16   ar
    16    16    17   ar
    17    17    12   ar
    18    18     5    1
    19    19    18   ar
    20    20    19   ar
    21    21    20   ar
    22    22    21   ar
    23    23    18   ar
    24    24     6    1
    25    25    24   ar
    26    26    25   ar
    27    27    26   ar
    28    28    27   ar
    29    29    24   ar
    30    30     7    1
    31    31    30   ar
    32    32    31   ar
    33    33    32   ar
    34    34    33   ar
    35    35    30   ar
    36    36     8    1
    37    37    36   ar
    38    38    37   ar
    39    39    38   ar
    40    40    39   ar
    41    41    36   ar
    42    42     9    1
    43    43    42   ar
    44    44    43   ar
    45    45    44   ar
    46    46    45   ar
    47    47    42   ar
    48    48     1    1
    49    49     1    1
    50    50     1    1
    51    51     1    1
    52    52    13    1
    53    53    14    1
    54    54    15    1
    55    55    16    1
    56    56    17    1
    57    57    19    1
    58    58    20    1
    59    59    21    1
    60    60    22    1
    61    61    23    1
    62    62    25    1
    63    63    26    1
    64    64    27    1
    65    65    28    1
    66    66    29    1
    67    67    31    1
    68    68    32    1
    69    69    33    1
    70    70    34    1
    71    71    35    1
    72    72    37    1
    73    73    38    1
    74    74    39    1
    75    75    40    1
    76    76    41    1
    77    77    43    1
    78    78    44    1
    79    79    45    1
    80    80    46    1
    81    81    47    1
    82    22    23   ar
    83    28    29   ar
    84    34    35   ar
    85    40    41   ar
    86    46    47   ar
@<TRIPOS>SUBSTRUCTURE
     1 RES1        1 GROUP             0 ****  ****    0  
@<TRIPOS>CRYSIN
    9.6397   10.4410   18.3810  102.1480   94.6670  107.4020     2     1
