@<TRIPOS>MOLECULE
QOSZON02
    81    86     1     0     0
SMALL
NO_CHARGES
****
Generated from the CSD

@<TRIPOS>ATOM
     1 Fe1      2.1088   7.1097   4.8056   Fe        1 RES1   0.0000
     2 P1       0.8380   6.3939   3.2920   P.3       1 RES1   0.0000
     3 P2       3.3725   8.5447   5.7197   P.3       1 RES1   0.0000
     4 O1       0.2858   7.3916   2.1671   O.3       1 RES1   0.0000
     5 O2       1.5326   5.3085   2.3154   O.3       1 RES1   0.0000
     6 O3      -0.5989   5.7211   3.6346   O.3       1 RES1   0.0000
     7 O4       2.8402   9.4199   6.9564   O.3       1 RES1   0.0000
     8 O5       4.6305   7.8550   6.4233   O.3       1 RES1   0.0000
     9 O6       4.0490   9.7568   4.9112   O.3       1 RES1   0.0000
    10 O7       0.7677   6.3062   7.2841   O.2       1 RES1   0.0000
    11 O8       4.2037   5.0917   4.5389   O.2       1 RES1   0.0000
    12 C1       0.0408   8.7458   2.3104   C.ar      1 RES1   0.0000
    13 C2      -1.1758   9.1712   2.8272   C.ar      1 RES1   0.0000
    14 C3      -1.4725  10.5275   2.8416   C.ar      1 RES1   0.0000
    15 C4      -0.5564  11.4484   2.3438   C.ar      1 RES1   0.0000
    16 C5       0.6659  11.0017   1.8444   C.ar      1 RES1   0.0000
    17 C6       0.9691   9.6505   1.8216   C.ar      1 RES1   0.0000
    18 C7       1.0834   5.0383   1.0219   C.ar      1 RES1   0.0000
    19 C8       1.7296   5.6655  -0.0369   C.ar      1 RES1   0.0000
    20 C9       1.3246   5.3714  -1.3308   C.ar      1 RES1   0.0000
    21 C10      0.2805   4.4837  -1.5616   C.ar      1 RES1   0.0000
    22 C11     -0.3433   3.8663  -0.4873   C.ar      1 RES1   0.0000
    23 C12      0.0588   4.1318   0.8165   C.ar      1 RES1   0.0000
    24 C13     -0.7874   4.7053   4.5634   C.ar      1 RES1   0.0000
    25 C14     -1.9944   4.7144   5.2533   C.ar      1 RES1   0.0000
    26 C15     -2.2723   3.6985   6.1555   C.ar      1 RES1   0.0000
    27 C16     -1.3531   2.6825   6.3851   C.ar      1 RES1   0.0000
    28 C17     -0.1515   2.6872   5.6901   C.ar      1 RES1   0.0000
    29 C18      0.1375   3.6932   4.7713   C.ar      1 RES1   0.0000
    30 C19      2.0335  10.5398   6.9177   C.ar      1 RES1   0.0000
    31 C20      1.9022  11.2122   8.1272   C.ar      1 RES1   0.0000
    32 C21      1.0888  12.3333   8.1979   C.ar      1 RES1   0.0000
    33 C22      0.4168  12.7856   7.0757   C.ar      1 RES1   0.0000
    34 C23      0.5677  12.1173   5.8733   C.ar      1 RES1   0.0000
    35 C24      1.3798  10.9888   5.7813   C.ar      1 RES1   0.0000
    36 C25      5.7188   8.5400   6.9651   C.ar      1 RES1   0.0000
    37 C26      6.9072   8.5162   6.2589   C.ar      1 RES1   0.0000
    38 C27      8.0387   9.0838   6.8234   C.ar      1 RES1   0.0000
    39 C28      7.9811   9.6585   8.0796   C.ar      1 RES1   0.0000
    40 C29      6.7792   9.6835   8.7713   C.ar      1 RES1   0.0000
    41 C30      5.6296   9.1214   8.2183   C.ar      1 RES1   0.0000
    42 C31      4.2927   9.9054   3.5659   C.ar      1 RES1   0.0000
    43 C32      4.8149   8.8805   2.7832   C.ar      1 RES1   0.0000
    44 C33      5.0555   9.1281   1.4359   C.ar      1 RES1   0.0000
    45 C34      4.8022  10.3716   0.8802   C.ar      1 RES1   0.0000
    46 C35      4.2887  11.3913   1.6839   C.ar      1 RES1   0.0000
    47 C36      4.0375  11.1595   3.0321   C.ar      1 RES1   0.0000
    48 C37      1.2940   6.5917   6.3121   C.1       1 RES1   0.0000
    49 C38      3.3669   5.8619   4.6598   C.1       1 RES1   0.0000
    50 H1       1.1354   8.2851   4.7490   H         1 RES1   0.0000
    51 H2       2.5431   7.7635   3.6287   H         1 RES1   0.0000
    52 H3      -1.8606   8.4082   3.2098   H         1 RES1   0.0000
    53 H4      -2.4176  10.8659   3.2612   H         1 RES1   0.0000
    54 H5      -0.7759  12.4937   2.3079   H         1 RES1   0.0000
    55 H6       1.3941  11.7031   1.4611   H         1 RES1   0.0000
    56 H7       1.8876   9.3251   1.4096   H         1 RES1   0.0000
    57 H8       2.5455   6.3873   0.1917   H         1 RES1   0.0000
    58 H9       1.7591   5.8779  -2.1499   H         1 RES1   0.0000
    59 H10     -0.0872   4.3027  -2.5760   H         1 RES1   0.0000
    60 H11     -1.1236   3.1431  -0.6835   H         1 RES1   0.0000
    61 H12     -0.3910   3.6258   1.6848   H         1 RES1   0.0000
    62 H13     -2.6468   5.5322   5.0348   H         1 RES1   0.0000
    63 H14     -3.1986   3.7119   6.7054   H         1 RES1   0.0000
    64 H15     -1.5663   1.8996   7.0924   H         1 RES1   0.0000
    65 H16      0.5504   1.9173   5.8497   H         1 RES1   0.0000
    66 H17      1.0279   3.7073   4.2199   H         1 RES1   0.0000
    67 H18      2.4698  10.8236   8.9813   H         1 RES1   0.0000
    68 H19      1.0118  12.8512   9.1180   H         1 RES1   0.0000
    69 H20     -0.2059  13.6570   7.1279   H         1 RES1   0.0000
    70 H21      0.0505  12.4357   4.9602   H         1 RES1   0.0000
    71 H22      1.4551  10.4698   4.8555   H         1 RES1   0.0000
    72 H23      6.9384   8.0131   5.2691   H         1 RES1   0.0000
    73 H24      8.9523   9.0275   6.2154   H         1 RES1   0.0000
    74 H25      8.8883  10.0051   8.5570   H         1 RES1   0.0000
    75 H26      6.7185  10.1278   9.7962   H         1 RES1   0.0000
    76 H27      4.6718   9.1307   8.7825   H         1 RES1   0.0000
    77 H28      5.0468   7.8915   3.1654   H         1 RES1   0.0000
    78 H29      5.4484   8.3095   0.8593   H         1 RES1   0.0000
    79 H30      4.9778  10.5848  -0.1722   H         1 RES1   0.0000
    80 H31      4.0944  12.3656   1.2463   H         1 RES1   0.0000
    81 H32      3.6298  11.9222   3.6909   H         1 RES1   0.0000
@<TRIPOS>BOND
     1     1     2    1
     2     2     4    1
     3     3     1    1
     4     4    12    1
     5     5     2    1
     6     6     2    1
     7     7     3    1
     8     8     3    1
     9     9     3    1
    10    10    48    3
    11    11    49    3
    12    12    13   ar
    13    13    14   ar
    14    14    15   ar
    15    15    16   ar
    16    16    17   ar
    17    17    12   ar
    18    18     5    1
    19    19    18   ar
    20    20    19   ar
    21    21    20   ar
    22    22    21   ar
    23    23    18   ar
    24    24     6    1
    25    25    24   ar
    26    26    25   ar
    27    27    26   ar
    28    28    27   ar
    29    29    24   ar
    30    30     7    1
    31    31    30   ar
    32    32    31   ar
    33    33    32   ar
    34    34    33   ar
    35    35    30   ar
    36    36     8    1
    37    37    36   ar
    38    38    37   ar
    39    39    38   ar
    40    40    39   ar
    41    41    36   ar
    42    42     9    1
    43    43    42   ar
    44    44    43   ar
    45    45    44   ar
    46    46    45   ar
    47    47    42   ar
    48    48     1    1
    49    49     1    1
    50    50     1    1
    51    51     1    1
    52    52    13    1
    53    53    14    1
    54    54    15    1
    55    55    16    1
    56    56    17    1
    57    57    19    1
    58    58    20    1
    59    59    21    1
    60    60    22    1
    61    61    23    1
    62    62    25    1
    63    63    26    1
    64    64    27    1
    65    65    28    1
    66    66    29    1
    67    67    31    1
    68    68    32    1
    69    69    33    1
    70    70    34    1
    71    71    35    1
    72    72    37    1
    73    73    38    1
    74    74    39    1
    75    75    40    1
    76    76    41    1
    77    77    43    1
    78    78    44    1
    79    79    45    1
    80    80    46    1
    81    81    47    1
    82    22    23   ar
    83    28    29   ar
    84    34    35   ar
    85    40    41   ar
    86    46    47   ar
@<TRIPOS>SUBSTRUCTURE
     1 RES1        1 GROUP             0 ****  ****    0  
@<TRIPOS>CRYSIN
    9.6397   10.4410   18.3810  102.1480   94.6670  107.4020     2     1
