@<TRIPOS>MOLECULE
QOTGEN
    77    83     3     0     0
SMALL
NO_CHARGES
****
Generated from the CSD

@<TRIPOS>ATOM
     1 C1       7.0851   5.0362   2.4349   C.ar      1 RES1   0.0000
     2 C2       5.7314   5.1623   2.0114   C.ar      1 RES1   0.0000
     3 H1       5.1018   4.4926   2.2543   H         1 RES1   0.0000
     4 C3       5.3227   6.2216   1.2668   C.ar      1 RES1   0.0000
     5 H2       4.4141   6.2743   0.9927   H         1 RES1   0.0000
     6 C4       6.2230   7.2504   0.8864   C.ar      1 RES1   0.0000
     7 C5       5.7738   8.3581   0.1273   C.ar      1 RES1   0.0000
     8 H3       4.8768   8.3815  -0.1832   H         1 RES1   0.0000
     9 C6       6.6201   9.3976  -0.1624   C.ar      1 RES1   0.0000
    10 H4       6.3111  10.1393  -0.6679   H         1 RES1   0.0000
    11 C7       7.9363   9.3554   0.2910   C.ar      1 RES1   0.0000
    12 H5       8.5148  10.0880   0.1117   H         1 RES1   0.0000
    13 C8       8.4115   8.2765   0.9915   C.ar      1 RES1   0.0000
    14 H6       9.3202   8.2633   1.2681   H         1 RES1   0.0000
    15 C9       7.5706   7.1785   1.3099   C.ar      1 RES1   0.0000
    16 C10      8.0234   6.0197   2.0574   C.ar      1 RES1   0.0000
    17 C11      9.4100   5.9166   2.3977   C.2       1 RES1   0.0000
    18 H7       9.9715   6.6387   2.1387   H         1 RES1   0.0000
    19 C12     11.4037   4.9785   3.2847   C.3       1 RES1   0.0000
    20 H8      11.5705   5.1804   4.2397   H         1 RES1   0.0000
    21 H9      11.8303   5.6826   2.7351   H         1 RES1   0.0000
    22 C13     11.9771   3.6148   2.9287   C.3       1 RES1   0.0000
    23 H10     11.9207   3.4688   1.9503   H         1 RES1   0.0000
    24 H11     12.9283   3.5657   3.1963   H         1 RES1   0.0000
    25 C14     11.5364   1.2234   3.1444   C.3       1 RES1   0.0000
    26 H12     12.5107   1.0818   3.2509   H         1 RES1   0.0000
    27 H13     11.3304   1.1785   2.1777   H         1 RES1   0.0000
    28 C15     10.8042   0.1004   3.8486   C.3       1 RES1   0.0000
    29 H14     11.0012   0.1552   4.8179   H         1 RES1   0.0000
    30 H15     11.1605  -0.7623   3.5212   H         1 RES1   0.0000
    31 C16      9.2949   0.1040   3.6615   C.3       1 RES1   0.0000
    32 H16      9.0777   0.1570   2.6974   H         1 RES1   0.0000
    33 H17      8.9115  -0.7361   4.0201   H         1 RES1   0.0000
    34 C17      8.1700   1.0162   5.5103   C.2       1 RES1   0.0000
    35 H18      8.0306   0.1032   5.7313   H         1 RES1   0.0000
    36 C18      7.7537   1.9824   6.4840   C.ar      1 RES1   0.0000
    37 C19      6.9432   1.5729   7.6108   C.ar      1 RES1   0.0000
    38 C20      6.3773   0.2878   7.7362   C.ar      1 RES1   0.0000
    39 H19      6.5420  -0.3611   7.0619   H         1 RES1   0.0000
    40 C21      5.5922  -0.0431   8.8133   C.ar      1 RES1   0.0000
    41 H20      5.2322  -0.9193   8.8809   H         1 RES1   0.0000
    42 C22      5.3179   0.8936   9.8099   C.ar      1 RES1   0.0000
    43 H21      4.7654   0.6584  10.5467   H         1 RES1   0.0000
    44 C23      5.8438   2.1396   9.7255   C.ar      1 RES1   0.0000
    45 H22      5.6529   2.7724  10.4089   H         1 RES1   0.0000
    46 C24      6.6646   2.5138   8.6470   C.ar      1 RES1   0.0000
    47 C25      7.2333   3.8073   8.5600   C.ar      1 RES1   0.0000
    48 H23      7.0770   4.4273   9.2629   H         1 RES1   0.0000
    49 C26      7.9902   4.1839   7.5140   C.ar      1 RES1   0.0000
    50 H24      8.3546   5.0612   7.4971   H         1 RES1   0.0000
    51 C27      8.2574   3.2982   6.4278   C.ar      1 RES1   0.0000
    52 C28      8.6832   2.4107   0.4989   C.1       1 RES1   0.0000
    53 N1       9.9717   4.9363   3.0238   N.2       1 RES1   0.0000
    54 N2      11.1943   2.5801   3.6419   N.3       1 RES1   0.0000
    55 H25     11.4561   2.6136   4.5334   H         1 RES1   0.0000
    56 N3       8.7120   1.2571   4.3674   N.2       1 RES1   0.0000
    57 N4       9.0218   2.4567   1.6155   N.2       1 RES1   0.0000
    58 O1       7.3741   4.0095   3.1989   O.3       1 RES1   0.0000
    59 O2       9.0073   3.7352   5.4500   O.3       1 RES1   0.0000
    60 S1       8.2083   2.3161  -1.0571   S.2       1 RES1   0.0000
    61 Fe1      9.0621   3.1525   3.5800   Fe        1 RES1   0.0000
    62 N5       4.5003   4.9465   6.4837   N.ar      2 RES2   0.0000
    63 C29      5.3536   5.1334   5.4910   C.ar      2 RES2   0.0000
    64 H26      5.3479   4.5321   4.7542   H         2 RES2   0.0000
    65 C30      4.5678   5.8115   7.4945   C.ar      2 RES2   0.0000
    66 H27      3.9786   5.7047   8.2312   H         2 RES2   0.0000
    67 N5A      6.3210   7.0450   6.5096   N.ar      2 RES2   0.0000
    68 C29A     5.4677   6.8580   7.5023   C.ar      2 RES2   0.0000
    69 H26A     5.4733   7.4594   8.2390   H         2 RES2   0.0000
    70 C30A     6.2535   6.1800   5.4988   C.ar      2 RES2   0.0000
    71 H27A     6.8427   6.2867   4.7620   H         2 RES2   0.0000
    72 O3       2.0288   3.5511   6.4032   O.3       3 RES3   0.0000
    73 H28      2.8422   3.7574   6.3628   H         3 RES3   0.0000
    74 C31      1.3828   4.3653   7.3620   C.3       3 RES3   0.0000
    75 H29      1.9162   4.3875   8.1845   H         3 RES3   0.0000
    76 H30      0.4957   3.9975   7.5582   H         3 RES3   0.0000
    77 H31      1.2893   5.2738   7.0086   H         3 RES3   0.0000
@<TRIPOS>BOND
     1     1     2   ar
     2     2     3    1
     3     4     2   ar
     4     5     4    1
     5     6     4   ar
     6     7     6   ar
     7     8     7    1
     8     9     7   ar
     9    10     9    1
    10    11     9   ar
    11    12    11    1
    12    13    11   ar
    13    14    13    1
    14    15     6   ar
    15    16     1   ar
    16    17    16    1
    17    18    17    1
    18    19    20    1
    19    21    19    1
    20    22    19    1
    21    23    22    1
    22    24    22    1
    23    25    26    1
    24    27    25    1
    25    28    25    1
    26    29    28    1
    27    30    28    1
    28    31    28    1
    29    32    31    1
    30    33    31    1
    31    34    35    1
    32    36    34    1
    33    37    36   ar
    34    38    37   ar
    35    39    38    1
    36    40    38   ar
    37    41    40    1
    38    42    40   ar
    39    43    42    1
    40    44    42   ar
    41    45    44    1
    42    46    37   ar
    43    47    46   ar
    44    48    47    1
    45    49    47   ar
    46    50    49    1
    47    51    36   ar
    48    52    57    2
    49    53    17    2
    50    54    22    1
    51    55    54    1
    52    56    31    1
    53    57    61    1
    54    58     1    1
    55    59    51    1
    56    60    52    2
    57    61    53    1
    58    13    15   ar
    59    15    16   ar
    60    19    53    1
    61    25    54    1
    62    34    56    2
    63    44    46   ar
    64    49    51   ar
    65    54    61    1
    66    56    61    1
    67    58    61    1
    68    59    61    1
    69    62    63   ar
    70    63    64    1
    71    65    62   ar
    72    66    65    1
    73    67    68   ar
    74    68    65   ar
    75    69    68    1
    76    70    63   ar
    77    71    70    1
    78    67    70   ar
    79    72    73    1
    80    74    72    1
    81    75    74    1
    82    76    74    1
    83    77    74    1
@<TRIPOS>SUBSTRUCTURE
     1 RES1        1 GROUP             0 ****  ****    0  
     2 RES2       62 GROUP             0 ****  ****    0  
     3 RES3       72 GROUP             0 ****  ****    0  
@<TRIPOS>CRYSIN
   10.2159   10.6166   13.0796   83.9650   87.3700   89.9720     2     1
