@<TRIPOS>MOLECULE
QOWWIK
    90    99     3     0     0
SMALL
USER_CHARGES
****
Generated from the CSD

@<TRIPOS>ATOM
     1 Fe1     12.9976   5.6520   9.1932   Fe        1 RES1   1.0000
     2 N1      11.7033   5.8425  10.6910   N.2       1 RES1   0.0000
     3 N2      13.9169   7.1258  10.2338   N.ar      1 RES1   0.0000
     4 C1      11.8380   8.1709  13.5777   C.ar      1 RES1   0.0000
     5 H1      11.3389   8.4044  14.3266   H         1 RES1   0.0000
     6 C2      13.6933   8.4790  12.1632   C.ar      1 RES1   0.0000
     7 C3      12.0465   6.8215  11.6361   C.ar      1 RES1   0.0000
     8 O1      11.8783   4.3831   8.4626   O.3       1 RES1   0.0000
     9 C4      10.1177   4.2835   9.9691   C.ar      1 RES1   0.0000
    10 C5      10.7191   3.9333   8.7727   C.ar      1 RES1   0.0000
    11 C6      11.3588   7.1794  12.7368   C.ar      1 RES1   0.0000
    12 H2      10.5545   6.7574  12.9342   H         1 RES1   0.0000
    13 C7      13.0133   8.8149  13.3460   C.ar      1 RES1   0.0000
    14 H3      13.3500   9.4465  13.9393   H         1 RES1   0.0000
    15 C8       8.7826   3.7256  10.2204   C.ar      1 RES1   0.0000
    16 C9       8.2314   2.8901   9.3586   C.ar      1 RES1   0.0000
    17 C10     13.2457   7.4732  11.3959   C.ar      1 RES1   0.0000
    18 C11     14.9192   9.0618  11.8506   C.ar      1 RES1   0.0000
    19 H4      15.2848   9.7078  12.4108   H         1 RES1   0.0000
    20 C12     10.5806   5.2377  10.8246   C.2       1 RES1   0.0000
    21 C13     10.1320   3.0337   7.9282   C.ar      1 RES1   0.0000
    22 H5      10.5919   2.7600   7.1682   H         1 RES1   0.0000
    23 C14     15.5742   8.6896  10.7315   C.ar      1 RES1   0.0000
    24 H6      16.3656   9.1059  10.4802   H         1 RES1   0.0000
    25 C15     15.0572   7.6952   9.9936   C.ar      1 RES1   0.0000
    26 H7      15.5479   7.3967   9.2606   H         1 RES1   0.0000
    27 C16      8.1198   4.0673  11.3824   C.ar      1 RES1   0.0000
    28 H8       8.5240   4.5888  12.0357   H         1 RES1   0.0000
    29 C17      8.9142   2.5389   8.1648   C.ar      1 RES1   0.0000
    30 H9       8.5155   1.9666   7.5507   H         1 RES1   0.0000
    31 C18      6.9214   2.4786   9.5217   C.ar      1 RES1   0.0000
    32 H10      6.4999   2.0001   8.8451   H         1 RES1   0.0000
    33 C19      6.2736   2.7657  10.6273   C.ar      1 RES1   0.0000
    34 H11      5.4268   2.4078  10.7854   H         1 RES1   0.0000
    35 C20      6.8548   3.5983  11.5344   C.ar      1 RES1   0.0000
    36 O2       6.2991   4.0290  12.6253   O.3       1 RES1   0.0000
    37 C21      5.3316   3.2634  13.2504   C.3       1 RES1   0.0000
    38 H12      5.0164   3.7285  14.0226   H         1 RES1   0.0000
    39 H13      5.7154   2.4212  13.5127   H         1 RES1   0.0000
    40 H14      4.6094   3.1103  12.6412   H         1 RES1   0.0000
    41 N1A     14.2919   5.8425   7.6953   N.2       1 RES1   0.0000
    42 N2A     12.0783   7.1258   8.1525   N.ar      1 RES1   0.0000
    43 C1A     14.1573   8.1709   4.8086   C.ar      1 RES1   0.0000
    44 H1A     14.6563   8.4044   4.0597   H         1 RES1   0.0000
    45 C2A     12.3020   8.4790   6.2232   C.ar      1 RES1   0.0000
    46 C3A     13.9487   6.8215   6.7502   C.ar      1 RES1   0.0000
    47 O1A     14.1169   4.3831   9.9237   O.3       1 RES1   0.0000
    48 C4A     15.8775   4.2835   8.4173   C.ar      1 RES1   0.0000
    49 C5A     15.2762   3.9333   9.6136   C.ar      1 RES1   0.0000
    50 C6A     14.6364   7.1794   5.6495   C.ar      1 RES1   0.0000
    51 H2A     15.4407   6.7574   5.4522   H         1 RES1   0.0000
    52 C7A     12.9819   8.8149   5.0403   C.ar      1 RES1   0.0000
    53 H3A     12.6452   9.4465   4.4470   H         1 RES1   0.0000
    54 C8A     17.2126   3.7256   8.1660   C.ar      1 RES1   0.0000
    55 C9A     17.7638   2.8901   9.0277   C.ar      1 RES1   0.0000
    56 C10A    12.7495   7.4732   6.9905   C.ar      1 RES1   0.0000
    57 C11A    11.0760   9.0618   6.5357   C.ar      1 RES1   0.0000
    58 H4A     10.7104   9.7078   5.9756   H         1 RES1   0.0000
    59 C12A    15.4146   5.2377   7.5617   C.2       1 RES1   0.0000
    60 C13A    15.8632   3.0337  10.4581   C.ar      1 RES1   0.0000
    61 H5A     15.4033   2.7600  11.2181   H         1 RES1   0.0000
    62 C14A    10.4210   8.6896   7.6548   C.ar      1 RES1   0.0000
    63 H6A      9.6296   9.1059   7.9061   H         1 RES1   0.0000
    64 C15A    10.9381   7.6952   8.3927   C.ar      1 RES1   0.0000
    65 H7A     10.4474   7.3967   9.1258   H         1 RES1   0.0000
    66 C16A    17.8754   4.0673   7.0040   C.ar      1 RES1   0.0000
    67 H8A     17.4712   4.5888   6.3506   H         1 RES1   0.0000
    68 C17A    17.0810   2.5389  10.2216   C.ar      1 RES1   0.0000
    69 H9A     17.4797   1.9666  10.8357   H         1 RES1   0.0000
    70 C18A    19.0739   2.4786   8.8647   C.ar      1 RES1   0.0000
    71 H10A    19.4953   2.0001   9.5413   H         1 RES1   0.0000
    72 C19A    19.7216   2.7657   7.7590   C.ar      1 RES1   0.0000
    73 H11A    20.5684   2.4078   7.6009   H         1 RES1   0.0000
    74 C20A    19.1404   3.5983   6.8520   C.ar      1 RES1   0.0000
    75 O2A     19.6962   4.0290   5.7611   O.3       1 RES1   0.0000
    76 C21A    20.6636   3.2634   5.1359   C.3       1 RES1   0.0000
    77 H12A    20.9788   3.7285   4.3637   H         1 RES1   0.0000
    78 H13A    20.2799   2.4212   4.8736   H         1 RES1   0.0000
    79 H14A    21.3858   3.1103   5.7451   H         1 RES1   0.0000
    80 P1       5.8601   9.5700   6.1288   P.3       2 RES2  -1.0000
    81 F1       7.3049   9.4188   6.7122   F         2 RES2   0.0000
    82 F2       5.3245   9.8054   7.5507   F         2 RES2   0.0000
    83 F3       5.6020   8.0455   6.2795   F         2 RES2   0.0000
    84 F1B      4.4153   9.7212   5.5453   F         2 RES2   0.0000
    85 F2B      6.3956   9.3346   4.7069   F         2 RES2   0.0000
    86 F3B      6.1181  11.0945   5.9780   F         2 RES2   0.0000
    87 O3       5.8435   2.1867  16.6936   O.2       3 RES3   0.0000
    88 C22      4.7720   2.3638  16.1309   C.2       3 RES3   0.0000
    89 C23      3.5949   2.6796  16.6090   C.2       3 RES3   0.0000
    90 C24      4.1533   0.9379  15.9961   C.3       3 RES3   0.0000
@<TRIPOS>BOND
     1     1     2    1
     2     2     7    1
     3     3     1    1
     4     4     5    1
     5     6    13   ar
     6     7    11   ar
     7     8     1    1
     8     9    10   ar
     9    10     8    1
    10    11     4   ar
    11    12    11    1
    12    13     4   ar
    13    14    13    1
    14    15     9   ar
    15    16    15   ar
    16    17     3   ar
    17    18     6   ar
    18    19    18    1
    19    20     2    2
    20    21    10   ar
    21    22    21    1
    22    23    18   ar
    23    24    23    1
    24    25     3   ar
    25    26    25    1
    26    27    15   ar
    27    28    27    1
    28    29    16   ar
    29    30    29    1
    30    31    16   ar
    31    32    31    1
    32    33    31   ar
    33    34    33    1
    34    35    27   ar
    35    36    35    1
    36    37    36    1
    37    38    37    1
    38    39    37    1
    39    40    37    1
    40    41     1    1
    41    42     1    1
    42    43    44    1
    43    45    52   ar
    44    46    41    1
    45    47     1    1
    46    48    49   ar
    47    49    47    1
    48    50    43   ar
    49    51    50    1
    50    52    43   ar
    51    53    52    1
    52    54    48   ar
    53    55    54   ar
    54    56    42   ar
    55    57    45   ar
    56    58    57    1
    57    59    41    2
    58    60    49   ar
    59    61    60    1
    60    62    57   ar
    61    63    62    1
    62    64    42   ar
    63    65    64    1
    64    66    54   ar
    65    67    66    1
    66    68    55   ar
    67    69    68    1
    68    70    55   ar
    69    71    70    1
    70    72    70   ar
    71    73    72    1
    72    74    66   ar
    73    75    74    1
    74    76    75    1
    75    77    76    1
    76    78    76    1
    77    79    76    1
    78     6    17   ar
    79     7    17   ar
    80     9    20    1
    81    21    29   ar
    82    23    25   ar
    83    33    35   ar
    84    45    56   ar
    85    46    50   ar
    86    46    56   ar
    87    48    59    1
    88    60    68   ar
    89    62    64   ar
    90    72    74   ar
    91    80    81    1
    92    82    80    1
    93    83    80    1
    94    84    80    1
    95    85    80    1
    96    86    80    1
    97    87    88    2
    98    88    89    1
    99    90    88    1
@<TRIPOS>SUBSTRUCTURE
     1 RES1        1 GROUP             0 ****  ****    0  
     2 RES2       80 GROUP             0 ****  ****    0  
     3 RES3       87 GROUP             0 ****  ****    0  
@<TRIPOS>CRYSIN
   16.8300    9.5700   13.2800   90.0000  112.6300   90.0000    13     1
