@<TRIPOS>MOLECULE
QOWWIK01
    98   107     3     0     0
SMALL
USER_CHARGES
****
Generated from the CSD

@<TRIPOS>ATOM
     1 Fe1     -3.9422   4.0694   9.5065   Fe        1 RES1   1.0000
     2 O1      -2.5849   5.3831   9.8830   O.3       1 RES1   0.0000
     3 N1      -4.0812   3.7782  11.5904   N.2       1 RES1   0.0000
     4 N2      -5.4384   2.5300   9.6890   N.ar      1 RES1   0.0000
     5 C1      -5.7096   2.1571  10.9680   C.ar      1 RES1   0.0000
     6 C2      -5.0097   2.7898  12.0175   C.ar      1 RES1   0.0000
     7 C3      -3.3367   4.3755  12.4814   C.2       1 RES1   0.0000
     8 H1      -3.4962   4.1483  13.3687   H         1 RES1   0.0000
     9 C4      -1.9667   5.7886  10.9604   C.ar      1 RES1   0.0000
    10 C5      -0.9370   6.7368  10.8045   C.ar      1 RES1   0.0000
    11 H2      -0.7302   7.0570   9.9552   H         1 RES1   0.0000
    12 C6      -6.6942   1.1504  11.2557   C.ar      1 RES1   0.0000
    13 C7      -2.3162   5.3294  12.2507   C.ar      1 RES1   0.0000
    14 C8      -5.2779   2.4140  13.3104   C.ar      1 RES1   0.0000
    15 H3      -4.8212   2.8195  14.0126   H         1 RES1   0.0000
    16 C9      -6.9262   0.7986  12.5968   C.ar      1 RES1   0.0000
    17 H4      -7.5509   0.1419  12.8021   H         1 RES1   0.0000
    18 C10     -6.2467   1.4122  13.5855   C.ar      1 RES1   0.0000
    19 H5      -6.4152   1.1744  14.4689   H         1 RES1   0.0000
    20 C11     -1.5726   5.8260  13.4017   C.ar      1 RES1   0.0000
    21 C12     -0.5100   6.7502  13.1710   C.ar      1 RES1   0.0000
    22 C13     -7.3668   0.5886  10.1618   C.ar      1 RES1   0.0000
    23 H6      -8.0015  -0.0757  10.3025   H         1 RES1   0.0000
    24 C14     -0.2389   7.1893  11.8794   C.ar      1 RES1   0.0000
    25 H7       0.4411   7.8105  11.7475   H         1 RES1   0.0000
    26 C15     -6.1141   1.9759   8.7080   C.ar      1 RES1   0.0000
    27 H8      -5.9264   2.2453   7.8372   H         1 RES1   0.0000
    28 O2      -1.1461   5.1645  16.9013   O.3       1 RES1   0.0000
    29 C16     -1.7577   5.3821  14.6971   C.ar      1 RES1   0.0000
    30 H9      -2.4706   4.8175  14.8872   H         1 RES1   0.0000
    31 C17     -7.1003   1.0047   8.8981   C.ar      1 RES1   0.0000
    32 H10     -7.5638   0.6500   8.1743   H         1 RES1   0.0000
    33 C18     -0.9169   5.7541  15.7022   C.ar      1 RES1   0.0000
    34 C19      0.2758   7.1922  14.2496   C.ar      1 RES1   0.0000
    35 H11      0.9393   7.8268  14.1026   H         1 RES1   0.0000
    36 C20      0.0552   5.0025  17.7721   C.3       1 RES1   0.0000
    37 H12      0.8116   4.7638  17.2322   H         1 RES1   0.0000
    38 H13     -0.1090   4.3113  18.4173   H         1 RES1   0.0000
    39 H14      0.2344   5.8289  18.2272   H         1 RES1   0.0000
    40 C21      0.0812   6.7042  15.5045   C.ar      1 RES1   0.0000
    41 H15      0.6026   6.9995  16.2156   H         1 RES1   0.0000
    42 O1A     -5.2995   5.3831   9.1301   O.3       1 RES1   0.0000
    43 N1A     -3.8032   3.7782   7.4227   N.2       1 RES1   0.0000
    44 N2A     -2.4460   2.5300   9.3240   N.ar      1 RES1   0.0000
    45 C1A     -2.1748   2.1571   8.0451   C.ar      1 RES1   0.0000
    46 C2A     -2.8747   2.7898   6.9955   C.ar      1 RES1   0.0000
    47 C3A     -4.5477   4.3755   6.5316   C.2       1 RES1   0.0000
    48 H1A     -4.3882   4.1483   5.6443   H         1 RES1   0.0000
    49 C4A     -5.9177   5.7886   8.0527   C.ar      1 RES1   0.0000
    50 C5A     -6.9474   6.7368   8.2086   C.ar      1 RES1   0.0000
    51 H2A     -7.1542   7.0570   9.0578   H         1 RES1   0.0000
    52 C6A     -1.1902   1.1504   7.7573   C.ar      1 RES1   0.0000
    53 C7A     -5.5682   5.3294   6.7623   C.ar      1 RES1   0.0000
    54 C8A     -2.6065   2.4140   5.7026   C.ar      1 RES1   0.0000
    55 H3A     -3.0633   2.8195   5.0004   H         1 RES1   0.0000
    56 C9A     -0.9582   0.7986   6.4163   C.ar      1 RES1   0.0000
    57 H4A     -0.3335   0.1419   6.2109   H         1 RES1   0.0000
    58 C10A    -1.6377   1.4122   5.4276   C.ar      1 RES1   0.0000
    59 H5A     -1.4692   1.1744   4.5441   H         1 RES1   0.0000
    60 C11A    -6.3118   5.8260   5.6114   C.ar      1 RES1   0.0000
    61 C12A    -7.3744   6.7502   5.8421   C.ar      1 RES1   0.0000
    62 C13A    -0.5176   0.5886   8.8512   C.ar      1 RES1   0.0000
    63 H6A      0.1170  -0.0757   8.7105   H         1 RES1   0.0000
    64 C14A    -7.6455   7.1893   7.1337   C.ar      1 RES1   0.0000
    65 H7A     -8.3255   7.8105   7.2655   H         1 RES1   0.0000
    66 C15A    -1.7703   1.9759  10.3051   C.ar      1 RES1   0.0000
    67 H8A     -1.9580   2.2453  11.1759   H         1 RES1   0.0000
    68 O2A     -6.7383   5.1645   2.1117   O.3       1 RES1   0.0000
    69 C16A    -6.1267   5.3821   4.3160   C.ar      1 RES1   0.0000
    70 H9A     -5.4138   4.8175   4.1258   H         1 RES1   0.0000
    71 C17A    -0.7841   1.0047  10.1149   C.ar      1 RES1   0.0000
    72 H10A    -0.3206   0.6500  10.8387   H         1 RES1   0.0000
    73 C18A    -6.9675   5.7541   3.3108   C.ar      1 RES1   0.0000
    74 C19A    -8.1602   7.1922   4.7634   C.ar      1 RES1   0.0000
    75 H11A    -8.8237   7.8268   4.9104   H         1 RES1   0.0000
    76 C20A    -7.9396   5.0025   1.2409   C.3       1 RES1   0.0000
    77 H12A    -8.6960   4.7638   1.7809   H         1 RES1   0.0000
    78 H13A    -7.7754   4.3113   0.5957   H         1 RES1   0.0000
    79 H14A    -8.1188   5.8289   0.7859   H         1 RES1   0.0000
    80 C21A    -7.9656   6.7042   3.5085   C.ar      1 RES1   0.0000
    81 H15A    -8.4870   6.9995   2.7975   H         1 RES1   0.0000
    82 P1       3.5017   0.0000  12.6754   P.3       2 RES2  -1.0000
    83 F1       4.9238  -0.2521  13.3307   F         2 RES2   0.0000
    84 F2       3.7033   1.5512  12.9073   F         2 RES2   0.0000
    85 F3       2.8195  -0.1160  14.0925   F         2 RES2   0.0000
    86 F1B      2.0797   0.2521  12.0200   F         2 RES2   0.0000
    87 F2B      3.3001  -1.5512  12.4434   F         2 RES2   0.0000
    88 F3B      4.1840   0.1160  11.2583   F         2 RES2   0.0000
    89 O3      -1.5826   2.0459  13.7933   O.2       3 RES3   0.0000
    90 C22     -0.4753   2.2156  14.2319   C.2       3 RES3   0.0000
    91 C23      0.5358   3.0276  13.3396   C.3       3 RES3   0.0000
    92 H16      0.1786   3.1196  12.4523   H         3 RES3   0.0000
    93 H17      1.3742   2.5607  13.2990   H         3 RES3   0.0000
    94 H18      0.6719   3.8981  13.7211   H         3 RES3   0.0000
    95 C24     -0.0137   1.7947  15.4462   C.3       3 RES3   0.0000
    96 H19     -0.7500   1.4860  15.9798   H         3 RES3   0.0000
    97 H20      0.4226   2.5243  15.8936   H         3 RES3   0.0000
    98 H21      0.6116   1.0776  15.3194   H         3 RES3   0.0000
@<TRIPOS>BOND
     1     1     2    1
     2     2     9    1
     3     3     1    1
     4     4     1    1
     5     5     4   ar
     6     6     3    1
     7     7     3    2
     8     8     7    1
     9     9    10   ar
    10    10    11    1
    11    12     5   ar
    12    13     7    1
    13    14     6   ar
    14    15    14    1
    15    16    12   ar
    16    17    16    1
    17    18    14   ar
    18    19    18    1
    19    20    13   ar
    20    21    20   ar
    21    22    12   ar
    22    23    22    1
    23    24    10   ar
    24    25    24    1
    25    26     4   ar
    26    27    26    1
    27    28    33    1
    28    29    20   ar
    29    30    29    1
    30    31    22   ar
    31    32    31    1
    32    33    29   ar
    33    34    21   ar
    34    35    34    1
    35    36    28    1
    36    37    36    1
    37    38    36    1
    38    39    36    1
    39    40    33   ar
    40    41    40    1
    41    42     1    1
    42    43     1    1
    43    44     1    1
    44    45    44   ar
    45    46    43    1
    46    47    43    2
    47    48    47    1
    48    49    42    1
    49    50    49   ar
    50    51    50    1
    51    52    45   ar
    52    53    47    1
    53    54    46   ar
    54    55    54    1
    55    56    52   ar
    56    57    56    1
    57    58    54   ar
    58    59    58    1
    59    60    53   ar
    60    61    60   ar
    61    62    52   ar
    62    63    62    1
    63    64    50   ar
    64    65    64    1
    65    66    44   ar
    66    67    66    1
    67    68    73    1
    68    69    60   ar
    69    70    69    1
    70    71    62   ar
    71    72    71    1
    72    73    69   ar
    73    74    61   ar
    74    75    74    1
    75    76    68    1
    76    77    76    1
    77    78    76    1
    78    79    76    1
    79    80    73   ar
    80    81    80    1
    81     5     6   ar
    82     9    13   ar
    83    16    18   ar
    84    21    24   ar
    85    26    31   ar
    86    34    40   ar
    87    45    46   ar
    88    49    53   ar
    89    56    58   ar
    90    61    64   ar
    91    66    71   ar
    92    74    80   ar
    93    82    83    1
    94    84    82    1
    95    85    82    1
    96    86    82    1
    97    87    82    1
    98    88    82    1
    99    89    90    2
   100    90    91    1
   101    91    92    1
   102    93    91    1
   103    94    91    1
   104    95    90    1
   105    96    95    1
   106    97    95    1
   107    98    95    1
@<TRIPOS>SUBSTRUCTURE
     1 RES1        1 GROUP             0 ****  ****    0  
     2 RES2       82 GROUP             0 ****  ****    0  
     3 RES3       89 GROUP             0 ****  ****    0  
@<TRIPOS>CRYSIN
   17.5160    9.5870   13.7220   90.0000  112.5230   90.0000    13     1
