@<TRIPOS>MOLECULE
QOWZEI
    83    90     3     0     0
SMALL
USER_CHARGES
****
Generated from the CSD

@<TRIPOS>ATOM
     1 Fe1      4.2881   6.7935   8.9257   Fe        1 RES1   1.0000
     2 O1       5.8129   7.6489   9.5879   O.3       1 RES1   0.0000
     3 O2       7.7540   9.2682  10.1378   O.3       1 RES1   0.0000
     4 O3       5.0111   6.5863   7.2253   O.3       1 RES1   0.0000
     5 O4       6.4730   5.9794   5.0220   O.3       1 RES1   0.0000
     6 N1       2.6563   5.8398   8.3597   N.ar      1 RES1   0.0000
     7 N2       4.9405   5.0046   9.2680   N.2       1 RES1   0.0000
     8 N3       3.5681   8.5634   8.5871   N.2       1 RES1   0.0000
     9 N4       3.4063   7.0178  10.6735   N.ar      1 RES1   0.0000
    10 C1       1.5045   6.3522   7.8972   C.ar      1 RES1   0.0000
    11 H1       1.4288   7.2925   7.7880   H         1 RES1   0.0000
    12 C2       0.4028   5.5335   7.5709   C.ar      1 RES1   0.0000
    13 H2      -0.3925   5.9278   7.2317   H         1 RES1   0.0000
    14 C3       0.4680   4.2044   7.7341   C.ar      1 RES1   0.0000
    15 H3      -0.2840   3.6593   7.5311   H         1 RES1   0.0000
    16 C4       1.6666   3.6211   8.2120   C.ar      1 RES1   0.0000
    17 C5       2.7352   4.4863   8.5062   C.ar      1 RES1   0.0000
    18 C6       1.8528   2.2419   8.4240   C.ar      1 RES1   0.0000
    19 H4       1.1385   1.6423   8.2428   H         1 RES1   0.0000
    20 C7       3.0536   1.7432   8.8890   C.ar      1 RES1   0.0000
    21 H5       3.1559   0.8081   9.0188   H         1 RES1   0.0000
    22 C8       4.1418   2.6208   9.1781   C.ar      1 RES1   0.0000
    23 H6       4.9694   2.2753   9.4903   H         1 RES1   0.0000
    24 C9       6.1625   4.7111   9.6316   C.2       1 RES1   0.0000
    25 H7       6.3903   3.7914   9.7023   H         1 RES1   0.0000
    26 C10      7.1774   5.6672   9.9297   C.ar      1 RES1   0.0000
    27 C11      8.4434   5.1724  10.3511   C.ar      1 RES1   0.0000
    28 H8       8.5917   4.2350  10.3858   H         1 RES1   0.0000
    29 C12      9.4545   6.0349  10.7108   C.ar      1 RES1   0.0000
    30 H9      10.2870   5.6889  11.0076   H         1 RES1   0.0000
    31 C13      9.2597   7.4287  10.6401   C.ar      1 RES1   0.0000
    32 H10      9.9680   8.0185  10.8688   H         1 RES1   0.0000
    33 C14      8.0435   7.9347  10.2393   C.ar      1 RES1   0.0000
    34 C15      6.9531   7.0707   9.8847   C.ar      1 RES1   0.0000
    35 C16      8.7491  10.1885  10.5630   C.3       1 RES1   0.0000
    36 H11      8.9398  10.0464  11.5137   H         1 RES1   0.0000
    37 H12      8.4289  11.1036  10.4269   H         1 RES1   0.0000
    38 H13      9.5673  10.0488  10.0414   H         1 RES1   0.0000
    39 C17      3.3233   6.1404  11.6756   C.ar      1 RES1   0.0000
    40 H14      3.7172   5.2829  11.5728   H         1 RES1   0.0000
    41 C18      2.6708   6.4497  12.8704   C.ar      1 RES1   0.0000
    42 H15      2.5933   5.7876  13.5462   H         1 RES1   0.0000
    43 C19      2.1488   7.6790  13.0785   C.ar      1 RES1   0.0000
    44 H16      1.7435   7.8944  13.9111   H         1 RES1   0.0000
    45 C20      2.2100   8.6494  12.0379   C.ar      1 RES1   0.0000
    46 C21      2.8513   8.2582  10.8380   C.ar      1 RES1   0.0000
    47 C22      1.6770   9.9499  12.1356   C.ar      1 RES1   0.0000
    48 H17      1.2496  10.2355  12.9334   H         1 RES1   0.0000
    49 C23      1.7853  10.8157  11.0410   C.ar      1 RES1   0.0000
    50 H18      1.4295  11.6950  11.1052   H         1 RES1   0.0000
    51 C24      2.4000  10.4169   9.8680   C.ar      1 RES1   0.0000
    52 H19      2.4646  11.0295   9.1447   H         1 RES1   0.0000
    53 C25      2.9208   9.1506   9.7267   C.ar      1 RES1   0.0000
    54 C26      3.6509   9.2077   7.4591   C.2       1 RES1   0.0000
    55 H20      3.2526  10.0676   7.4116   H         1 RES1   0.0000
    56 C27      4.3028   8.7088   6.2849   C.ar      1 RES1   0.0000
    57 C28      4.2331   9.5071   5.1042   C.ar      1 RES1   0.0000
    58 H21      3.7434  10.3205   5.1145   H         1 RES1   0.0000
    59 C29      4.8630   9.1089   3.9634   C.ar      1 RES1   0.0000
    60 H22      4.7827   9.6322   3.1746   H         1 RES1   0.0000
    61 C30      5.6348   7.9258   3.9428   C.ar      1 RES1   0.0000
    62 H23      6.0897   7.6718   3.1489   H         1 RES1   0.0000
    63 C31      5.7321   7.1329   5.0747   C.ar      1 RES1   0.0000
    64 C32      5.0059   7.4709   6.2489   C.ar      1 RES1   0.0000
    65 C33      7.5681   5.9569   5.9522   C.3       1 RES1   0.0000
    66 H24      8.1662   6.7109   5.7697   H         1 RES1   0.0000
    67 H25      8.0618   5.1164   5.8532   H         1 RES1   0.0000
    68 H26      7.2223   6.0285   6.8656   H         1 RES1   0.0000
    69 C34      3.9742   3.9856   8.9957   C.ar      1 RES1   0.0000
    70 P1       0.0346  10.2843   6.4236   P.3       2 RES2  -1.0000
    71 F1      -1.0811   9.2069   6.0023   F         2 RES2   0.0000
    72 F2      -0.2891  11.1201   5.1094   F         2 RES2   0.0000
    73 F3       1.1477   9.4499   5.6464   F         2 RES2   0.0000
    74 F1A      1.1502  11.3616   6.8450   F         2 RES2   0.0000
    75 F2A      0.3582   9.4484   7.7379   F         2 RES2   0.0000
    76 F3A     -1.0786  11.1187   7.2009   F         2 RES2   0.0000
    77 P2      -1.9051   6.0470   0.0000   P.3       3 RES3  -1.0000
    78 F4      -2.6515   6.4718   1.3682   F         3 RES3   0.0000
    79 F5      -0.5621   6.6997   0.5293   F         3 RES3   0.0000
    80 F6      -1.4585   4.6826   0.6359   F         3 RES3   0.0000
    81 F4A     -1.1587   5.6221  -1.3682   F         3 RES3   0.0000
    82 F5A     -3.2481   5.3942  -0.5293   F         3 RES3   0.0000
    83 F6A     -2.3517   7.4113  -0.6359   F         3 RES3   0.0000
@<TRIPOS>BOND
     1     1     2    1
     2     2    34    1
     3     3    33    1
     4     4     1    1
     5     5    63    1
     6     6     1    1
     7     7     1    1
     8     8     1    1
     9     9     1    1
    10    10     6   ar
    11    11    10    1
    12    12    10   ar
    13    13    12    1
    14    14    12   ar
    15    15    14    1
    16    16    14   ar
    17    17     6   ar
    18    18    16   ar
    19    19    18    1
    20    20    18   ar
    21    21    20    1
    22    22    20   ar
    23    23    22    1
    24    24     7    2
    25    25    24    1
    26    26    24    1
    27    27    26   ar
    28    28    27    1
    29    29    27   ar
    30    30    29    1
    31    31    29   ar
    32    32    31    1
    33    33    31   ar
    34    34    26   ar
    35    35     3    1
    36    36    35    1
    37    37    35    1
    38    38    35    1
    39    39     9   ar
    40    40    39    1
    41    41    39   ar
    42    42    41    1
    43    43    41   ar
    44    44    43    1
    45    45    43   ar
    46    46     9   ar
    47    47    45   ar
    48    48    47    1
    49    49    47   ar
    50    50    49    1
    51    51    49   ar
    52    52    51    1
    53    53     8    1
    54    54     8    2
    55    55    54    1
    56    56    54    1
    57    57    56   ar
    58    58    57    1
    59    59    57   ar
    60    60    59    1
    61    61    59   ar
    62    62    61    1
    63    63    61   ar
    64    64     4    1
    65    65     5    1
    66    66    65    1
    67    67    65    1
    68    68    65    1
    69    69     7    1
    70    16    17   ar
    71    17    69   ar
    72    22    69   ar
    73    33    34   ar
    74    45    46   ar
    75    46    53   ar
    76    51    53   ar
    77    56    64   ar
    78    63    64   ar
    79    70    71    1
    80    72    70    1
    81    73    70    1
    82    74    70    1
    83    75    70    1
    84    76    70    1
    85    77    78    1
    86    79    77    1
    87    80    77    1
    88    81    77    1
    89    82    77    1
    90    83    77    1
@<TRIPOS>SUBSTRUCTURE
     1 RES1        1 GROUP             0 ****  ****    0  
     2 RES2       70 GROUP             0 ****  ****    0  
     3 RES3       77 GROUP             0 ****  ****    0  
@<TRIPOS>CRYSIN
   10.4220   12.6799   13.6242  101.1340  101.5700  107.4870     2     1
