@<TRIPOS>MOLECULE
QUGXAS
    84    86     2     0     0
SMALL
USER_CHARGES
****
Generated from the CSD

@<TRIPOS>ATOM
     1 Fe1     13.2672  11.5764   3.0157   Fe        1 RES1   0.0000
     2 Br1     12.2984   8.6930  -3.2378   Br        1 RES1   0.0000
     3 Br2     10.9419   6.4891  -1.1606   Br        1 RES1   0.0000
     4 C1      15.0240  10.7325   3.1817   C.1       1 RES1  -1.0000
     5 C2      13.0632  11.5323   4.9142   C.1       1 RES1   0.0000
     6 C3      11.5158  12.4420   2.8731   C.1       1 RES1   0.0000
     7 C4      14.0954  13.2826   3.2431   C.1       1 RES1   0.0000
     8 C5      13.8398  12.5082   0.2148   C.ar      1 RES1   0.0000
     9 H1      14.2050  13.2770   0.5883   H         1 RES1   0.0000
    10 C6      13.8040  12.3969  -1.1586   C.ar      1 RES1   0.0000
    11 H2      14.1225  13.0883  -1.6946   H         1 RES1   0.0000
    12 C7      13.2956  11.2662  -1.7253   C.ar      1 RES1   0.0000
    13 H3      13.2672  11.1817  -2.6511   H         1 RES1   0.0000
    14 C8      12.8184  10.2369  -0.9168   C.ar      1 RES1   0.0000
    15 C9      12.8499  10.4425   0.4656   C.ar      1 RES1   0.0000
    16 C10     12.3030   9.5005   1.3644   C.ar      1 RES1   0.0000
    17 C11     12.2424   8.9921  -1.3878   C.ar      1 RES1   0.0000
    18 C12     11.7166   8.0924  -0.5342   C.ar      1 RES1   0.0000
    19 C13     11.7155   8.3078   0.9005   C.ar      1 RES1   0.0000
    20 C14     11.1953   7.4446   1.8625   C.ar      1 RES1   0.0000
    21 H4      10.7738   6.6561   1.6062   H         1 RES1   0.0000
    22 C15     11.3082   7.7643   3.1835   C.ar      1 RES1   0.0000
    23 H5      10.9758   7.1855   3.8314   H         1 RES1   0.0000
    24 C16     11.9126   8.9457   3.5625   C.ar      1 RES1   0.0000
    25 H6      11.9801   9.1428   4.4685   H         1 RES1   0.0000
    26 N1      16.0644  10.2524   3.2936   N.1       1 RES1   0.0000
    27 N2      12.8961  11.5154   6.0440   N.1       1 RES1   0.0000
    28 N3      10.5027  12.9461   2.7702   N.1       1 RES1   0.0000
    29 N4      14.5841  14.3147   3.3477   N.1       1 RES1   0.0000
    30 N5      13.3779  11.5633   1.0325   N.ar      1 RES1   0.0000
    31 N6      12.3998   9.8074   2.6825   N.ar      1 RES1   0.0000
    32 C17      4.4697   6.9166   4.2248   C.3       2 RES2   0.0000
    33 H7       3.7060   6.4590   3.8404   H         2 RES2   0.0000
    34 H8       4.4728   7.8220   3.8747   H         2 RES2   0.0000
    35 C18      5.7270   6.2224   3.7502   C.3       2 RES2   0.0000
    36 H9       6.5052   6.6547   4.1346   H         2 RES2   0.0000
    37 H10      5.7197   5.2973   4.0444   H         2 RES2   0.0000
    38 C19      5.8029   6.2773   2.2541   C.3       2 RES2   0.0000
    39 H11      5.7707   7.2052   1.9725   H         2 RES2   0.0000
    40 H12      5.0272   5.8295   1.8823   H         2 RES2   0.0000
    41 C20      7.0632   5.6324   1.6892   C.3       2 RES2   0.0000
    42 H13      7.8370   6.0872   2.0303   H         2 RES2   0.0000
    43 H14      7.0518   5.6944   0.7309   H         2 RES2   0.0000
    44 H15      7.0945   4.7087   1.9491   H         2 RES2   0.0000
    45 C21      4.2487   5.6014   6.3688   C.3       2 RES2   0.0000
    46 H16      5.1044   5.1776   6.2010   H         2 RES2   0.0000
    47 H17      4.1600   5.7042   7.3289   H         2 RES2   0.0000
    48 C22      3.1658   4.6777   5.8942   C.3       2 RES2   0.0000
    49 H18      3.2713   4.5186   4.9431   H         2 RES2   0.0000
    50 H19      2.3012   5.0931   6.0368   H         2 RES2   0.0000
    51 C23      3.2201   3.3611   6.6341   C.3       2 RES2   0.0000
    52 H20      3.2300   3.5343   7.5888   H         2 RES2   0.0000
    53 H21      4.0440   2.9021   6.4067   H         2 RES2   0.0000
    54 C24      2.0462   2.4600   6.3075   C.3       2 RES2   0.0000
    55 H22      1.2261   2.9331   6.4663   H         2 RES2   0.0000
    56 H23      2.0776   1.6785   6.8669   H         2 RES2   0.0000
    57 H24      2.0920   2.1966   5.3871   H         2 RES2   0.0000
    58 C25      2.9572   7.7065   5.9519   C.3       2 RES2   0.0000
    59 H25      2.9804   8.5359   5.4502   H         2 RES2   0.0000
    60 H26      2.2501   7.1588   5.5747   H         2 RES2   0.0000
    61 C26      2.5871   8.0318   7.3777   C.3       2 RES2   0.0000
    62 H27      3.3376   8.4542   7.8234   H         2 RES2   0.0000
    63 H28      2.3691   7.2165   7.8541   H         2 RES2   0.0000
    64 C27      1.3906   8.9682   7.3885   C.3       2 RES2   0.0000
    65 H29      1.5595   9.6920   6.7640   H         2 RES2   0.0000
    66 H30      0.6156   8.4810   7.0672   H         2 RES2   0.0000
    67 C28      1.0633   9.5568   8.7222   C.3       2 RES2   0.0000
    68 H31      0.8839   8.8513   9.3466   H         2 RES2   0.0000
    69 H32      0.2901  10.1200   8.6428   H         2 RES2   0.0000
    70 H33      1.8077  10.0778   9.0326   H         2 RES2   0.0000
    71 C29      5.4185   7.7291   6.3923   C.3       2 RES2   0.0000
    72 H34      6.2442   7.2714   6.1631   H         2 RES2   0.0000
    73 H35      5.3121   7.6713   7.3542   H         2 RES2   0.0000
    74 C30      5.5700   9.1893   6.0205   C.3       2 RES2   0.0000
    75 H36      4.7232   9.6469   6.1486   H         2 RES2   0.0000
    76 H37      5.8143   9.2639   5.0857   H         2 RES2   0.0000
    77 C31      6.6415   9.8454   6.8832   C.3       2 RES2   0.0000
    78 H38      7.4631   9.3385   6.7965   H         2 RES2   0.0000
    79 H39      6.8087  10.7382   6.5439   H         2 RES2   0.0000
    80 C32      6.2906   9.9426   8.3305   C.3       2 RES2   0.0000
    81 H40      5.3547  10.1411   8.4226   H         2 RES2   0.0000
    82 H41      6.8072  10.6424   8.7384   H         2 RES2   0.0000
    83 H42      6.4847   9.1090   8.7637   H         2 RES2   0.0000
    84 N7       4.2742   6.9898   5.7426   N.4       2 RES2   1.0000
@<TRIPOS>BOND
     1     1     4    1
     2     2    17    1
     3     3    18    1
     4     4    26    3
     5     5     1    1
     6     6     1    1
     7     7     1    1
     8     8     9    1
     9    10     8   ar
    10    11    10    1
    11    12    10   ar
    12    13    12    1
    13    14    12   ar
    14    15    14   ar
    15    16    15   ar
    16    17    14   ar
    17    18    17   ar
    18    19    16   ar
    19    20    19   ar
    20    21    20    1
    21    22    20   ar
    22    23    22    1
    23    24    22   ar
    24    25    24    1
    25    27     5    3
    26    28     6    3
    27    29     7    3
    28    30     1    1
    29    31     1    1
    30     8    30   ar
    31    15    30   ar
    32    16    31   ar
    33    18    19   ar
    34    24    31   ar
    35    32    33    1
    36    34    32    1
    37    35    32    1
    38    36    35    1
    39    37    35    1
    40    38    35    1
    41    39    38    1
    42    40    38    1
    43    41    38    1
    44    42    41    1
    45    43    41    1
    46    44    41    1
    47    45    46    1
    48    47    45    1
    49    48    45    1
    50    49    48    1
    51    50    48    1
    52    51    48    1
    53    52    51    1
    54    53    51    1
    55    54    51    1
    56    55    54    1
    57    56    54    1
    58    57    54    1
    59    58    59    1
    60    60    58    1
    61    61    58    1
    62    62    61    1
    63    63    61    1
    64    64    61    1
    65    65    64    1
    66    66    64    1
    67    67    64    1
    68    68    67    1
    69    69    67    1
    70    70    67    1
    71    71    72    1
    72    73    71    1
    73    74    71    1
    74    75    74    1
    75    76    74    1
    76    77    74    1
    77    78    77    1
    78    79    77    1
    79    80    77    1
    80    81    80    1
    81    82    80    1
    82    83    80    1
    83    84    32    1
    84    45    84    1
    85    58    84    1
    86    71    84    1
@<TRIPOS>SUBSTRUCTURE
     1 RES1        1 GROUP             0 ****  ****    0  
     2 RES2       32 GROUP             0 ****  ****    0  
@<TRIPOS>CRYSIN
   13.0959   14.0810   18.9650   90.0000  107.8990   90.0000    14     1
