@<TRIPOS>MOLECULE
QUHKUZ
    83    88     4     0     0
SMALL
USER_CHARGES
****
Generated from the CSD

@<TRIPOS>ATOM
     1 As1      5.0858   5.1386   5.9786   As        1 RES1   1.0000
     2 C1       5.6849   6.4285   3.4359   C.ar      1 RES1   0.0000
     3 C2       6.5402   6.9020   2.4475   C.ar      1 RES1   0.0000
     4 C3       7.9161   6.7836   2.6045   C.ar      1 RES1   0.0000
     5 C4       8.4363   6.1905   3.7498   C.ar      1 RES1   0.0000
     6 C5       7.5804   5.7154   4.7365   C.ar      1 RES1   0.0000
     7 C6       6.2049   5.8350   4.5795   C.ar      1 RES1   0.0000
     8 C7       5.9498   2.4295   6.3709   C.ar      1 RES1   0.0000
     9 C8       6.7203   1.4114   6.9185   C.ar      1 RES1   0.0000
    10 C9       7.6030   1.6882   7.9553   C.ar      1 RES1   0.0000
    11 C10      7.7147   2.9844   8.4445   C.ar      1 RES1   0.0000
    12 C11      6.9442   4.0025   7.8969   C.ar      1 RES1   0.0000
    13 C12      6.0615   3.7258   6.8601   C.ar      1 RES1   0.0000
    14 C13      4.3151   6.1395   8.5564   C.ar      1 RES1   0.0000
    15 C14      4.0039   7.1304   9.4796   C.ar      1 RES1   0.0000
    16 C15      4.0474   8.4676   9.1056   C.ar      1 RES1   0.0000
    17 C16      4.4006   8.8150   7.8067   C.ar      1 RES1   0.0000
    18 C17      4.7121   7.8254   6.8835   C.ar      1 RES1   0.0000
    19 C18      4.6691   6.4869   7.2575   C.ar      1 RES1   0.0000
    20 C19      2.5477   3.8406   6.2157   C.ar      1 RES1   0.0000
    21 C20      1.4400   3.1299   5.7699   C.ar      1 RES1   0.0000
    22 C21      1.2595   2.9028   4.4109   C.ar      1 RES1   0.0000
    23 C22      2.1872   3.3888   3.4960   C.ar      1 RES1   0.0000
    24 C23      3.2959   4.0995   3.9418   C.ar      1 RES1   0.0000
    25 C24      3.4760   4.3252   5.3008   C.ar      1 RES1   0.0000
    26 H1       4.7641   6.5073   3.3307   H         1 RES1   0.0000
    27 H2       6.1917   7.2989   1.6829   H         1 RES1   0.0000
    28 H3       8.4889   7.1005   1.9450   H         1 RES1   0.0000
    29 H4       9.3566   6.1101   3.8533   H         1 RES1   0.0000
    30 H5       7.9291   5.3188   5.5028   H         1 RES1   0.0000
    31 H6       5.3593   2.2449   5.6764   H         1 RES1   0.0000
    32 H7       6.6452   0.5441   6.5913   H         1 RES1   0.0000
    33 H8       8.1187   1.0068   8.3226   H         1 RES1   0.0000
    34 H9       8.3052   3.1691   9.1390   H         1 RES1   0.0000
    35 H10      7.0193   4.8698   8.2241   H         1 RES1   0.0000
    36 H11      4.2865   5.2440   8.8068   H         1 RES1   0.0000
    37 H12      3.7672   6.8974  10.3494   H         1 RES1   0.0000
    38 H13      3.8396   9.1314   9.7250   H         1 RES1   0.0000
    39 H14      4.4300   9.7105   7.5563   H         1 RES1   0.0000
    40 H15      4.9485   8.0572   6.0137   H         1 RES1   0.0000
    41 H16      2.6685   3.9917   7.1256   H         1 RES1   0.0000
    42 H17      0.8192   2.8048   6.3810   H         1 RES1   0.0000
    43 H18      0.5179   2.4267   4.1121   H         1 RES1   0.0000
    44 H19      2.0661   3.2363   2.5861   H         1 RES1   0.0000
    45 H20      3.9165   4.4242   3.3291   H         1 RES1   0.0000
    46 Fe1      7.6517  -1.8733   3.2038   Fe        2 RES2   0.0000
    47 C25      7.8824  -3.7356   3.7414   C.1       2 RES2   0.0000
    48 N1       8.0475  -4.8534   3.9852   N.1       2 RES2   0.0000
    49 C26      8.3887  -1.3424   4.9702   C.1       2 RES2   0.0000
    50 N2       8.8359  -1.0472   5.9803   N.1       2 RES2   0.0000
    51 C27      6.8818  -2.5703   1.5376   C.1       2 RES2   0.0000
    52 N3       6.4212  -2.9687   0.5710   N.1       2 RES2   0.0000
    53 C28      5.0085  -2.3439   4.5178   C.ar      2 RES2   0.0000
    54 C29      3.7227  -1.9758   4.9368   C.ar      2 RES2   0.0000
    55 C30      3.3003  -0.6876   4.7315   C.ar      2 RES2   0.0000
    56 C31      4.1213   0.1901   4.0520   C.ar      2 RES2   0.0000
    57 C32      5.3982  -0.2335   3.6429   C.ar      2 RES2   0.0000
    58 N4       5.8363  -1.4894   3.8666   N.ar      2 RES2  -1.0000
    59 C33      6.3112   0.5775   2.8699   C.ar      2 RES2   0.0000
    60 C34      6.1553   1.9029   2.4409   C.ar      2 RES2   0.0000
    61 C35      7.2122   2.4902   1.7196   C.ar      2 RES2   0.0000
    62 C36      8.4002   1.8016   1.4575   C.ar      2 RES2   0.0000
    63 C37      8.4732   0.5298   1.9400   C.ar      2 RES2   0.0000
    64 N5       7.5065  -0.0665   2.6379   N.ar      2 RES2   0.0000
    65 C38      9.6562  -0.4066   1.7680   C.ar      2 RES2   0.0000
    66 C39     10.8351  -0.1033   1.1486   C.ar      2 RES2   0.0000
    67 C40     11.8375  -1.0564   1.0585   C.ar      2 RES2   0.0000
    68 C41     11.6034  -2.3041   1.5861   C.ar      2 RES2   0.0000
    69 C42     10.3981  -2.5579   2.2205   C.ar      2 RES2   0.0000
    70 N6       9.4046  -1.6421   2.3156   N.ar      2 RES2   0.0000
    71 H21      5.3041  -3.2082   4.6897   H         2 RES2   0.0000
    72 H22      3.1652  -2.5961   5.3492   H         2 RES2   0.0000
    73 H23      2.4704  -0.4084   5.0453   H         2 RES2   0.0000
    74 H24      3.8320   1.0547   3.8666   H         2 RES2   0.0000
    75 H25      5.3781   2.3790   2.6262   H         2 RES2   0.0000
    76 H26      7.1176   3.3613   1.4074   H         2 RES2   0.0000
    77 H27      9.0989   2.1892   0.9834   H         2 RES2   0.0000
    78 H28     10.9653   0.7428   0.7864   H         2 RES2   0.0000
    79 H29     12.6490  -0.8571   0.6511   H         2 RES2   0.0000
    80 H30     12.2481  -2.9714   1.5176   H         2 RES2   0.0000
    81 H31     10.2644  -3.3974   2.5995   H         2 RES2   0.0000
    82 O1       4.3885  -4.5253  -0.7980   O.3       3 RES3   0.0000
    83 O2       6.0021  -6.9630  -1.0635   O.3       4 RES4   0.0000
@<TRIPOS>BOND
     1     1     7    1
     2     2     3   ar
     3     3     4   ar
     4     4     5   ar
     5     5     6   ar
     6     6     7   ar
     7     7     2   ar
     8     8     9   ar
     9     9    10   ar
    10    10    11   ar
    11    11    12   ar
    12    12    13   ar
    13    13     1    1
    14    14    15   ar
    15    15    16   ar
    16    16    17   ar
    17    17    18   ar
    18    18    19   ar
    19    19     1    1
    20    20    21   ar
    21    21    22   ar
    22    22    23   ar
    23    23    24   ar
    24    24    25   ar
    25    25     1    1
    26    26     2    1
    27    27     3    1
    28    28     4    1
    29    29     5    1
    30    30     6    1
    31    31     8    1
    32    32     9    1
    33    33    10    1
    34    34    11    1
    35    35    12    1
    36    36    14    1
    37    37    15    1
    38    38    16    1
    39    39    17    1
    40    40    18    1
    41    41    20    1
    42    42    21    1
    43    43    22    1
    44    44    23    1
    45    45    24    1
    46     8    13   ar
    47    14    19   ar
    48    20    25   ar
    49    46    47    1
    50    47    48    3
    51    49    46    1
    52    50    49    3
    53    51    46    1
    54    52    51    3
    55    53    54   ar
    56    54    55   ar
    57    55    56   ar
    58    56    57   ar
    59    57    58   ar
    60    58    46    1
    61    59    57    1
    62    60    59   ar
    63    61    60   ar
    64    62    61   ar
    65    63    62   ar
    66    64    46    1
    67    65    63    1
    68    66    65   ar
    69    67    66   ar
    70    68    67   ar
    71    69    68   ar
    72    70    46    1
    73    71    53    1
    74    72    54    1
    75    73    55    1
    76    74    56    1
    77    75    60    1
    78    76    61    1
    79    77    62    1
    80    78    66    1
    81    79    67    1
    82    80    68    1
    83    81    69    1
    84    53    58   ar
    85    59    64   ar
    86    63    64   ar
    87    65    70   ar
    88    69    70   ar
@<TRIPOS>SUBSTRUCTURE
     1 RES1        1 GROUP             0 ****  ****    0  
     2 RES2       46 GROUP             0 ****  ****    0  
     3 RES3       82 GROUP             0 ****  ****    0  
     4 RES4       83 GROUP             0 ****  ****    0  
@<TRIPOS>CRYSIN
    8.7773   13.1445   17.0167   79.2970   84.2760   75.1880     2     1
