@<TRIPOS>MOLECULE
QUJDUX
    77    84     1     0     0
SMALL
NO_CHARGES
****
Generated from the CSD

@<TRIPOS>ATOM
     1 C1       0.2883   8.9781   3.2569   C.2       1 RES1   0.0000
     2 C2       1.1383  10.0076   3.7674   C.2       1 RES1   0.0000
     3 C3       2.2321   9.6959   4.6272   C.2       1 RES1   0.0000
     4 H1       2.7122  10.4365   4.9770   H         1 RES1   0.0000
     5 C4       3.7911   8.4379   5.8424   C.ar      1 RES1   0.0000
     6 C5       4.6708   9.4743   6.1364   C.ar      1 RES1   0.0000
     7 H2       4.5137  10.3378   5.7709   H         1 RES1   0.0000
     8 C6       5.7633   9.2728   6.9457   C.ar      1 RES1   0.0000
     9 H3       6.3350  10.0034   7.1565   H         1 RES1   0.0000
    10 C7       6.0393   8.0117   7.4610   C.ar      1 RES1   0.0000
    11 H4       6.7990   7.8719   8.0141   H         1 RES1   0.0000
    12 C8       5.1929   6.9673   7.1535   C.ar      1 RES1   0.0000
    13 H5       5.3946   6.0969   7.4748   H         1 RES1   0.0000
    14 C9       4.0507   7.1633   6.3828   C.ar      1 RES1   0.0000
    15 C10      2.9769   5.1459   6.8884   C.2       1 RES1   0.0000
    16 H6       3.5238   5.1648   7.6658   H         1 RES1   0.0000
    17 C11      2.0985   4.0353   6.7685   C.2       1 RES1   0.0000
    18 C12      1.3239   3.8402   5.5717   C.2       1 RES1   0.0000
    19 C13     -1.0035   9.2714   2.5199   C.3       1 RES1   0.0000
    20 H7      -0.8030   9.5140   1.5916   H         1 RES1   0.0000
    21 H8      -1.4687  10.0157   2.9585   H         1 RES1   0.0000
    22 H9      -1.5763   8.4764   2.5353   H         1 RES1   0.0000
    23 C14      0.9206  11.3960   3.4082   C.2       1 RES1   0.0000
    24 C15      1.6666  12.5063   4.1228   C.3       1 RES1   0.0000
    25 H10      1.3647  13.3739   3.7823   H         1 RES1   0.0000
    26 H11      2.6280  12.4089   3.9621   H         1 RES1   0.0000
    27 H12      1.4872  12.4528   5.0856   H         1 RES1   0.0000
    28 C16      0.4207   2.6537   5.3664   C.3       1 RES1   0.0000
    29 H13     -0.3514   2.7236   5.9656   H         1 RES1   0.0000
    30 H14      0.9144   1.8299   5.5649   H         1 RES1   0.0000
    31 H15      0.1126   2.6345   4.4377   H         1 RES1   0.0000
    32 C17      2.0007   3.1170   7.9044   C.2       1 RES1   0.0000
    33 C18      2.9435   3.2691   9.0889   C.3       1 RES1   0.0000
    34 H16      2.8161   2.5193   9.7068   H         1 RES1   0.0000
    35 H17      2.7505   4.1107   9.5532   H         1 RES1   0.0000
    36 H18      3.8703   3.2760   8.7706   H         1 RES1   0.0000
    37 C19      4.3640   6.3565   2.7982   C.ar      1 RES1   0.0000
    38 H19      4.7351   6.6781   3.6101   H         1 RES1   0.0000
    39 C20      5.2264   6.0886   1.7519   C.ar      1 RES1   0.0000
    40 H20      6.1642   6.2079   1.8537   H         1 RES1   0.0000
    41 C21      4.6956   5.6391   0.5483   C.ar      1 RES1   0.0000
    42 H21      5.2610   5.4554  -0.1947   H         1 RES1   0.0000
    43 C22      3.3407   5.4650   0.4535   C.ar      1 RES1   0.0000
    44 H22      2.9497   5.1607  -0.3558   H         1 RES1   0.0000
    45 C23      2.5504   5.7379   1.5583   C.ar      1 RES1   0.0000
    46 C24      1.1222   5.5500   1.4628   C.1       1 RES1   0.0000
    47 C25     -0.0445   5.3770   1.3205   C.1       1 RES1   0.0000
    48 C26     -1.4538   5.1304   1.1328   C.ar      1 RES1   0.0000
    49 C27     -1.9562   4.9729  -0.1603   C.ar      1 RES1   0.0000
    50 H23     -1.3709   5.0551  -0.9025   H         1 RES1   0.0000
    51 C28     -3.2999   4.6960  -0.3737   C.ar      1 RES1   0.0000
    52 H24     -3.6364   4.6165  -1.2583   H         1 RES1   0.0000
    53 C29     -4.1388   4.5370   0.7025   C.ar      1 RES1   0.0000
    54 H25     -5.0507   4.3109   0.5580   H         1 RES1   0.0000
    55 C30     -3.6686   4.7056   2.0043   C.ar      1 RES1   0.0000
    56 H26     -4.2600   4.5891   2.7375   H         1 RES1   0.0000
    57 C31     -2.3385   5.0409   2.2335   C.ar      1 RES1   0.0000
    58 C32     -1.8832   5.3690   3.5565   C.1       1 RES1   0.0000
    59 C33     -1.5219   5.7720   4.6238   C.1       1 RES1   0.0000
    60 C34     -1.1791   6.3598   5.8933   C.ar      1 RES1   0.0000
    61 C35     -2.1554   6.4711   6.8869   C.ar      1 RES1   0.0000
    62 H27     -3.0277   6.1243   6.7446   H         1 RES1   0.0000
    63 C36     -1.8362   7.0893   8.0766   C.ar      1 RES1   0.0000
    64 H28     -2.4795   7.1537   8.7743   H         1 RES1   0.0000
    65 C37     -0.5679   7.6156   8.2425   C.ar      1 RES1   0.0000
    66 H29     -0.3316   8.0775   9.0402   H         1 RES1   0.0000
    67 C38      0.3440   7.4525   7.2224   C.ar      1 RES1   0.0000
    68 H30      1.2200   7.7979   7.3475   H         1 RES1   0.0000
    69 N1       2.6508   8.5240   4.9893   N.2       1 RES1   0.0000
    70 N2       3.1234   6.1377   6.0641   N.2       1 RES1   0.0000
    71 N3       3.0424   6.1897   2.7330   N.ar      1 RES1   0.0000
    72 N4       0.0705   6.8355   6.0634   N.ar      1 RES1   0.0000
    73 O1       0.5309   7.7564   3.3906   O.3       1 RES1   0.0000
    74 O2       1.3541   4.6463   4.6014   O.3       1 RES1   0.0000
    75 O3       0.1544  11.7324   2.5038   O.2       1 RES1   0.0000
    76 O4       1.1768   2.2034   7.9680   O.2       1 RES1   0.0000
    77 Fe1      1.7693   6.6309   4.4991   Fe        1 RES1   0.0000
@<TRIPOS>BOND
     1     1     2    2
     2     2     3    1
     3     3     4    1
     4     5     6   ar
     5     6     7    1
     6     8     6   ar
     7     9     8    1
     8    10     8   ar
     9    11    10    1
    10    12    10   ar
    11    13    12    1
    12    14     5   ar
    13    15    16    1
    14    17    15    1
    15    18    17    2
    16    19     1    1
    17    20    19    1
    18    21    19    1
    19    22    19    1
    20    23     2    1
    21    24    23    1
    22    25    24    1
    23    26    24    1
    24    27    24    1
    25    28    18    1
    26    29    28    1
    27    30    28    1
    28    31    28    1
    29    32    17    1
    30    33    32    1
    31    34    33    1
    32    35    33    1
    33    36    33    1
    34    37    38    1
    35    39    37   ar
    36    40    39    1
    37    41    39   ar
    38    42    41    1
    39    43    41   ar
    40    44    43    1
    41    45    43   ar
    42    46    45    1
    43    47    46    3
    44    48    47    1
    45    49    48   ar
    46    50    49    1
    47    51    49   ar
    48    52    51    1
    49    53    51   ar
    50    54    53    1
    51    55    53   ar
    52    56    55    1
    53    57    48   ar
    54    58    57    1
    55    59    58    3
    56    60    59    1
    57    61    60   ar
    58    62    61    1
    59    63    61   ar
    60    64    63    1
    61    65    63   ar
    62    66    65    1
    63    67    65   ar
    64    68    67    1
    65    69     3    2
    66    70    14    1
    67    71    37   ar
    68    72    60   ar
    69    73     1    1
    70    74    18    1
    71    75    23    2
    72    76    32    2
    73    77    69    1
    74     5    69    1
    75    12    14   ar
    76    15    70    2
    77    45    71   ar
    78    55    57   ar
    79    67    72   ar
    80    70    77    1
    81    71    77    1
    82    72    77    1
    83    73    77    1
    84    74    77    1
@<TRIPOS>SUBSTRUCTURE
     1 RES1        1 GROUP             0 ****  ****    0  
@<TRIPOS>CRYSIN
   12.3730   13.7070   37.4490   90.0000   90.0000   90.0000    61     3
