@<TRIPOS>MOLECULE
QUMKUH
    98    98     1     0     0
SMALL
NO_CHARGES
****
Generated from the CSD

@<TRIPOS>ATOM
     1 Fe1      7.9511   5.5722  12.0417   Fe        1 RES1   0.0000
     2 Cl1      8.4819   3.2776  11.8971   Cl        1 RES1   0.0000
     3 P1       7.3386   7.6987  12.2951   P.3       1 RES1   0.0000
     4 P2       8.1290   5.6161   9.7600   P.3       1 RES1   0.0000
     5 O1       7.7239   5.1198  14.9163   O.2       1 RES1   0.0000
     6 O2      10.8027   6.3167  12.2188   O.2       1 RES1   0.0000
     7 O3       5.3270   5.8431  10.8920   O.2       1 RES1   0.0000
     8 N1       8.0969   8.3355   9.7202   N.3       1 RES1   0.0000
     9 C1       7.7791   5.3157  13.8277   C.1       1 RES1   0.0000
    10 C2       9.7290   6.0141  12.1615   C.1       1 RES1   0.0000
    11 C3       5.9840   5.2051  11.7018   C.2       1 RES1   0.0000
    12 C4       5.3120   4.0956  12.5083   C.3       1 RES1   0.0000
    13 H1       5.3686   4.3415  13.4449   H         1 RES1   0.0000
    14 H2       5.8423   3.2912  12.3945   H         1 RES1   0.0000
    15 C5       3.8457   3.7271  12.2154   C.3       1 RES1   0.0000
    16 C6       3.6694   3.2416  10.7745   C.3       1 RES1   0.0000
    17 H3       3.8118   3.9738  10.1704   H         1 RES1   0.0000
    18 H4       2.7801   2.8992  10.6587   H         1 RES1   0.0000
    19 H5       4.3061   2.5468  10.5909   H         1 RES1   0.0000
    20 C7       3.4878   2.5786  13.1704   C.3       1 RES1   0.0000
    21 H6       4.0461   1.8206  12.9824   H         1 RES1   0.0000
    22 H7       2.5671   2.3362  13.0483   H         1 RES1   0.0000
    23 H8       3.6268   2.8614  14.0771   H         1 RES1   0.0000
    24 C8       2.9095   4.9085  12.4816   C.3       1 RES1   0.0000
    25 H9       3.0626   5.2447  13.3678   H         1 RES1   0.0000
    26 H10      1.9978   4.6183  12.4026   H         1 RES1   0.0000
    27 H11      3.0808   5.6032  11.8418   H         1 RES1   0.0000
    28 C9       4.1152   9.0583  14.6882   C.3       1 RES1   0.0000
    29 H12      3.8021   9.9019  15.0225   H         1 RES1   0.0000
    30 H13      4.4099   8.5130  15.4214   H         1 RES1   0.0000
    31 H14      3.4021   8.6130  14.2248   H         1 RES1   0.0000
    32 C10      4.8501  10.2585  12.6306   C.3       1 RES1   0.0000
    33 H15      4.2015   9.8328  12.0651   H         1 RES1   0.0000
    34 H16      5.6146  10.5103  12.1073   H         1 RES1   0.0000
    35 H17      4.4628  11.0415  13.0286   H         1 RES1   0.0000
    36 C11      5.2807   9.2920  13.7261   C.3       1 RES1   0.0000
    37 H18      6.0192   9.6984  14.2260   H         1 RES1   0.0000
    38 C12      5.7444   7.9200  13.1995   C.3       1 RES1   0.0000
    39 H19      5.0431   7.5934  12.6143   H         1 RES1   0.0000
    40 H20      5.7703   7.3217  13.9626   H         1 RES1   0.0000
    41 C13     10.4393   9.2549  14.6679   C.3       1 RES1   0.0000
    42 H21     10.1665  10.1754  14.6758   H         1 RES1   0.0000
    43 H22     11.0655   9.1130  13.9542   H         1 RES1   0.0000
    44 H23     10.8540   9.0369  15.5057   H         1 RES1   0.0000
    45 C14      8.2620   8.4863  15.6428   C.3       1 RES1   0.0000
    46 H24      8.7189   8.2359  16.4490   H         1 RES1   0.0000
    47 H25      7.5088   7.9064  15.5085   H         1 RES1   0.0000
    48 H26      7.9579   9.3939  15.7159   H         1 RES1   0.0000
    49 C15      9.2167   8.3633  14.4575   C.3       1 RES1   0.0000
    50 H27      9.5168   7.4326  14.3941   H         1 RES1   0.0000
    51 C16      8.5803   8.7633  13.1194   C.3       1 RES1   0.0000
    52 H28      9.3057   8.8926  12.4885   H         1 RES1   0.0000
    53 H29      8.1667   9.6307  13.2509   H         1 RES1   0.0000
    54 C17      7.1089   8.6786  10.7482   C.3       1 RES1   0.0000
    55 H30      6.2181   8.5183  10.3995   H         1 RES1   0.0000
    56 H31      7.1815   9.6232  10.9565   H         1 RES1   0.0000
    57 C18      8.5344   9.5163   8.8960   C.3       1 RES1   0.0000
    58 C19      7.3564  10.2247   8.2273   C.3       1 RES1   0.0000
    59 H32      6.8677   9.5962   7.6908   H         1 RES1   0.0000
    60 H33      7.6842  10.9342   7.6700   H         1 RES1   0.0000
    61 H34      6.7774  10.5885   8.9011   H         1 RES1   0.0000
    62 C20      9.3012  10.4707   9.8185   C.3       1 RES1   0.0000
    63 H35      8.7155  10.7864  10.5105   H         1 RES1   0.0000
    64 H36      9.6254  11.2168   9.3086   H         1 RES1   0.0000
    65 H37     10.0428  10.0068  10.2138   H         1 RES1   0.0000
    66 C21      9.5216   9.0616   7.8190   C.3       1 RES1   0.0000
    67 H38     10.1890   8.4963   8.2149   H         1 RES1   0.0000
    68 H39      9.9441   9.8296   7.4275   H         1 RES1   0.0000
    69 H40      9.0512   8.5736   7.1392   H         1 RES1   0.0000
    70 C22      7.5910   7.1839   8.9597   C.3       1 RES1   0.0000
    71 H41      7.9284   7.2191   8.0510   H         1 RES1   0.0000
    72 H42      6.6221   7.2164   8.9241   H         1 RES1   0.0000
    73 C23      9.8567   5.5528   9.1259   C.3       1 RES1   0.0000
    74 H43      9.8086   5.5823   8.1575   H         1 RES1   0.0000
    75 H44     10.2974   6.3686   9.4107   H         1 RES1   0.0000
    76 C24     10.7813   4.3794   9.5014   C.3       1 RES1   0.0000
    77 H45     10.6193   4.1436  10.4387   H         1 RES1   0.0000
    78 C25     12.2353   4.8169   9.3568   C.3       1 RES1   0.0000
    79 H46     12.3985   5.0908   8.4513   H         1 RES1   0.0000
    80 H47     12.8136   4.0834   9.5785   H         1 RES1   0.0000
    81 H48     12.4088   5.5517   9.9497   H         1 RES1   0.0000
    82 C26     10.5212   3.1475   8.6406   C.3       1 RES1   0.0000
    83 H49      9.6288   2.8302   8.7974   H         1 RES1   0.0000
    84 H50     11.1503   2.4592   8.8687   H         1 RES1   0.0000
    85 H51     10.6208   3.3778   7.7140   H         1 RES1   0.0000
    86 C27      7.1893   4.2980   8.8939   C.3       1 RES1   0.0000
    87 H52      7.4748   3.4490   9.2661   H         1 RES1   0.0000
    88 H53      6.2548   4.4087   9.1293   H         1 RES1   0.0000
    89 C28      7.2629   4.1728   7.3597   C.3       1 RES1   0.0000
    90 H54      8.1593   4.4393   7.0665   H         1 RES1   0.0000
    91 C29      6.2365   5.0523   6.6500   C.3       1 RES1   0.0000
    92 H55      5.3551   4.8259   6.9559   H         1 RES1   0.0000
    93 H56      6.2929   4.9089   5.7024   H         1 RES1   0.0000
    94 H57      6.4159   5.9748   6.8454   H         1 RES1   0.0000
    95 C30      7.0343   2.7157   6.9658   C.3       1 RES1   0.0000
    96 H58      7.7196   2.1677   7.3552   H         1 RES1   0.0000
    97 H59      7.0641   2.6342   6.0097   H         1 RES1   0.0000
    98 H60      6.1754   2.4290   7.2848   H         1 RES1   0.0000
@<TRIPOS>BOND
     1     1     2    1
     2     3     1    1
     3     4     1    1
     4     5     9    3
     5     6    10    3
     6     7    11    2
     7     8    54    1
     8     9     1    1
     9    10     1    1
    10    11     1    1
    11    12    11    1
    12    13    12    1
    13    14    12    1
    14    15    12    1
    15    16    15    1
    16    17    16    1
    17    18    16    1
    18    19    16    1
    19    20    15    1
    20    21    20    1
    21    22    20    1
    22    23    20    1
    23    24    15    1
    24    25    24    1
    25    26    24    1
    26    27    24    1
    27    28    29    1
    28    30    28    1
    29    31    28    1
    30    32    33    1
    31    34    32    1
    32    35    32    1
    33    36    28    1
    34    37    36    1
    35    38     3    1
    36    39    38    1
    37    40    38    1
    38    41    42    1
    39    43    41    1
    40    44    41    1
    41    45    46    1
    42    47    45    1
    43    48    45    1
    44    49    41    1
    45    50    49    1
    46    51     3    1
    47    52    51    1
    48    53    51    1
    49    54     3    1
    50    55    54    1
    51    56    54    1
    52    57     8    1
    53    58    57    1
    54    59    58    1
    55    60    58    1
    56    61    58    1
    57    62    57    1
    58    63    62    1
    59    64    62    1
    60    65    62    1
    61    66    57    1
    62    67    66    1
    63    68    66    1
    64    69    66    1
    65    70     4    1
    66    71    70    1
    67    72    70    1
    68    73     4    1
    69    74    73    1
    70    75    73    1
    71    76    73    1
    72    77    76    1
    73    78    76    1
    74    79    78    1
    75    80    78    1
    76    81    78    1
    77    82    76    1
    78    83    82    1
    79    84    82    1
    80    85    82    1
    81    86     4    1
    82    87    86    1
    83    88    86    1
    84    89    86    1
    85    90    89    1
    86    91    89    1
    87    92    91    1
    88    93    91    1
    89    94    91    1
    90    95    89    1
    91    96    95    1
    92    97    95    1
    93    98    95    1
    94     8    70    1
    95    32    36    1
    96    36    38    1
    97    45    49    1
    98    49    51    1
@<TRIPOS>SUBSTRUCTURE
     1 RES1        1 GROUP             0 ****  ****    0  
@<TRIPOS>CRYSIN
   11.9271   18.0891   16.6852   90.0000   93.1790   90.0000   231     1
