@<TRIPOS>MOLECULE
QUMLES
    96   103     1     0     0
SMALL
NO_CHARGES
****
Generated from the CSD

@<TRIPOS>ATOM
     1 Fe1      5.7453   4.6227   3.2695   Fe        1 RES1   0.0000
     2 P1       7.8467   3.7919   3.4315   P.3       1 RES1   0.0000
     3 P2       6.2608   6.3985   4.6000   P.3       1 RES1   0.0000
     4 Si1      4.6730   3.8590   0.2241   Si        1 RES1   0.0000
     5 Si2      3.8326   1.9859   2.4710   Si        1 RES1   0.0000
     6 O1       4.2860   2.4482   0.9773   O.3       1 RES1   0.0000
     7 N1       8.9908   5.8276   4.8816   N.3       1 RES1   0.0000
     8 C1       8.0028   1.5158   1.8481   C.ar      1 RES1   0.0000
     9 H1       7.4028   1.1526   2.4888   H         1 RES1   0.0000
    10 C2       8.3993   0.7423   0.7656   C.ar      1 RES1   0.0000
    11 H2       8.0758  -0.1459   0.6714   H         1 RES1   0.0000
    12 C3       9.2711   1.2702  -0.1808   C.ar      1 RES1   0.0000
    13 H3       9.5523   0.7387  -0.9162   H         1 RES1   0.0000
    14 C4       9.7275   2.5659  -0.0515   C.ar      1 RES1   0.0000
    15 H4      10.3111   2.9295  -0.7069   H         1 RES1   0.0000
    16 C5       9.3343   3.3462   1.0405   C.ar      1 RES1   0.0000
    17 H5       9.6538   4.2370   1.1240   H         1 RES1   0.0000
    18 C6       8.4756   2.8239   2.0083   C.ar      1 RES1   0.0000
    19 C7       8.3124   2.7320   4.8499   C.ar      1 RES1   0.0000
    20 C8       9.5088   2.0054   4.8746   C.ar      1 RES1   0.0000
    21 H6      10.0237   1.9189   4.0810   H         1 RES1   0.0000
    22 C9       9.9496   1.4100   6.0501   C.ar      1 RES1   0.0000
    23 H7      10.7629   0.9191   6.0571   H         1 RES1   0.0000
    24 C10      9.2016   1.5315   7.2166   C.ar      1 RES1   0.0000
    25 H8       9.5173   1.1484   8.0266   H         1 RES1   0.0000
    26 C11      7.9948   2.2126   7.1945   C.ar      1 RES1   0.0000
    27 H9       7.4711   2.2772   7.9845   H         1 RES1   0.0000
    28 C12      7.5494   2.8028   6.0126   C.ar      1 RES1   0.0000
    29 H10      6.7160   3.2585   6.0003   H         1 RES1   0.0000
    30 C13      9.1708   5.0833   3.6239   C.3       1 RES1   0.0000
    31 H11     10.0600   4.6483   3.6212   H         1 RES1   0.0000
    32 H12      9.1337   5.7114   2.8595   H         1 RES1   0.0000
    33 C14     10.3030   6.2606   5.4895   C.3       1 RES1   0.0000
    34 C15     11.1319   7.1254   4.5299   C.3       1 RES1   0.0000
    35 H13     11.3750   6.5969   3.7412   H         1 RES1   0.0000
    36 H14     11.9460   7.4284   4.9837   H         1 RES1   0.0000
    37 H15     10.6040   7.9029   4.2522   H         1 RES1   0.0000
    38 C16     10.0575   7.0447   6.7834   C.3       1 RES1   0.0000
    39 H16      9.6939   7.9284   6.5660   H         1 RES1   0.0000
    40 H17     10.9032   7.1495   7.2674   H         1 RES1   0.0000
    41 H18      9.4184   6.5575   7.3444   H         1 RES1   0.0000
    42 C17     11.0932   5.0094   5.8869   C.3       1 RES1   0.0000
    43 H19     10.5346   4.4364   6.4525   H         1 RES1   0.0000
    44 H20     11.8964   5.2739   6.3820   H         1 RES1   0.0000
    45 H21     11.3538   4.5178   5.0801   H         1 RES1   0.0000
    46 C18      8.0448   6.9332   4.6854   C.3       1 RES1   0.0000
    47 H22      8.2762   7.4050   3.8463   H         1 RES1   0.0000
    48 H23      8.1488   7.5770   5.4302   H         1 RES1   0.0000
    49 C19      5.7970   6.2498   6.3728   C.ar      1 RES1   0.0000
    50 C20      4.5129   6.5958   6.8175   C.ar      1 RES1   0.0000
    51 H24      3.9036   7.0084   6.2167   H         1 RES1   0.0000
    52 C21      4.1204   6.3420   8.1283   C.ar      1 RES1   0.0000
    53 H25      3.2492   6.5860   8.4182   H         1 RES1   0.0000
    54 C22      4.9993   5.7333   9.0120   C.ar      1 RES1   0.0000
    55 H26      4.7283   5.5531   9.9046   H         1 RES1   0.0000
    56 C23      6.2733   5.3887   8.5906   C.ar      1 RES1   0.0000
    57 H27      6.8780   4.9778   9.1973   H         1 RES1   0.0000
    58 C24      6.6711   5.6433   7.2772   C.ar      1 RES1   0.0000
    59 H28      7.5456   5.4015   6.9955   H         1 RES1   0.0000
    60 C25      5.4831   8.0103   4.1656   C.ar      1 RES1   0.0000
    61 C26      4.1768   8.0047   3.6768   C.ar      1 RES1   0.0000
    62 H29      3.7281   7.1776   3.5463   H         1 RES1   0.0000
    63 C27      3.5217   9.1989   3.3775   C.ar      1 RES1   0.0000
    64 H30      2.6235   9.1813   3.0688   H         1 RES1   0.0000
    65 C28      4.1737  10.4076   3.5283   C.ar      1 RES1   0.0000
    66 H31      3.7303  11.2196   3.3123   H         1 RES1   0.0000
    67 C29      5.4747  10.4296   3.9952   C.ar      1 RES1   0.0000
    68 H32      5.9270  11.2593   4.0932   H         1 RES1   0.0000
    69 C30      6.1259   9.2447   4.3224   C.ar      1 RES1   0.0000
    70 H33      7.0152   9.2731   4.6553   H         1 RES1   0.0000
    71 C31      6.3965   5.7493   1.5943   C.2       1 RES1   0.0000
    72 H34      6.4724   6.7288   1.7156   H         1 RES1   0.0000
    73 H35      7.1197   5.3560   1.0442   H         1 RES1   0.0000
    74 C32      5.0930   5.2258   1.4077   C.2       1 RES1   0.0000
    75 H36      4.3832   5.9286   1.4552   H         1 RES1   0.0000
    76 C33      3.1788   4.4063  -0.7354   C.3       1 RES1   0.0000
    77 H37      2.9325   3.7110  -1.3804   H         1 RES1   0.0000
    78 H38      3.3843   5.2371  -1.2131   H         1 RES1   0.0000
    79 H39      2.4331   4.5596  -0.1188   H         1 RES1   0.0000
    80 C34      6.0561   3.4643  -0.9282   C.3       1 RES1   0.0000
    81 H40      6.8032   3.0811  -0.4227   H         1 RES1   0.0000
    82 H41      6.3515   4.2839  -1.3769   H         1 RES1   0.0000
    83 H42      5.7491   2.8178  -1.5977   H         1 RES1   0.0000
    84 C35      1.9914   2.1954   2.6350   C.3       1 RES1   0.0000
    85 H43      1.7601   3.1425   2.5362   H         1 RES1   0.0000
    86 H44      1.7038   1.8792   3.5170   H         1 RES1   0.0000
    87 H45      1.5399   1.6745   1.9383   H         1 RES1   0.0000
    88 C36      4.2537   0.1660   2.6226   C.3       1 RES1   0.0000
    89 H46      3.8328  -0.3287   1.8885   H         1 RES1   0.0000
    90 H47      3.9213  -0.1758   3.4790   H         1 RES1   0.0000
    91 H48      5.2255   0.0507   2.5796   H         1 RES1   0.0000
    92 C37      4.6758   2.9183   3.8275   C.2       1 RES1   0.0000
    93 H49      5.1665   2.3313   4.4714   H         1 RES1   0.0000
    94 C38      4.1340   4.0802   4.4220   C.2       1 RES1   0.0000
    95 H50      4.2437   4.1664   5.4022   H         1 RES1   0.0000
    96 H51      3.2435   4.3671   4.0984   H         1 RES1   0.0000
@<TRIPOS>BOND
     1     1     2    1
     2     2    18    1
     3     3     1    1
     4     4     6    1
     5     5     6    1
     6     7    30    1
     7     8     9    1
     8    10     8   ar
     9    11    10    1
    10    12    10   ar
    11    13    12    1
    12    14    12   ar
    13    15    14    1
    14    16    14   ar
    15    17    16    1
    16    18     8   ar
    17    19     2    1
    18    20    19   ar
    19    21    20    1
    20    22    20   ar
    21    23    22    1
    22    24    22   ar
    23    25    24    1
    24    26    24   ar
    25    27    26    1
    26    28    19   ar
    27    29    28    1
    28    30     2    1
    29    31    30    1
    30    32    30    1
    31    33     7    1
    32    34    33    1
    33    35    34    1
    34    36    34    1
    35    37    34    1
    36    38    33    1
    37    39    38    1
    38    40    38    1
    39    41    38    1
    40    42    33    1
    41    43    42    1
    42    44    42    1
    43    45    42    1
    44    46     3    1
    45    47    46    1
    46    48    46    1
    47    49     3    1
    48    50    49   ar
    49    51    50    1
    50    52    50   ar
    51    53    52    1
    52    54    52   ar
    53    55    54    1
    54    56    54   ar
    55    57    56    1
    56    58    49   ar
    57    59    58    1
    58    60     3    1
    59    61    60   ar
    60    62    61    1
    61    63    61   ar
    62    64    63    1
    63    65    63   ar
    64    66    65    1
    65    67    65   ar
    66    68    67    1
    67    69    60   ar
    68    70    69    1
    69    71     1   un
    70    72    71    1
    71    73    71    1
    72    74     1   un
    73    75    74    1
    74    76     4    1
    75    77    76    1
    76    78    76    1
    77    79    76    1
    78    80     4    1
    79    81    80    1
    80    82    80    1
    81    83    80    1
    82    84     5    1
    83    85    84    1
    84    86    84    1
    85    87    84    1
    86    88     5    1
    87    89    88    1
    88    90    88    1
    89    91    88    1
    90    92     1   un
    91    93    92    1
    92    94     1   un
    93    95    94    1
    94    96    94    1
    95     4    74    1
    96     5    92    1
    97     7    46    1
    98    16    18   ar
    99    26    28   ar
   100    56    58   ar
   101    67    69   ar
   102    71    74    2
   103    92    94    2
@<TRIPOS>SUBSTRUCTURE
     1 RES1        1 GROUP             0 ****  ****    0  
@<TRIPOS>CRYSIN
   10.6150   12.7323   15.6085   72.4270   84.5660   68.3740     2     1
