@<TRIPOS>MOLECULE
QUTPAX
   150   164     4     0     0
SMALL
USER_CHARGES
****
Generated from the CSD

@<TRIPOS>ATOM
     1 Fe1     18.2920   7.0715  12.4624   Fe        1 RES1   2.0000
     2 C1      16.9810   7.6853  15.1454   C.3       1 RES1   0.0000
     3 C2      16.3775   7.9955  16.5013   C.3       1 RES1   0.0000
     4 H1      16.7698   7.4052  17.1932   H         1 RES1   0.0000
     5 H2      16.5634   8.9355  16.7495   H         1 RES1   0.0000
     6 C3      14.3735   7.8182  17.7271   C.3       1 RES1   0.0000
     7 H3      14.4875   8.7111  18.1378   H         1 RES1   0.0000
     8 H4      14.7884   7.1422  18.3198   H         1 RES1   0.0000
     9 C4      12.9319   7.5203  17.5339   C.ar      1 RES1   0.0000
    10 C5      12.4063   6.2955  17.9118   C.ar      1 RES1   0.0000
    11 H5      12.9565   5.6675  18.3672   H         1 RES1   0.0000
    12 C6      11.0778   5.9740  17.6309   C.ar      1 RES1   0.0000
    13 H6      10.7235   5.1386  17.9135   H         1 RES1   0.0000
    14 C7      10.2699   6.8697  16.9410   C.ar      1 RES1   0.0000
    15 C8      10.7891   8.1020  16.5915   C.ar      1 RES1   0.0000
    16 H7      10.2396   8.7318  16.1389   H         1 RES1   0.0000
    17 C9      12.1016   8.4282  16.8951   C.ar      1 RES1   0.0000
    18 H8      12.4366   9.2862  16.6623   H         1 RES1   0.0000
    19 C10      8.8804   6.4595  16.4945   C.3       1 RES1   0.0000
    20 H9       8.4302   5.9608  17.2231   H         1 RES1   0.0000
    21 H10      8.3419   7.2676  16.2959   H         1 RES1   0.0000
    22 C11     15.5609   9.5832  14.1803   C.2       1 RES1   0.0000
    23 H11     15.1179   9.8963  14.9599   H         1 RES1   0.0000
    24 C12     15.4257  10.0726  12.9268   C.2       1 RES1   0.0000
    25 H12     14.8666  10.7910  12.6544   H         1 RES1   0.0000
    26 C13     16.2664   9.3145  12.1152   C.2       1 RES1   0.0000
    27 H13     16.3711   9.4390  11.1788   H         1 RES1   0.0000
    28 C14     19.2168   8.2510  16.2620   C.2       1 RES1   0.0000
    29 H14     18.9309   8.4452  17.1483   H         1 RES1   0.0000
    30 C15     20.4944   8.2811  15.7962   C.2       1 RES1   0.0000
    31 H15     21.2765   8.5055  16.2859   H         1 RES1   0.0000
    32 C16     20.4233   7.9191  14.4627   C.2       1 RES1   0.0000
    33 H16     21.1748   7.8521  13.8857   H         1 RES1   0.0000
    34 C17     16.1030   5.2932  15.4106   C.2       1 RES1   0.0000
    35 H17     15.6741   5.3498  16.2560   H         1 RES1   0.0000
    36 C18     16.1893   4.1872  14.6274   C.2       1 RES1   0.0000
    37 H18     15.8314   3.3274  14.8129   H         1 RES1   0.0000
    38 C19     16.9090   4.5682  13.4988   C.2       1 RES1   0.0000
    39 H19     17.1226   3.9940  12.7715   H         1 RES1   0.0000
    40 C20      9.0190   6.2502  14.0457   C.2       1 RES1   0.0000
    41 C21      9.1306   5.4054  12.8498   C.ar      1 RES1   0.0000
    42 C22      9.1920   4.0006  12.9826   C.ar      1 RES1   0.0000
    43 C23      9.1873   3.3981  14.2538   C.ar      1 RES1   0.0000
    44 C24      9.0742   4.2278  15.4622   C.2       1 RES1   0.0000
    45 C25      9.1764   5.9815  11.5928   C.ar      1 RES1   0.0000
    46 H20      9.1481   6.9272  11.5078   H         1 RES1   0.0000
    47 C26      9.2631   5.1838  10.4460   C.ar      1 RES1   0.0000
    48 H21      9.2916   5.5902   9.5886   H         1 RES1   0.0000
    49 C27      9.3047   3.8318  10.5530   C.ar      1 RES1   0.0000
    50 H22      9.3495   3.3028   9.7656   H         1 RES1   0.0000
    51 C28      9.2817   3.1916  11.8224   C.ar      1 RES1   0.0000
    52 C29      9.3528   1.7971  11.9821   C.ar      1 RES1   0.0000
    53 H23      9.4028   1.2399  11.2137   H         1 RES1   0.0000
    54 C30      9.3494   1.2304  13.2212   C.ar      1 RES1   0.0000
    55 H24      9.4035   0.2857  13.3074   H         1 RES1   0.0000
    56 C31      9.2677   2.0281  14.3650   C.ar      1 RES1   0.0000
    57 H25      9.2667   1.6227  15.2241   H         1 RES1   0.0000
    58 N1       8.9669   5.6044  15.2797   N.am      1 RES1   0.0000
    59 N2      16.8999   8.3971  12.8286   N.2       1 RES1   0.0000
    60 N3      16.4507   8.5602  14.1092   N.pl3     1 RES1   0.0000
    61 N4      19.1700   7.6758  14.0925   N.2       1 RES1   0.0000
    62 N5      18.4318   7.8908  15.2274   N.pl3     1 RES1   0.0000
    63 N6      17.2546   5.8486  13.5818   N.2       1 RES1   0.0000
    64 N7      16.7379   6.2983  14.7653   N.pl3     1 RES1   0.0000
    65 O1      14.9880   7.7833  16.4173   O.3       1 RES1   0.0000
    66 O2       8.9785   7.4637  13.9921   O.2       1 RES1   0.0000
    67 O3       9.0562   3.7507  16.5885   O.2       1 RES1   0.0000
    68 C1F     19.6031   6.4576   9.7795   C.3       1 RES1   0.0000
    69 C2F     20.2066   6.1474   8.4236   C.3       1 RES1   0.0000
    70 H1F     19.8143   6.7377   7.7317   H         1 RES1   0.0000
    71 H2F     20.0207   5.2074   8.1754   H         1 RES1   0.0000
    72 C3F     22.2105   6.3247   7.1978   C.3       1 RES1   0.0000
    73 H3F     22.0966   5.4318   6.7870   H         1 RES1   0.0000
    74 H4F     21.7957   7.0007   6.6051   H         1 RES1   0.0000
    75 C4F     23.6522   6.6226   7.3910   C.ar      1 RES1   0.0000
    76 C5F     24.1777   7.8474   7.0131   C.ar      1 RES1   0.0000
    77 H5F     23.6276   8.4754   6.5577   H         1 RES1   0.0000
    78 C6F     25.5063   8.1689   7.2940   C.ar      1 RES1   0.0000
    79 H6F     25.8605   9.0043   7.0114   H         1 RES1   0.0000
    80 C7F     26.3142   7.2732   7.9839   C.ar      1 RES1   0.0000
    81 C8F     25.7949   6.0409   8.3334   C.ar      1 RES1   0.0000
    82 H7F     26.3444   5.4111   8.7860   H         1 RES1   0.0000
    83 C9F     24.4824   5.7147   8.0298   C.ar      1 RES1   0.0000
    84 H8F     24.1475   4.8567   8.2626   H         1 RES1   0.0000
    85 C10F    27.7036   7.6834   8.4303   C.3       1 RES1   0.0000
    86 H9F     28.1538   8.1821   7.7018   H         1 RES1   0.0000
    87 H10F    28.2422   6.8753   8.6290   H         1 RES1   0.0000
    88 C11F    21.0231   4.5597  10.7446   C.2       1 RES1   0.0000
    89 H11F    21.4662   4.2466   9.9650   H         1 RES1   0.0000
    90 C12F    21.1584   4.0703  11.9981   C.2       1 RES1   0.0000
    91 H12F    21.7175   3.3519  12.2705   H         1 RES1   0.0000
    92 C13F    20.3176   4.8284  12.8097   C.2       1 RES1   0.0000
    93 H13F    20.2129   4.7039  13.7461   H         1 RES1   0.0000
    94 C14F    17.3673   5.8919   8.6629   C.2       1 RES1   0.0000
    95 H14F    17.6532   5.6977   7.7766   H         1 RES1   0.0000
    96 C15F    16.0897   5.8618   9.1287   C.2       1 RES1   0.0000
    97 H15F    15.3076   5.6374   8.6390   H         1 RES1   0.0000
    98 C16F    16.1608   6.2238  10.4622   C.2       1 RES1   0.0000
    99 H16F    15.4092   6.2908  11.0392   H         1 RES1   0.0000
   100 C17F    20.4810   8.8497   9.5143   C.2       1 RES1   0.0000
   101 H17F    20.9100   8.7931   8.6689   H         1 RES1   0.0000
   102 C18F    20.3948   9.9557  10.2975   C.2       1 RES1   0.0000
   103 H18F    20.7527  10.8155  10.1120   H         1 RES1   0.0000
   104 C19F    19.6750   9.5747  11.4261   C.2       1 RES1   0.0000
   105 H19F    19.4615  10.1489  12.1534   H         1 RES1   0.0000
   106 C20F    27.5651   7.8927  10.8792   C.2       1 RES1   0.0000
   107 C21F    27.4534   8.7375  12.0751   C.ar      1 RES1   0.0000
   108 C22F    27.3920  10.1423  11.9423   C.ar      1 RES1   0.0000
   109 C23F    27.3967  10.7448  10.6711   C.ar      1 RES1   0.0000
   110 C24F    27.5099   9.9151   9.4627   C.2       1 RES1   0.0000
   111 C25F    27.4077   8.1614  13.3321   C.ar      1 RES1   0.0000
   112 H20F    27.4360   7.2157  13.4171   H         1 RES1   0.0000
   113 C26F    27.3210   8.9591  14.4789   C.ar      1 RES1   0.0000
   114 H21F    27.2925   8.5527  15.3363   H         1 RES1   0.0000
   115 C27F    27.2794  10.3111  14.3719   C.ar      1 RES1   0.0000
   116 H22F    27.2345  10.8401  15.1593   H         1 RES1   0.0000
   117 C28F    27.3024  10.9513  13.1025   C.ar      1 RES1   0.0000
   118 C29F    27.2312  12.3458  12.9427   C.ar      1 RES1   0.0000
   119 H23F    27.1813  12.9030  13.7112   H         1 RES1   0.0000
   120 C30F    27.2347  12.9125  11.7037   C.ar      1 RES1   0.0000
   121 H24F    27.1806  13.8572  11.6175   H         1 RES1   0.0000
   122 C31F    27.3164  12.1148  10.5599   C.ar      1 RES1   0.0000
   123 H25F    27.3174  12.5202   9.7008   H         1 RES1   0.0000
   124 N1F     27.6171   8.5385   9.6452   N.am      1 RES1   0.0000
   125 N2F     19.6842   5.7458  12.0963   N.2       1 RES1   0.0000
   126 N3F     20.1334   5.5827  10.8157   N.pl3     1 RES1   0.0000
   127 N4F     17.4141   6.4671  10.8324   N.2       1 RES1   0.0000
   128 N5F     18.1523   6.2521   9.6975   N.pl3     1 RES1   0.0000
   129 N6F     19.3295   8.2943  11.3431   N.2       1 RES1   0.0000
   130 N7F     19.8462   7.8446  10.1596   N.pl3     1 RES1   0.0000
   131 O1F     21.5961   6.3596   8.5076   O.3       1 RES1   0.0000
   132 O2F     27.6056   6.6792  10.9328   O.2       1 RES1   0.0000
   133 O3F     27.5279  10.3922   8.3364   O.2       1 RES1   0.0000
   134 B1      14.7775   2.2940  17.6040   B         2 RES2  -1.0000
   135 F1      14.7438   3.6389  17.8769   F         2 RES2   0.0000
   136 F2      16.0752   1.9159  17.2974   F         2 RES2   0.0000
   137 F3      14.3797   1.5991  18.7385   F         2 RES2   0.0000
   138 F4      13.9865   1.9677  16.5369   F         2 RES2   0.0000
   139 C32     13.7745   7.0715  22.1757   C.1       3 RES3   0.0000
   140 C33     13.6129   7.9219  21.1214   C.3       3 RES3   0.0000
   141 H26     12.7012   8.2830  21.1263   H         3 RES3   0.0000
   142 H27     13.7652   7.4373  20.2839   H         3 RES3   0.0000
   143 H28     14.2566   8.6583  21.1936   H         3 RES3   0.0000
   144 N8      13.8834   6.4058  23.0356   N.1       3 RES3   0.0000
   145 C34     10.8079   0.9315  19.6807   C.1       4 RES4   0.0000
   146 C35     10.8938   1.9093  18.6059   C.3       4 RES4   0.0000
   147 H29     10.5174   2.7616  18.9080   H         4 RES4   0.0000
   148 H30     10.3900   1.5868  17.8288   H         4 RES4   0.0000
   149 H31     11.8313   2.0385  18.3572   H         4 RES4   0.0000
   150 N9      10.7553   0.2046  20.5381   N.1       4 RES4   0.0000
@<TRIPOS>BOND
     1     1    59    1
     2     2     3    1
     3     3     4    1
     4     5     3    1
     5     6     7    1
     6     8     6    1
     7     9     6    1
     8    10     9   ar
     9    11    10    1
    10    12    10   ar
    11    13    12    1
    12    14    12   ar
    13    15    14   ar
    14    16    15    1
    15    17     9   ar
    16    18    17    1
    17    19    14    1
    18    20    19    1
    19    21    19    1
    20    22    23    1
    21    24    22    2
    22    25    24    1
    23    26    24    1
    24    27    26    1
    25    28    29    1
    26    30    28    2
    27    31    30    1
    28    32    30    1
    29    33    32    1
    30    34    35    1
    31    36    34    2
    32    37    36    1
    33    38    36    1
    34    39    38    1
    35    40    41    1
    36    41    42   ar
    37    42    43   ar
    38    43    44    1
    39    44    58   am
    40    45    41   ar
    41    46    45    1
    42    47    45   ar
    43    48    47    1
    44    49    47   ar
    45    50    49    1
    46    51    42   ar
    47    52    51   ar
    48    53    52    1
    49    54    52   ar
    50    55    54    1
    51    56    43   ar
    52    57    56    1
    53    58    19    1
    54    59    26    2
    55    60     2    1
    56    61     1    1
    57    62     2    1
    58    63     1    1
    59    64     2    1
    60    65     3    1
    61    66    40    2
    62    67    44    2
    63    68    69    1
    64    69    70    1
    65    71    69    1
    66    72    73    1
    67    74    72    1
    68    75    72    1
    69    76    75   ar
    70    77    76    1
    71    78    76   ar
    72    79    78    1
    73    80    78   ar
    74    81    80   ar
    75    82    81    1
    76    83    75   ar
    77    84    83    1
    78    85    80    1
    79    86    85    1
    80    87    85    1
    81    88    89    1
    82    90    88    2
    83    91    90    1
    84    92    90    1
    85    93    92    1
    86    94    95    1
    87    96    94    2
    88    97    96    1
    89    98    96    1
    90    99    98    1
    91   100   101    1
    92   102   100    2
    93   103   102    1
    94   104   102    1
    95   105   104    1
    96   106   107    1
    97   107   108   ar
    98   108   109   ar
    99   109   110    1
   100   110   124   am
   101   111   107   ar
   102   112   111    1
   103   113   111   ar
   104   114   113    1
   105   115   113   ar
   106   116   115    1
   107   117   108   ar
   108   118   117   ar
   109   119   118    1
   110   120   118   ar
   111   121   120    1
   112   122   109   ar
   113   123   122    1
   114   124    85    1
   115   125     1    1
   116   126    68    1
   117   127     1    1
   118   128    68    1
   119   129     1    1
   120   130    68    1
   121   131    69    1
   122   132   106    2
   123   133   110    2
   124     6    65    1
   125    15    17   ar
   126    22    60    1
   127    28    62    1
   128    32    61    2
   129    34    64    1
   130    38    63    2
   131    40    58   am
   132    49    51   ar
   133    54    56   ar
   134    59    60    1
   135    61    62    1
   136    63    64    1
   137    72   131    1
   138    81    83   ar
   139    88   126    1
   140    92   125    2
   141    94   128    1
   142    98   127    2
   143   100   130    1
   144   104   129    2
   145   106   124   am
   146   115   117   ar
   147   120   122   ar
   148   125   126    1
   149   127   128    1
   150   129   130    1
   151   134   135    1
   152   136   134    1
   153   137   134    1
   154   138   134    1
   155   139   140    1
   156   140   141    1
   157   142   140    1
   158   143   140    1
   159   144   139    3
   160   145   146    1
   161   146   147    1
   162   148   146    1
   163   149   146    1
   164   150   145    3
@<TRIPOS>SUBSTRUCTURE
     1 RES1        1 GROUP             0 ****  ****    0  
     2 RES2      134 GROUP             0 ****  ****    0  
     3 RES3      139 GROUP             0 ****  ****    0  
     4 RES4      145 GROUP             0 ****  ****    0  
@<TRIPOS>CRYSIN
   29.4569    9.4286   26.0582   90.0000  106.9600   90.0000    15     1
