@<TRIPOS>MOLECULE
QUWTEJ
   118   131     1     0     0
SMALL
NO_CHARGES
****
Generated from the CSD

@<TRIPOS>ATOM
     1 Fe1      5.0549   5.4658   4.9718   Fe        1 RES1   0.0000
     2 O1       3.7601   2.0432  -3.3678   O.3       1 RES1   0.0000
     3 O2       7.0477  -2.8217   8.2020   O.3       1 RES1   0.0000
     4 O3       6.6427   9.1091  13.1396   O.3       1 RES1   0.0000
     5 O4       2.8834  13.5769   1.4340   O.3       1 RES1   0.0000
     6 O5       2.4641   6.2094   5.1234   O.2       1 RES1   0.0000
     7 N1       4.6252   6.2010   3.1612   N.2       1 RES1   0.0000
     8 N2       5.2152   3.6271   4.1902   N.2       1 RES1   0.0000
     9 N3       5.5173   4.7322   6.7778   N.2       1 RES1   0.0000
    10 N4       5.0074   7.3247   5.7176   N.2       1 RES1   0.0000
    11 N5       3.2972   5.2812   5.2841   N.2       1 RES1   0.0000
    12 N6       7.0633   5.6810   4.6581   N.2       1 RES1   0.0000
    13 N7       9.0603   5.7454   3.7290   N.pl3     1 RES1   0.0000
    14 C1       4.2532   7.4964   2.8573   C.2       1 RES1   0.0000
    15 C2       3.7758   7.5721   1.5046   C.2       1 RES1   0.0000
    16 H1       3.4537   8.3484   1.0613   H         1 RES1   0.0000
    17 C3       3.8717   6.3336   0.9828   C.2       1 RES1   0.0000
    18 H2       3.6352   6.0727   0.0996   H         1 RES1   0.0000
    19 C4       4.3993   5.4778   2.0135   C.2       1 RES1   0.0000
    20 C5       4.6055   4.1095   1.8472   C.2       1 RES1   0.0000
    21 C6       4.9858   3.2573   2.8849   C.2       1 RES1   0.0000
    22 C7       5.1707   1.8391   2.7304   C.2       1 RES1   0.0000
    23 H3       5.0636   1.3386   1.9302   H         1 RES1   0.0000
    24 C8       5.5244   1.3571   3.9349   C.2       1 RES1   0.0000
    25 H4       5.7197   0.4505   4.1433   H         1 RES1   0.0000
    26 C9       5.5528   2.4680   4.8512   C.2       1 RES1   0.0000
    27 C10      5.8283   2.3530   6.2125   C.2       1 RES1   0.0000
    28 C11      5.7681   3.4190   7.1061   C.2       1 RES1   0.0000
    29 C12      5.9864   3.3043   8.5261   C.2       1 RES1   0.0000
    30 H5       6.1698   2.5051   9.0063   H         1 RES1   0.0000
    31 C13      5.8819   4.5415   9.0456   C.2       1 RES1   0.0000
    32 H6       5.9726   4.7778   9.9612   H         1 RES1   0.0000
    33 C14      5.6093   5.4422   7.9549   C.2       1 RES1   0.0000
    34 C15      5.5472   6.8350   8.0789   C.2       1 RES1   0.0000
    35 C16      5.2726   7.6975   7.0147   C.2       1 RES1   0.0000
    36 C17      5.1970   9.1354   7.1378   C.2       1 RES1   0.0000
    37 H7       5.3610   9.6452   7.9223   H         1 RES1   0.0000
    38 C18      4.8505   9.6151   5.9330   C.2       1 RES1   0.0000
    39 H8       4.7180  10.5283   5.7070   H         1 RES1   0.0000
    40 C19      4.7172   8.4914   5.0517   C.2       1 RES1   0.0000
    41 C20      4.3272   8.5896   3.7150   C.2       1 RES1   0.0000
    42 C21      4.4014   3.5413   0.4734   C.ar      1 RES1   0.0000
    43 C22      5.3985   3.6545  -0.4870   C.ar      1 RES1   0.0000
    44 H9       6.2161   4.0813  -0.2557   H         1 RES1   0.0000
    45 C23      5.2330   3.1620  -1.7734   C.ar      1 RES1   0.0000
    46 H10      5.9316   3.2479  -2.4122   H         1 RES1   0.0000
    47 C24      4.0421   2.5422  -2.1226   C.ar      1 RES1   0.0000
    48 C25      3.0290   2.4222  -1.1708   C.ar      1 RES1   0.0000
    49 H11      2.2131   1.9924  -1.3985   H         1 RES1   0.0000
    50 C26      3.2087   2.9277   0.1034   C.ar      1 RES1   0.0000
    51 H12      2.5051   2.8551   0.7377   H         1 RES1   0.0000
    52 C27      4.7768   2.1891  -4.3674   C.3       1 RES1   0.0000
    53 H13      5.0031   3.1371  -4.4669   H         1 RES1   0.0000
    54 H14      4.4472   1.8409  -5.2205   H         1 RES1   0.0000
    55 H15      5.5753   1.6894  -4.0981   H         1 RES1   0.0000
    56 C28      6.1789   0.9906   6.7447   C.ar      1 RES1   0.0000
    57 C29      7.4229   0.4268   6.4981   C.ar      1 RES1   0.0000
    58 H16      8.0617   0.9222   5.9989   H         1 RES1   0.0000
    59 C30      7.7634  -0.8427   6.9608   C.ar      1 RES1   0.0000
    60 H17      8.6199  -1.2093   6.7751   H         1 RES1   0.0000
    61 C31      6.8325  -1.5636   7.6956   C.ar      1 RES1   0.0000
    62 C32      5.5930  -1.0087   7.9604   C.ar      1 RES1   0.0000
    63 H18      4.9590  -1.4957   8.4745   H         1 RES1   0.0000
    64 C33      5.2679   0.2501   7.4831   C.ar      1 RES1   0.0000
    65 H19      4.4083   0.6116   7.6644   H         1 RES1   0.0000
    66 C34      8.2698  -3.4719   7.8511   C.3       1 RES1   0.0000
    67 H20      9.0255  -2.9552   8.1984   H         1 RES1   0.0000
    68 H21      8.3379  -3.5339   6.8746   H         1 RES1   0.0000
    69 H22      8.2837  -4.3719   8.2369   H         1 RES1   0.0000
    70 C35      5.8442   7.4445   9.4115   C.ar      1 RES1   0.0000
    71 C36      7.1530   7.6930   9.7858   C.ar      1 RES1   0.0000
    72 H23      7.8545   7.4783   9.1828   H         1 RES1   0.0000
    73 C37      7.4680   8.2502  11.0211   C.ar      1 RES1   0.0000
    74 H24      8.3746   8.4078  11.2578   H         1 RES1   0.0000
    75 C38      6.4675   8.5662  11.8883   C.ar      1 RES1   0.0000
    76 C39      5.1463   8.3522  11.5258   C.ar      1 RES1   0.0000
    77 H25      4.4468   8.5893  12.1222   H         1 RES1   0.0000
    78 C40      4.8441   7.7955  10.2961   C.ar      1 RES1   0.0000
    79 H26      3.9360   7.6526  10.0562   H         1 RES1   0.0000
    80 C41      7.9791   9.3841  13.5490   C.3       1 RES1   0.0000
    81 H27      8.3623  10.0754  12.9708   H         1 RES1   0.0000
    82 H28      8.5164   8.5664  13.4800   H         1 RES1   0.0000
    83 H29      7.9784   9.6970  14.4779   H         1 RES1   0.0000
    84 C42      3.9361   9.9305   3.1576   C.ar      1 RES1   0.0000
    85 C43      4.7336  10.5680   2.2151   C.ar      1 RES1   0.0000
    86 H30      5.5552  10.1695   1.9529   H         1 RES1   0.0000
    87 C44      4.3547  11.7733   1.6537   C.ar      1 RES1   0.0000
    88 H31      4.9156  12.1935   1.0138   H         1 RES1   0.0000
    89 C45      3.1568  12.3708   2.0232   C.ar      1 RES1   0.0000
    90 C46      2.3356  11.7335   2.9356   C.ar      1 RES1   0.0000
    91 H32      1.5032  12.1210   3.1793   H         1 RES1   0.0000
    92 C47      2.7349  10.5191   3.4977   C.ar      1 RES1   0.0000
    93 H33      2.1678  10.0898   4.1275   H         1 RES1   0.0000
    94 C48      1.6048  14.1304   1.6951   C.3       1 RES1   0.0000
    95 H34      1.4984  14.2662   2.6589   H         1 RES1   0.0000
    96 H35      0.9119  13.5167   1.3736   H         1 RES1   0.0000
    97 H36      1.5197  14.9891   1.2310   H         1 RES1   0.0000
    98 C49      7.7304   5.6198   3.5213   C.2       1 RES1   0.0000
    99 H37      7.3288   5.5020   2.6679   H         1 RES1   0.0000
   100 C50      9.2477   5.8782   5.0774   C.2       1 RES1   0.0000
   101 H38     10.0779   5.9748   5.5282   H         1 RES1   0.0000
   102 C51      8.0250   5.8426   5.6411   C.2       1 RES1   0.0000
   103 H39      7.8497   5.9184   6.5714   H         1 RES1   0.0000
   104 C52     10.1076   5.7315   2.7073   C.3       1 RES1   0.0000
   105 H40      9.8550   6.3298   1.9732   H         1 RES1   0.0000
   106 H41     10.2164   4.8205   2.3624   H         1 RES1   0.0000
   107 H42     10.9514   6.0353   3.1001   H         1 RES1   0.0000
   108 C53      2.6917   4.0402   5.7337   C.ar      1 RES1   0.0000
   109 C54      2.2178   3.1280   4.8045   C.ar      1 RES1   0.0000
   110 H43      2.3053   3.3009   3.8741   H         1 RES1   0.0000
   111 C55      1.6135   1.9576   5.2517   C.ar      1 RES1   0.0000
   112 H44      1.2850   1.3242   4.6253   H         1 RES1   0.0000
   113 C56      1.4893   1.7165   6.6139   C.ar      1 RES1   0.0000
   114 H45      1.0741   0.9171   6.9176   H         1 RES1   0.0000
   115 C57      1.9660   2.6290   7.5236   C.ar      1 RES1   0.0000
   116 H46      1.8817   2.4574   8.4541   H         1 RES1   0.0000
   117 C58      2.5699   3.8027   7.0864   C.ar      1 RES1   0.0000
   118 H47      2.8957   4.4363   7.7142   H         1 RES1   0.0000
@<TRIPOS>BOND
     1     1     7    1
     2     2    47    1
     3     3    61    1
     4     4    75    1
     5     5    89    1
     6     6    11    2
     7     7    14    1
     8     8     1    1
     9     9     1    1
    10    10     1    1
    11    11     1    1
    12    12     1    1
    13    13    98    1
    14    14    15    2
    15    15    16    1
    16    17    15    1
    17    18    17    1
    18    19     7    1
    19    20    19    1
    20    21     8    1
    21    22    21    1
    22    23    22    1
    23    24    22    2
    24    25    24    1
    25    26     8    2
    26    27    26    1
    27    28     9    1
    28    29    28    1
    29    30    29    1
    30    31    29    2
    31    32    31    1
    32    33     9    1
    33    34    33    2
    34    35    10    2
    35    36    35    1
    36    37    36    1
    37    38    36    2
    38    39    38    1
    39    40    10    1
    40    41    14    1
    41    42    20    1
    42    43    42   ar
    43    44    43    1
    44    45    43   ar
    45    46    45    1
    46    47    45   ar
    47    48    47   ar
    48    49    48    1
    49    50    42   ar
    50    51    50    1
    51    52     2    1
    52    53    52    1
    53    54    52    1
    54    55    52    1
    55    56    27    1
    56    57    56   ar
    57    58    57    1
    58    59    57   ar
    59    60    59    1
    60    61    59   ar
    61    62    61   ar
    62    63    62    1
    63    64    56   ar
    64    65    64    1
    65    66     3    1
    66    67    66    1
    67    68    66    1
    68    69    66    1
    69    70    34    1
    70    71    70   ar
    71    72    71    1
    72    73    71   ar
    73    74    73    1
    74    75    73   ar
    75    76    75   ar
    76    77    76    1
    77    78    70   ar
    78    79    78    1
    79    80     4    1
    80    81    80    1
    81    82    80    1
    82    83    80    1
    83    84    41    1
    84    85    84   ar
    85    86    85    1
    86    87    85   ar
    87    88    87    1
    88    89    87   ar
    89    90    89   ar
    90    91    90    1
    91    92    84   ar
    92    93    92    1
    93    94     5    1
    94    95    94    1
    95    96    94    1
    96    97    94    1
    97    98    12    2
    98    99    98    1
    99   100    13    1
   100   101   100    1
   101   102    12    1
   102   103   102    1
   103   104    13    1
   104   105   104    1
   105   106   104    1
   106   107   104    1
   107   108    11    1
   108   109   108   ar
   109   110   109    1
   110   111   109   ar
   111   112   111    1
   112   113   111   ar
   113   114   113    1
   114   115   113   ar
   115   116   115    1
   116   117   108   ar
   117   118   117    1
   118    17    19    2
   119    20    21    2
   120    24    26    1
   121    27    28    2
   122    31    33    1
   123    34    35    1
   124    38    40    1
   125    40    41    2
   126    48    50   ar
   127    62    64   ar
   128    76    78   ar
   129    90    92   ar
   130   100   102    2
   131   115   117   ar
@<TRIPOS>SUBSTRUCTURE
     1 RES1        1 GROUP             0 ****  ****    0  
@<TRIPOS>CRYSIN
    9.8358   11.9775   23.1490   81.8370   79.2050   74.9750     2     1
