@<TRIPOS>MOLECULE
RADBAZ
    83    88     1     0     0
SMALL
NO_CHARGES
****
Generated from the CSD

@<TRIPOS>ATOM
     1 Fe1     -4.3130   0.0000   8.5346   Fe        1 RES1   0.0000
     2 O1      -3.3904   0.2755  10.3064   O.3       1 RES1   0.0000
     3 O2      -2.8073   1.0769   7.7341   O.2       1 RES1   0.0000
     4 O3      -3.1045  -1.9108   8.0686   O.3       1 RES1   0.0000
     5 C1      -2.3504   0.9310  10.5931   C.2       1 RES1   0.0000
     6 C2      -1.5156   1.5358   9.6578   C.2       1 RES1   0.0000
     7 C3      -1.7754   1.5774   8.2854   C.2       1 RES1   0.0000
     8 C4      -0.8103   2.2581   7.3602   C.ar      1 RES1   0.0000
     9 C5       0.3686   2.8402   7.7767   C.ar      1 RES1   0.0000
    10 C6       1.2156   3.4573   6.8806   C.ar      1 RES1   0.0000
    11 C7       0.8958   3.5005   5.5782   C.ar      1 RES1   0.0000
    12 C8      -0.2547   2.9364   5.1447   C.ar      1 RES1   0.0000
    13 C9      -1.1133   2.3152   6.0101   C.ar      1 RES1   0.0000
    14 C10     -2.0196   1.0394  12.0491   C.ar      1 RES1   0.0000
    15 C11     -2.7291   0.2641  12.9316   C.ar      1 RES1   0.0000
    16 C12     -2.4750   0.3350  14.3006   C.ar      1 RES1   0.0000
    17 C13     -1.5174   1.1706  14.7700   C.ar      1 RES1   0.0000
    18 C14     -0.8017   1.9483  13.9046   C.ar      1 RES1   0.0000
    19 C15     -1.0522   1.8896  12.5527   C.ar      1 RES1   0.0000
    20 C16     -2.4553  -2.7277   8.9972   C.3       1 RES1   0.0000
    21 C17     -3.2276  -3.0676  10.0964   C.3       1 RES1   0.0000
    22 C18     -2.6575  -2.0625   6.6382   C.3       1 RES1   0.0000
    23 C19     -1.2600  -1.7364   6.5392   C.3       1 RES1   0.0000
    24 H1      -0.7201   1.9459   9.9701   H         1 RES1   0.0000
    25 H2       0.6025   2.8165   8.6933   H         1 RES1   0.0000
    26 H3       2.0228   3.8518   7.1844   H         1 RES1   0.0000
    27 H4       1.4798   3.9260   4.9637   H         1 RES1   0.0000
    28 H5      -0.4746   2.9698   4.2246   H         1 RES1   0.0000
    29 H6      -1.9175   1.9231   5.6858   H         1 RES1   0.0000
    30 H7      -3.4003  -0.3261  12.6073   H         1 RES1   0.0000
    31 H8      -2.9724  -0.2014  14.8997   H         1 RES1   0.0000
    32 H9      -1.3404   1.2155  15.6968   H         1 RES1   0.0000
    33 H10     -0.1315   2.5320  14.2357   H         1 RES1   0.0000
    34 H11     -0.5567   2.4399  11.9621   H         1 RES1   0.0000
    35 H12     -3.3165  -1.6239   6.1142   H         1 RES1   0.0000
    36 H13     -2.6769  -2.9942   6.4573   H         1 RES1   0.0000
    37 H14     -2.2548  -3.6545   8.9562   H         1 RES1   0.0000
    38 H16     -2.5423  -3.3545  10.6853   H         1 RES1   0.0000
    39 H17     -3.8110  -2.4701  10.5488   H         1 RES1   0.0000
    40 H18     -3.7211  -3.8200   9.7909   H         1 RES1   0.0000
    41 H19     -1.3292  -1.9361   7.4609   H         1 RES1   0.0000
    42 H20     -1.3243  -0.7965   6.4129   H         1 RES1   0.0000
    43 O1D     -5.2356  -0.2755   6.7628   O.3       1 RES1   0.0000
    44 C1D     -6.2756  -0.9310   6.4761   C.2       1 RES1   0.0000
    45 C2D     -7.1104  -1.5358   7.4114   C.2       1 RES1   0.0000
    46 C3D     -6.8506  -1.5774   8.7838   C.2       1 RES1   0.0000
    47 O2D     -5.8187  -1.0769   9.3351   O.2       1 RES1   0.0000
    48 O3D     -5.5215   1.9108   9.0006   O.3       1 RES1   0.0000
    49 C16D    -6.1707   2.7277   8.0720   C.3       1 RES1   0.0000
    50 C17D    -5.3984   3.0676   6.9728   C.3       1 RES1   0.0000
    51 H16D    -6.0837   3.3545   6.3839   H         1 RES1   0.0000
    52 H17D    -4.8151   2.4701   6.5204   H         1 RES1   0.0000
    53 H18D    -4.9049   3.8200   7.2783   H         1 RES1   0.0000
    54 H14D    -6.3712   3.6545   8.1130   H         1 RES1   0.0000
    55 C18D    -5.9685   2.0625  10.4310   C.3       1 RES1   0.0000
    56 C19D    -7.3660   1.7364  10.5300   C.3       1 RES1   0.0000
    57 H19D    -7.2968   1.9361   9.6083   H         1 RES1   0.0000
    58 H20D    -7.3017   0.7965  10.6563   H         1 RES1   0.0000
    59 H12D    -5.3095   1.6239  10.9550   H         1 RES1   0.0000
    60 H13D    -5.9491   2.9942  10.6119   H         1 RES1   0.0000
    61 C4D     -7.8158  -2.2581   9.7090   C.ar      1 RES1   0.0000
    62 C5D     -8.9946  -2.8402   9.2925   C.ar      1 RES1   0.0000
    63 C6D     -9.8416  -3.4573  10.1886   C.ar      1 RES1   0.0000
    64 C7D     -9.5218  -3.5005  11.4910   C.ar      1 RES1   0.0000
    65 C8D     -8.3713  -2.9364  11.9245   C.ar      1 RES1   0.0000
    66 C9D     -7.5127  -2.3152  11.0591   C.ar      1 RES1   0.0000
    67 H6D     -6.7085  -1.9231  11.3834   H         1 RES1   0.0000
    68 H5D     -8.1514  -2.9698  12.8446   H         1 RES1   0.0000
    69 H4D    -10.1058  -3.9260  12.1055   H         1 RES1   0.0000
    70 H3D    -10.6488  -3.8518   9.8848   H         1 RES1   0.0000
    71 H2D     -9.2286  -2.8165   8.3759   H         1 RES1   0.0000
    72 H1D     -7.9059  -1.9459   7.0991   H         1 RES1   0.0000
    73 C10D    -6.6064  -1.0394   5.0201   C.ar      1 RES1   0.0000
    74 C11D    -5.8969  -0.2641   4.1376   C.ar      1 RES1   0.0000
    75 C12D    -6.1510  -0.3350   2.7686   C.ar      1 RES1   0.0000
    76 C13D    -7.1086  -1.1706   2.2992   C.ar      1 RES1   0.0000
    77 C14D    -7.8243  -1.9483   3.1646   C.ar      1 RES1   0.0000
    78 C15D    -7.5738  -1.8896   4.5165   C.ar      1 RES1   0.0000
    79 H11D    -8.0694  -2.4399   5.1071   H         1 RES1   0.0000
    80 H10D    -8.4945  -2.5320   2.8335   H         1 RES1   0.0000
    81 H9D     -7.2856  -1.2155   1.3724   H         1 RES1   0.0000
    82 H8D     -5.6537   0.2014   2.1695   H         1 RES1   0.0000
    83 H7D     -5.2257   0.3261   4.4619   H         1 RES1   0.0000
@<TRIPOS>BOND
     1     1     2    1
     2     2     5    1
     3     3     1    1
     4     4     1    1
     5     5     6    2
     6     6     7    1
     7     7     3    2
     8     8     7    1
     9     9     8   ar
    10    10     9   ar
    11    11    10   ar
    12    12    11   ar
    13    13     8   ar
    14    14     5    1
    15    15    14   ar
    16    16    15   ar
    17    17    16   ar
    18    18    17   ar
    19    19    14   ar
    20    20     4    1
    21    21    20    1
    22    22     4    1
    23    23    22    1
    24    24     6    1
    25    25     9    1
    26    26    10    1
    27    27    11    1
    28    28    12    1
    29    29    13    1
    30    30    15    1
    31    31    16    1
    32    32    17    1
    33    33    18    1
    34    34    19    1
    35    35    22    1
    36    36    22    1
    37    37    20    1
    38    38    21    1
    39    39    21    1
    40    40    21    1
    41    41    23    1
    42    42    23    1
    43    43     1    1
    44    44    43    1
    45    45    44    2
    46    46    45    1
    47    47     1    1
    48    48     1    1
    49    49    48    1
    50    50    49    1
    51    51    50    1
    52    52    50    1
    53    53    50    1
    54    54    49    1
    55    55    48    1
    56    56    55    1
    57    57    56    1
    58    58    56    1
    59    59    55    1
    60    60    55    1
    61    61    46    1
    62    62    61   ar
    63    63    62   ar
    64    64    63   ar
    65    65    64   ar
    66    66    61   ar
    67    67    66    1
    68    68    65    1
    69    69    64    1
    70    70    63    1
    71    71    62    1
    72    72    45    1
    73    73    44    1
    74    74    73   ar
    75    75    74   ar
    76    76    75   ar
    77    77    76   ar
    78    78    73   ar
    79    79    78    1
    80    80    77    1
    81    81    76    1
    82    82    75    1
    83    83    74    1
    84    12    13   ar
    85    18    19   ar
    86    46    47    2
    87    65    66   ar
    88    77    78   ar
@<TRIPOS>SUBSTRUCTURE
     1 RES1        1 GROUP             0 ****  ****    0  
@<TRIPOS>CRYSIN
   24.6340    8.1520   19.1250   90.0000  116.8100   90.0000    15     1
