@<TRIPOS>MOLECULE
RADFAF
    77    86     1     0     0
SMALL
NO_CHARGES
****
Generated from the CSD

@<TRIPOS>ATOM
     1 Fe1      5.1840  10.4012   7.3029   Fe        1 RES1   0.0000
     2 C1       6.4047  11.8715   5.0685   C.ar      1 RES1   0.0000
     3 H1       7.0984  12.0908   5.6465   H         1 RES1   0.0000
     4 C2       6.4749  12.2926   3.7665   C.ar      1 RES1   0.0000
     5 H2       7.2057  12.7861   3.4695   H         1 RES1   0.0000
     6 C3       5.4610  11.9804   2.9108   C.ar      1 RES1   0.0000
     7 H3       5.4931  12.2660   2.0263   H         1 RES1   0.0000
     8 C4       4.3973  11.2472   3.3560   C.ar      1 RES1   0.0000
     9 H4       3.7025  11.0271   2.7778   H         1 RES1   0.0000
    10 C5       4.3677  10.8341   4.6877   C.ar      1 RES1   0.0000
    11 C6       3.3252  10.0046   5.2969   C.2       1 RES1   0.0000
    12 C7       2.1189   9.5372   4.5928   C.ar      1 RES1   0.0000
    13 C8       1.1744  10.4132   4.1279   C.ar      1 RES1   0.0000
    14 H5       1.3101  11.3251   4.2432   H         1 RES1   0.0000
    15 C9       0.0182   9.9759   3.4894   C.ar      1 RES1   0.0000
    16 H6      -0.6199  10.5857   3.1946   H         1 RES1   0.0000
    17 C10     -0.1644   8.6308   3.3048   C.ar      1 RES1   0.0000
    18 H7      -0.9382   8.3162   2.8953   H         1 RES1   0.0000
    19 C11      0.7682   7.7782   3.7140   C.ar      1 RES1   0.0000
    20 H8       0.6565   6.8690   3.5471   H         1 RES1   0.0000
    21 C12      1.8968   8.2045   4.3815   C.ar      1 RES1   0.0000
    22 H9       2.5120   7.5795   4.6910   H         1 RES1   0.0000
    23 C13      3.4041   8.8005   8.5229   C.2       1 RES1   0.0000
    24 C14      2.7219   7.9113   9.4851   C.ar      1 RES1   0.0000
    25 C15      1.5498   7.2153   9.1683   C.ar      1 RES1   0.0000
    26 C16      0.9914   6.3351  10.0892   C.ar      1 RES1   0.0000
    27 H10      0.2132   5.8716   9.8808   H         1 RES1   0.0000
    28 C17      1.6012   6.1530  11.3143   C.ar      1 RES1   0.0000
    29 H11      1.2330   5.5570  11.9248   H         1 RES1   0.0000
    30 C18      2.7398   6.8359  11.6430   C.ar      1 RES1   0.0000
    31 H12      3.1366   6.7159  12.4746   H         1 RES1   0.0000
    32 C19      3.2905   7.7037  10.7306   C.ar      1 RES1   0.0000
    33 H13      4.0671   8.1631  10.9560   H         1 RES1   0.0000
    34 C20      6.2149   7.9222   6.0522   C.ar      1 RES1   0.0000
    35 H14      5.3516   7.7685   5.7418   H         1 RES1   0.0000
    36 C21      7.2085   7.0355   5.7006   C.ar      1 RES1   0.0000
    37 H15      7.0256   6.3199   5.1366   H         1 RES1   0.0000
    38 C22      8.4706   7.2250   6.1961   C.ar      1 RES1   0.0000
    39 H16      9.1472   6.6193   5.9945   H         1 RES1   0.0000
    40 C23      8.7341   8.3217   6.9979   C.ar      1 RES1   0.0000
    41 H17      9.5843   8.4556   7.3513   H         1 RES1   0.0000
    42 C24      7.7113   9.2168   7.2668   C.ar      1 RES1   0.0000
    43 C25      7.8737  10.4691   7.9998   C.2       1 RES1   0.0000
    44 C26      9.1678  10.9711   8.4943   C.ar      1 RES1   0.0000
    45 C27     10.2809  11.0302   7.6470   C.ar      1 RES1   0.0000
    46 H18     10.2105  10.7347   6.7683   H         1 RES1   0.0000
    47 C28     11.4885  11.5293   8.1153   C.ar      1 RES1   0.0000
    48 H19     12.2208  11.5748   7.5442   H         1 RES1   0.0000
    49 C29     11.6126  11.9515   9.4020   C.ar      1 RES1   0.0000
    50 H20     12.4261  12.2840   9.7057   H         1 RES1   0.0000
    51 C30     10.5479  11.8894  10.2353   C.ar      1 RES1   0.0000
    52 H21     10.6385  12.1722  11.1156   H         1 RES1   0.0000
    53 C31      9.3204  11.4038   9.7906   C.ar      1 RES1   0.0000
    54 H22      8.5972  11.3734  10.3752   H         1 RES1   0.0000
    55 C32      5.3818  12.7838   8.5691   C.2       1 RES1   0.0000
    56 C33      5.0683  14.0968   9.1645   C.ar      1 RES1   0.0000
    57 C34      6.0019  14.8100   9.9347   C.ar      1 RES1   0.0000
    58 C35      5.6102  15.9716  10.5785   C.ar      1 RES1   0.0000
    59 H23      6.2245  16.4269  11.1090   H         1 RES1   0.0000
    60 C36      4.3509  16.4586  10.4534   C.ar      1 RES1   0.0000
    61 H24      4.1049  17.2326  10.9072   H         1 RES1   0.0000
    62 C37      3.4271  15.8006   9.6451   C.ar      1 RES1   0.0000
    63 H25      2.5725  16.1496   9.5239   H         1 RES1   0.0000
    64 C38      3.7967  14.6265   9.0280   C.ar      1 RES1   0.0000
    65 H26      3.1747  14.1768   8.5041   H         1 RES1   0.0000
    66 N1       5.3752  11.1554   5.5405   N.ar      1 RES1   0.0000
    67 N2       3.6369   9.7091   6.5273   N.2       1 RES1   0.0000
    68 N3       2.8360   8.9028   7.3112   N.2       1 RES1   0.0000
    69 N4       6.4391   8.9971   6.8208   N.ar      1 RES1   0.0000
    70 N5       6.7270  11.1134   8.0820   N.2       1 RES1   0.0000
    71 N6       6.6500  12.3698   8.6482   N.2       1 RES1   0.0000
    72 O1       4.4870   9.3890   8.8468   O.3       1 RES1   0.0000
    73 O2       0.9440   7.3181   7.9647   O.3       1 RES1   0.0000
    74 H27      1.3966   7.7892   7.4688   H         1 RES1   0.0000
    75 O3       4.4400  12.1010   8.0073   O.3       1 RES1   0.0000
    76 O4       7.2667  14.4019  10.1176   O.3       1 RES1   0.0000
    77 H28      7.3897  13.7008   9.7101   H         1 RES1   0.0000
@<TRIPOS>BOND
     1     1    66    1
     2     2     3    1
     3     4     2   ar
     4     5     4    1
     5     6     4   ar
     6     7     6    1
     7     8     6   ar
     8     9     8    1
     9    10     8   ar
    10    11    10    1
    11    12    11    1
    12    13    12   ar
    13    14    13    1
    14    15    13   ar
    15    16    15    1
    16    17    15   ar
    17    18    17    1
    18    19    17   ar
    19    20    19    1
    20    21    12   ar
    21    22    21    1
    22    23    24    1
    23    24    25   ar
    24    25    26   ar
    25    26    27    1
    26    28    26   ar
    27    29    28    1
    28    30    28   ar
    29    31    30    1
    30    32    24   ar
    31    33    32    1
    32    34    35    1
    33    36    34   ar
    34    37    36    1
    35    38    36   ar
    36    39    38    1
    37    40    38   ar
    38    41    40    1
    39    42    40   ar
    40    43    42    1
    41    44    43    1
    42    45    44   ar
    43    46    45    1
    44    47    45   ar
    45    48    47    1
    46    49    47   ar
    47    50    49    1
    48    51    49   ar
    49    52    51    1
    50    53    44   ar
    51    54    53    1
    52    55    56    1
    53    56    57   ar
    54    57    58   ar
    55    58    59    1
    56    60    58   ar
    57    61    60    1
    58    62    60   ar
    59    63    62    1
    60    64    56   ar
    61    65    64    1
    62    66     2   ar
    63    67     1    1
    64    68    23    2
    65    69     1    1
    66    70     1    1
    67    71    55    2
    68    72     1    1
    69    73    25    1
    70    74    73    1
    71    75     1    1
    72    76    57    1
    73    77    76    1
    74    10    66   ar
    75    11    67    2
    76    19    21   ar
    77    23    72    1
    78    30    32   ar
    79    34    69   ar
    80    42    69   ar
    81    43    70    2
    82    51    53   ar
    83    55    75    1
    84    62    64   ar
    85    67    68    1
    86    70    71    1
@<TRIPOS>SUBSTRUCTURE
     1 RES1        1 GROUP             0 ****  ****    0  
@<TRIPOS>CRYSIN
   10.6520   13.7960   22.1810   90.0000   91.8700   90.0000    14     1
