@<TRIPOS>MOLECULE
RAKQUQ
    82    88     2     0     0
SMALL
NO_CHARGES
****
Generated from the CSD

@<TRIPOS>ATOM
     1 Fe1     12.3600   4.2061  10.3723   Fe        1 RES1   0.0000
     2 O1      13.1922   3.8417  12.2228   O.3       1 RES1   0.0000
     3 O2      13.6323   3.5324   8.9653   O.3       1 RES1   0.0000
     4 O3      14.1069   2.4817  14.2274   O.3       1 RES1   0.0000
     5 O4      18.7045   4.3059  14.9749   O.2       1 RES1   0.0000
     6 O5      18.8208   6.0389  13.6807   O.2       1 RES1   0.0000
     7 O6      14.0695  -2.2907   6.8131   O.2       1 RES1   0.0000
     8 O7      15.6471  -1.3379   5.7064   O.2       1 RES1   0.0000
     9 O8      15.4298   3.4744   6.8982   O.3       1 RES1   0.0000
    10 N1      13.4529   6.0414  10.4883   N.2       1 RES1   0.0000
    11 N2      11.2597   5.5085   8.9520   N.3       1 RES1   0.0000
    12 H1      11.0281   4.9306   8.2337   H         1 RES1   0.0000
    13 N3      10.4486   4.4957  11.4460   N.3       1 RES1   0.0000
    14 H2      10.4431   5.1216  12.1443   H         1 RES1   0.0000
    15 N4      11.5072   2.2624  10.2529   N.2       1 RES1   0.0000
    16 N5      18.2143   5.0629  14.1210   N.pl3     1 RES1   0.0000
    17 N6      14.7285  -1.2886   6.5231   N.pl3     1 RES1   0.0000
    18 C1      14.3371   4.2144  12.6631   C.ar      1 RES1   0.0000
    19 C2      14.9025   3.4790  13.7725   C.ar      1 RES1   0.0000
    20 C3      16.1774   3.7469  14.2287   C.ar      1 RES1   0.0000
    21 H3      16.5679   3.2181  14.9137   H         1 RES1   0.0000
    22 C4      16.8685   4.7934  13.6700   C.ar      1 RES1   0.0000
    23 C5      16.3565   5.5939  12.6565   C.ar      1 RES1   0.0000
    24 H4      16.8645   6.3189  12.3106   H         1 RES1   0.0000
    25 C6      15.0709   5.3119  12.1470   C.ar      1 RES1   0.0000
    26 C7      14.5587   6.1857  11.1175   C.2       1 RES1   0.0000
    27 H5      15.0922   6.9375  10.8860   H         1 RES1   0.0000
    28 C8      13.0814   7.0629   9.5120   C.3       1 RES1   0.0000
    29 H6      13.9003   7.4682   9.1302   H         1 RES1   0.0000
    30 H7      12.5672   7.7787   9.9629   H         1 RES1   0.0000
    31 C9      12.2593   6.4756   8.4133   C.3       1 RES1   0.0000
    32 H8      11.7894   7.2007   7.9291   H         1 RES1   0.0000
    33 H9      12.8521   6.0118   7.7708   H         1 RES1   0.0000
    34 C10     10.1168   6.1034   9.6343   C.3       1 RES1   0.0000
    35 H10      9.4639   6.4355   8.9693   H         1 RES1   0.0000
    36 H11     10.4159   6.8696  10.1850   H         1 RES1   0.0000
    37 C11      9.4661   5.0593  10.5162   C.3       1 RES1   0.0000
    38 H12      8.7237   5.4716  11.0257   H         1 RES1   0.0000
    39 H13      9.0897   4.3376   9.9536   H         1 RES1   0.0000
    40 C12     10.1153   3.2187  12.0446   C.3       1 RES1   0.0000
    41 H14      9.1812   3.2368  12.3718   H         1 RES1   0.0000
    42 H15     10.7097   3.0464  12.8174   H         1 RES1   0.0000
    43 C13     10.2777   2.1130  11.0164   C.3       1 RES1   0.0000
    44 H16     10.2837   1.2368  11.4766   H         1 RES1   0.0000
    45 H17      9.5060   2.1273  10.3978   H         1 RES1   0.0000
    46 C14     11.9704   1.2370   9.6303   C.2       1 RES1   0.0000
    47 H18     11.5339   0.4083   9.7886   H         1 RES1   0.0000
    48 C15     13.0883   1.2213   8.7165   C.ar      1 RES1   0.0000
    49 C16     13.3913   0.0323   8.0874   C.ar      1 RES1   0.0000
    50 H19     12.8834  -0.7454   8.2882   H         1 RES1   0.0000
    51 C17     14.4215  -0.0471   7.1669   C.ar      1 RES1   0.0000
    52 C18     15.1493   1.1078   6.7878   C.ar      1 RES1   0.0000
    53 H20     15.8322   1.0528   6.1294   H         1 RES1   0.0000
    54 C19     14.8527   2.3019   7.3824   C.ar      1 RES1   0.0000
    55 C20     13.8345   2.4015   8.4053   C.ar      1 RES1   0.0000
    56 C21     14.6005   1.6366  15.2729   C.3       1 RES1   0.0000
    57 H21     14.8439   2.1767  16.0670   H         1 RES1   0.0000
    58 H22     15.4030   1.1432  14.9696   H         1 RES1   0.0000
    59 C22     13.5006   0.6868  15.6081   C.3       1 RES1   0.0000
    60 H23     13.8378  -0.0016  16.2173   H         1 RES1   0.0000
    61 H24     13.1736   0.2645  14.7860   H         1 RES1   0.0000
    62 H25     12.7678   1.1748  16.0390   H         1 RES1   0.0000
    63 C23     16.3704   4.0938   7.8107   C.3       1 RES1   0.0000
    64 H26     16.0817   3.9356   8.7445   H         1 RES1   0.0000
    65 H27     17.2666   3.6908   7.6923   H         1 RES1   0.0000
    66 C24     16.4335   5.4514   7.5673   C.3       1 RES1   0.0000
    67 H28     16.7945   5.9073   8.3561   H         1 RES1   0.0000
    68 H29     15.5344   5.7914   7.3757   H         1 RES1   0.0000
    69 H30     17.0178   5.6176   6.7984   H         1 RES1   0.0000
    70 O9      17.4738   7.8955  10.2675   O.3       2 RES2   0.0000
    71 C25     18.3783   8.7469  10.9525   C.3       2 RES2   0.0000
    72 H31     19.1076   8.2247  11.3702   H         2 RES2   0.0000
    73 H32     17.9119   9.2666  11.6535   H         2 RES2   0.0000
    74 C26     18.9120   9.6522   9.8804   C.3       2 RES2   0.0000
    75 H33     19.7282   9.2696   9.4707   H         2 RES2   0.0000
    76 H34     19.1274  10.5454  10.2489   H         2 RES2   0.0000
    77 C27     17.7966   9.7409   8.8722   C.3       2 RES2   0.0000
    78 H35     17.4111  10.6519   8.8495   H         2 RES2   0.0000
    79 H36     18.1187   9.5044   7.9663   H         2 RES2   0.0000
    80 C28     16.7890   8.7445   9.3577   C.3       2 RES2   0.0000
    81 H37     16.0390   9.2043   9.8112   H         2 RES2   0.0000
    82 H38     16.4277   8.2202   8.6008   H         2 RES2   0.0000
@<TRIPOS>BOND
     1     1     2    1
     2     2    18    1
     3     3     1    1
     4     4    19    1
     5     5    16    2
     6     6    16    2
     7     7    17    2
     8     8    17    2
     9     9    54    1
    10    10     1    1
    11    11     1    1
    12    12    11    1
    13    13     1    1
    14    14    13    1
    15    15     1    1
    16    16    22    1
    17    17    51    1
    18    18    19   ar
    19    19    20   ar
    20    20    21    1
    21    22    20   ar
    22    23    22   ar
    23    24    23    1
    24    25    18   ar
    25    26    10    2
    26    27    26    1
    27    28    10    1
    28    29    28    1
    29    30    28    1
    30    31    11    1
    31    32    31    1
    32    33    31    1
    33    34    11    1
    34    35    34    1
    35    36    34    1
    36    37    13    1
    37    38    37    1
    38    39    37    1
    39    40    13    1
    40    41    40    1
    41    42    40    1
    42    43    15    1
    43    44    43    1
    44    45    43    1
    45    46    15    2
    46    47    46    1
    47    48    46    1
    48    49    48   ar
    49    50    49    1
    50    51    49   ar
    51    52    51   ar
    52    53    52    1
    53    54    52   ar
    54    55     3    1
    55    56     4    1
    56    57    56    1
    57    58    56    1
    58    59    56    1
    59    60    59    1
    60    61    59    1
    61    62    59    1
    62    63     9    1
    63    64    63    1
    64    65    63    1
    65    66    63    1
    66    67    66    1
    67    68    66    1
    68    69    66    1
    69    23    25   ar
    70    25    26    1
    71    28    31    1
    72    34    37    1
    73    40    43    1
    74    48    55   ar
    75    54    55   ar
    76    70    71    1
    77    71    72    1
    78    73    71    1
    79    74    71    1
    80    75    74    1
    81    76    74    1
    82    77    74    1
    83    78    77    1
    84    79    77    1
    85    80    70    1
    86    81    80    1
    87    82    80    1
    88    77    80    1
@<TRIPOS>SUBSTRUCTURE
     1 RES1        1 GROUP             0 ****  ****    0  
     2 RES2       70 GROUP             0 ****  ****    0  
@<TRIPOS>CRYSIN
   10.2650   10.8610   14.1810   84.1800   70.5300   88.9500     2     1
