@<TRIPOS>MOLECULE
RAKZIM
    84    88     2     0     0
SMALL
USER_CHARGES
****
Generated from the CSD

@<TRIPOS>ATOM
     1 Fe1     -0.0512   8.9839   5.2831   Fe        1 RES1   2.0000
     2 Cl1      4.5198  13.2242   4.5625   Cl        1 RES1   0.0000
     3 Cl2      4.5683   7.9471   9.3743   Cl        1 RES1   0.0000
     4 Cl3      4.7874   6.3534   2.3668   Cl        1 RES1   0.0000
     5 N1       2.2628  11.8928   3.1139   N.pl3     1 RES1   0.0000
     6 N2       2.0963   9.5355   8.9707   N.pl3     1 RES1   0.0000
     7 N3       2.3278   5.6472   3.9623   N.pl3     1 RES1   0.0000
     8 N4       2.7071  10.8076   2.5750   N.2       1 RES1   0.0000
     9 N5       2.5053  10.5524   8.2976   N.2       1 RES1   0.0000
    10 N6       2.7668   5.7461   5.2282   N.2       1 RES1   0.0000
    11 N7       2.1041   9.8229   3.1308   N.2       1 RES1   0.0000
    12 N8       1.9676  10.5237   7.1438   N.2       1 RES1   0.0000
    13 N9       2.1029   6.7055   5.7755   N.2       1 RES1   0.0000
    14 N10      1.2267  10.2865   4.0532   N.2       1 RES1   0.0000
    15 N11      1.1768   9.4762   7.0656   N.2       1 RES1   0.0000
    16 N12      1.2518   7.2554   4.8647   N.2       1 RES1   0.0000
    17 C1       1.3175  11.5712   4.0004   C.2       1 RES1   0.0000
    18 C2       1.2316   8.8617   8.2131   C.2       1 RES1   0.0000
    19 C3       1.3955   6.5600   3.7542   C.2       1 RES1   0.0000
    20 C4       2.6700  13.2476   2.6310   C.3       1 RES1   0.0000
    21 C5       2.4361   9.2947  10.4067   C.3       1 RES1   0.0000
    22 C6       2.8121   4.5764   3.0642   C.3       1 RES1   0.0000
    23 C7       4.1314  13.4686   2.8529   C.3       1 RES1   0.0000
    24 C8       3.9841   9.1150  10.5028   C.3       1 RES1   0.0000
    25 C9       4.3380   4.6698   2.9268   C.3       1 RES1   0.0000
    26 H1       0.6972  12.2594   4.5794   H         1 RES1   0.0000
    27 H2       0.6799   7.9759   8.5016   H         1 RES1   0.0000
    28 H3       0.8702   6.7307   2.8391   H         1 RES1   0.0000
    29 H4       2.0669  14.0130   3.1910   H         1 RES1   0.0000
    30 H5       1.9693   8.3729  10.7458   H         1 RES1   0.0000
    31 H6       2.3458   4.6878   2.1027   H         1 RES1   0.0000
    32 H7       2.3996  13.3590   1.5849   H         1 RES1   0.0000
    33 H8       2.1131  10.1158  11.0100   H         1 RES1   0.0000
    34 H9       2.5763   3.6133   3.4868   H         1 RES1   0.0000
    35 H10      4.6745  12.8397   2.1872   H         1 RES1   0.0000
    36 H11      4.4122  10.1158  10.3760   H         1 RES1   0.0000
    37 H12      4.8051   4.4021   3.8144   H         1 RES1   0.0000
    38 H13      4.3289  14.5269   2.6099   H         1 RES1   0.0000
    39 H14      4.1690   8.8221  11.5594   H         1 RES1   0.0000
    40 H15      4.6143   3.9709   2.1027   H         1 RES1   0.0000
    41 N10B    -1.3291   7.6812   6.5130   N.2       1 RES1   0.0000
    42 N7B     -2.2064   8.1448   7.4354   N.2       1 RES1   0.0000
    43 N4B     -2.8094   7.1601   7.9912   N.2       1 RES1   0.0000
    44 N1B     -2.3652   6.0749   7.4523   N.pl3     1 RES1   0.0000
    45 C1B     -1.4199   6.3965   6.5658   C.2       1 RES1   0.0000
    46 H1B     -0.7995   5.7083   5.9868   H         1 RES1   0.0000
    47 C4B     -2.7723   4.7201   7.9352   C.3       1 RES1   0.0000
    48 C7B     -4.2338   4.4991   7.7133   C.3       1 RES1   0.0000
    49 Cl1B    -4.6221   4.7435   6.0037   Cl        1 RES1   0.0000
    50 H10B    -4.7769   5.1280   8.3790   H         1 RES1   0.0000
    51 H13B    -4.4313   3.4408   7.9564   H         1 RES1   0.0000
    52 H4B     -2.1693   3.9547   7.3752   H         1 RES1   0.0000
    53 H7B     -2.5019   4.6087   8.9813   H         1 RES1   0.0000
    54 N11B    -1.2792   8.4915   3.5006   N.2       1 RES1   0.0000
    55 N8B     -2.0700   7.4440   3.4224   N.2       1 RES1   0.0000
    56 N5B     -2.6077   7.4153   2.2686   N.2       1 RES1   0.0000
    57 N2B     -2.1986   8.4322   1.5955   N.pl3     1 RES1   0.0000
    58 C2B     -1.3339   9.1060   2.3531   C.2       1 RES1   0.0000
    59 H2B     -0.7823   9.9918   2.0646   H         1 RES1   0.0000
    60 C5B     -2.5384   8.6730   0.1595   C.3       1 RES1   0.0000
    61 C8B     -4.0865   8.8527   0.0634   C.3       1 RES1   0.0000
    62 Cl2B    -4.6706  10.0206   1.1919   Cl        1 RES1   0.0000
    63 H11B    -4.5146   7.8519   0.1902   H         1 RES1   0.0000
    64 H14B    -4.2714   9.1456  -0.9932   H         1 RES1   0.0000
    65 H5B     -2.0717   9.5948  -0.1796   H         1 RES1   0.0000
    66 H8B     -2.2155   7.8519  -0.4438   H         1 RES1   0.0000
    67 N12B    -1.3542  10.7123   5.7015   N.2       1 RES1   0.0000
    68 N9B     -2.2052  11.2622   4.7907   N.2       1 RES1   0.0000
    69 N6B     -2.8691  12.2216   5.3380   N.2       1 RES1   0.0000
    70 N3B     -2.4301  12.3205   6.6039   N.pl3     1 RES1   0.0000
    71 C3B     -1.4979  11.4077   6.8120   C.2       1 RES1   0.0000
    72 H3B     -0.9725  11.2370   7.7271   H         1 RES1   0.0000
    73 C6B     -2.9145  13.3913   7.5020   C.3       1 RES1   0.0000
    74 C9B     -4.4404  13.2979   7.6394   C.3       1 RES1   0.0000
    75 Cl3B    -4.8898  11.6143   8.1994   Cl        1 RES1   0.0000
    76 H12B    -4.9075  13.5656   6.7518   H         1 RES1   0.0000
    77 H15B    -4.7167  13.9968   8.4635   H         1 RES1   0.0000
    78 H6B     -2.4481  13.2799   8.4635   H         1 RES1   0.0000
    79 H9B     -2.6786  14.3544   7.0794   H         1 RES1   0.0000
    80 F1       1.2348   2.8628   5.9006   F         2 RES2   0.0000
    81 F2       0.4948   3.0631   3.9508   F         2 RES2   0.0000
    82 F3      -0.4016   1.6444   5.3968   F         2 RES2   0.0000
    83 F4      -0.6252   3.8250   5.6937   F         2 RES2   0.0000
    84 B1       0.0613   2.8463   5.1670   B         2 RES2  -1.0000
@<TRIPOS>BOND
     1     1    14    1
     2     2    23    1
     3     3    24    1
     4     4    25    1
     5     5     8    1
     6     6     9    1
     7     7    10    1
     8     8    11    2
     9     9    12    2
    10    10    13    2
    11    11    14    1
    12    12    15    1
    13    13    16    1
    14    14    17    1
    15    15     1    1
    16    16     1    1
    17    17     5    2
    18    18     6    2
    19    19     7    2
    20    20     5    1
    21    21     6    1
    22    22     7    1
    23    23    20    1
    24    24    21    1
    25    25    22    1
    26    26    17    1
    27    27    18    1
    28    28    19    1
    29    29    20    1
    30    30    21    1
    31    31    22    1
    32    32    20    1
    33    33    21    1
    34    34    22    1
    35    35    23    1
    36    36    24    1
    37    37    25    1
    38    38    23    1
    39    39    24    1
    40    40    25    1
    41    41     1    1
    42    42    41    1
    43    43    42    2
    44    44    43    1
    45    45    41    1
    46    46    45    1
    47    47    44    1
    48    48    47    1
    49    49    48    1
    50    50    48    1
    51    51    48    1
    52    52    47    1
    53    53    47    1
    54    54     1    1
    55    55    54    1
    56    56    55    2
    57    57    56    1
    58    58    54    1
    59    59    58    1
    60    60    57    1
    61    61    60    1
    62    62    61    1
    63    63    61    1
    64    64    61    1
    65    65    60    1
    66    66    60    1
    67    67     1    1
    68    68    67    1
    69    69    68    2
    70    70    69    1
    71    71    67    1
    72    72    71    1
    73    73    70    1
    74    74    73    1
    75    75    74    1
    76    76    74    1
    77    77    74    1
    78    78    73    1
    79    79    73    1
    80    15    18    1
    81    16    19    1
    82    44    45    2
    83    57    58    2
    84    70    71    2
    85    80    84    1
    86    81    84    1
    87    82    84    1
    88    83    84    1
@<TRIPOS>SUBSTRUCTURE
     1 RES1        1 GROUP             0 ****  ****    0  
     2 RES2       80 GROUP             0 ****  ****    0  
@<TRIPOS>CRYSIN
   12.1966   17.9677   10.5667   90.0000   90.5550   90.0000    14     1
