@<TRIPOS>MOLECULE
RAKZIM01
    84    88     2     0     0
SMALL
USER_CHARGES
****
Generated from the CSD

@<TRIPOS>ATOM
     1 Fe1      0.0000   0.0000   0.0000   Fe        1 RES1   2.0000
     2 Cl1      4.7861   2.0204   2.5516   Cl        1 RES1   0.0000
     3 Cl2     -4.7172  -1.7360   3.8730   Cl        1 RES1   0.0000
     4 Cl3      5.1225  -3.7721   0.6239   Cl        1 RES1   0.0000
     5 N1       1.0736   1.4130   0.3716   N.2       1 RES1   0.0000
     6 N2       1.9089   1.9554  -0.5865   N.2       1 RES1   0.0000
     7 N3       2.5716   2.8927   0.0789   N.2       1 RES1   0.0000
     8 N4       2.1151   2.8559   1.3588   N.pl3     1 RES1   0.0000
     9 N5      -1.1812   0.3932   1.5166   N.2       1 RES1   0.0000
    10 N6       1.1526  -1.1058   1.0796   N.2       1 RES1   0.0000
    11 N7      -2.1125   1.3551   1.4554   N.2       1 RES1   0.0000
    12 N8       2.1057  -0.5090   1.7813   N.2       1 RES1   0.0000
    13 N9      -2.7236   1.3428   2.5402   N.2       1 RES1   0.0000
    14 N10     -2.2730   0.3985   3.2315   N.pl3     1 RES1   0.0000
    15 N11      2.8297  -1.3253   2.3813   N.2       1 RES1   0.0000
    16 N12      2.3910  -2.4662   2.1083   N.pl3     1 RES1   0.0000
    17 C1       1.2511   1.9642   1.4876   C.2       1 RES1   0.0000
    18 C2       2.5517   3.6598   2.5526   C.3       1 RES1   0.0000
    19 C3       3.2719   2.6084   3.3322   C.3       1 RES1   0.0000
    20 C4      -1.3618  -0.1755   2.6014   C.2       1 RES1   0.0000
    21 C5       1.3407  -2.3697   1.2488   C.2       1 RES1   0.0000
    22 C6      -2.7586   0.0860   4.6558   C.3       1 RES1   0.0000
    23 C7       3.1518  -3.6703   2.6928   C.3       1 RES1   0.0000
    24 C8      -4.1874  -0.1720   4.7398   C.3       1 RES1   0.0000
    25 C9       3.8339  -4.5936   1.6059   C.3       1 RES1   0.0000
    26 H1       0.7532   1.7079   2.4239   H         1 RES1   0.0000
    27 H2       3.2310   4.4725   2.2682   H         1 RES1   0.0000
    28 H3       1.7127   4.0723   3.0966   H         1 RES1   0.0000
    29 H4       2.5987   1.7799   3.4360   H         1 RES1   0.0000
    30 H5       3.5042   3.0296   4.3360   H         1 RES1   0.0000
    31 H6      -0.7823  -0.9970   2.9564   H         1 RES1   0.0000
    32 H7       0.8373  -3.0753   0.8678   H         1 RES1   0.0000
    33 H8      -2.2490  -0.7653   5.0170   H         1 RES1   0.0000
    34 H9      -2.5420   0.9215   5.3326   H         1 RES1   0.0000
    35 H10      3.9547  -3.2596   3.3125   H         1 RES1   0.0000
    36 H11      2.4673  -4.2724   3.2710   H         1 RES1   0.0000
    37 H12     -4.6732   0.7144   4.3703   H         1 RES1   0.0000
    38 H13     -4.3818  -0.2440   5.7976   H         1 RES1   0.0000
    39 H14      3.0519  -5.0254   1.0132   H         1 RES1   0.0000
    40 H15      4.3542  -5.3993   2.1353   H         1 RES1   0.0000
    41 Cl1B    -4.7861  -2.0204  -2.5516   Cl        1 RES1   0.0000
    42 Cl2B     4.7172   1.7360  -3.8730   Cl        1 RES1   0.0000
    43 Cl3B    -5.1225   3.7721  -0.6239   Cl        1 RES1   0.0000
    44 N1B     -1.0736  -1.4130  -0.3716   N.2       1 RES1   0.0000
    45 N2B     -1.9089  -1.9554   0.5865   N.2       1 RES1   0.0000
    46 N3B     -2.5716  -2.8927  -0.0789   N.2       1 RES1   0.0000
    47 N4B     -2.1151  -2.8559  -1.3588   N.pl3     1 RES1   0.0000
    48 N5B      1.1812  -0.3932  -1.5166   N.2       1 RES1   0.0000
    49 N6B     -1.1526   1.1058  -1.0796   N.2       1 RES1   0.0000
    50 N7B      2.1125  -1.3551  -1.4554   N.2       1 RES1   0.0000
    51 N8B     -2.1057   0.5090  -1.7813   N.2       1 RES1   0.0000
    52 N9B      2.7236  -1.3428  -2.5402   N.2       1 RES1   0.0000
    53 N10B     2.2730  -0.3985  -3.2315   N.pl3     1 RES1   0.0000
    54 N11B    -2.8297   1.3253  -2.3813   N.2       1 RES1   0.0000
    55 N12B    -2.3910   2.4662  -2.1083   N.pl3     1 RES1   0.0000
    56 C1B     -1.2511  -1.9642  -1.4876   C.2       1 RES1   0.0000
    57 C2B     -2.5517  -3.6598  -2.5526   C.3       1 RES1   0.0000
    58 C3B     -3.2719  -2.6084  -3.3322   C.3       1 RES1   0.0000
    59 C4B      1.3618   0.1755  -2.6014   C.2       1 RES1   0.0000
    60 C5B     -1.3407   2.3697  -1.2488   C.2       1 RES1   0.0000
    61 C6B      2.7586  -0.0860  -4.6558   C.3       1 RES1   0.0000
    62 C7B     -3.1518   3.6703  -2.6928   C.3       1 RES1   0.0000
    63 C8B      4.1874   0.1720  -4.7398   C.3       1 RES1   0.0000
    64 C9B     -3.8339   4.5936  -1.6059   C.3       1 RES1   0.0000
    65 H1B     -0.7532  -1.7079  -2.4239   H         1 RES1   0.0000
    66 H2B     -3.2310  -4.4725  -2.2682   H         1 RES1   0.0000
    67 H3B     -1.7127  -4.0723  -3.0966   H         1 RES1   0.0000
    68 H4B     -2.5987  -1.7799  -3.4360   H         1 RES1   0.0000
    69 H5B     -3.5042  -3.0296  -4.3360   H         1 RES1   0.0000
    70 H6B      0.7823   0.9970  -2.9564   H         1 RES1   0.0000
    71 H7B     -0.8373   3.0753  -0.8678   H         1 RES1   0.0000
    72 H8B      2.2490   0.7653  -5.0170   H         1 RES1   0.0000
    73 H9B      2.5420  -0.9215  -5.3326   H         1 RES1   0.0000
    74 H10B    -3.9547   3.2596  -3.3125   H         1 RES1   0.0000
    75 H11B    -2.4673   4.2724  -3.2710   H         1 RES1   0.0000
    76 H12B     4.6732  -0.7144  -4.3703   H         1 RES1   0.0000
    77 H13B     4.3818   0.2440  -5.7976   H         1 RES1   0.0000
    78 H14B    -3.0519   5.0254  -1.0132   H         1 RES1   0.0000
    79 H15B    -4.3542   5.3993  -2.1353   H         1 RES1   0.0000
    80 B1       0.0808  12.0220  -0.1952   B         2 RES2  -1.0000
    81 F1      -0.3084  11.9536  -1.5664   F         2 RES2   0.0000
    82 F2      -0.1443  10.8126   0.0862   F         2 RES2   0.0000
    83 F3       1.4002  12.1414  -0.1547   F         2 RES2   0.0000
    84 F4      -0.6628  12.8523   0.5450   F         2 RES2   0.0000
@<TRIPOS>BOND
     1     1     5    1
     2     2    19    1
     3     3    24    1
     4     4    25    1
     5     5     6    1
     6     6     7    2
     7     7     8    1
     8     8    17    2
     9     9     1    1
    10    10     1    1
    11    11     9    1
    12    12    10    1
    13    13    11    2
    14    14    13    1
    15    15    12    2
    16    16    15    1
    17    17     5    1
    18    18     8    1
    19    19    18    1
    20    20     9    1
    21    21    10    1
    22    22    14    1
    23    23    16    1
    24    24    22    1
    25    25    23    1
    26    26    17    1
    27    27    18    1
    28    28    18    1
    29    29    19    1
    30    30    19    1
    31    31    20    1
    32    32    21    1
    33    33    22    1
    34    34    22    1
    35    35    23    1
    36    36    23    1
    37    37    24    1
    38    38    24    1
    39    39    25    1
    40    40    25    1
    41    41    58    1
    42    42    63    1
    43    43    64    1
    44    44     1    1
    45    45    44    1
    46    46    45    2
    47    47    46    1
    48    48     1    1
    49    49     1    1
    50    50    48    1
    51    51    49    1
    52    52    50    2
    53    53    52    1
    54    54    51    2
    55    55    54    1
    56    56    44    1
    57    57    47    1
    58    58    57    1
    59    59    48    1
    60    60    49    1
    61    61    53    1
    62    62    55    1
    63    63    61    1
    64    64    62    1
    65    65    56    1
    66    66    57    1
    67    67    57    1
    68    68    58    1
    69    69    58    1
    70    70    59    1
    71    71    60    1
    72    72    61    1
    73    73    61    1
    74    74    62    1
    75    75    62    1
    76    76    63    1
    77    77    63    1
    78    78    64    1
    79    79    64    1
    80    14    20    2
    81    16    21    2
    82    47    56    2
    83    53    59    2
    84    55    60    2
    85    80    81    1
    86    82    80    1
    87    83    80    1
    88    84    80    1
@<TRIPOS>SUBSTRUCTURE
     1 RES1        1 GROUP             0 ****  ****    0  
     2 RES2       80 GROUP             0 ****  ****    0  
@<TRIPOS>CRYSIN
   11.8283   17.5530   10.3817   90.0000   90.7890   90.0000    14     1
