@<TRIPOS>MOLECULE
RALKAQ
    79    85     3     0     0
SMALL
NO_CHARGES
****
Generated from the CSD

@<TRIPOS>ATOM
     1 Fe1      6.5095  -3.5551  -1.8617   Fe        1 RES1   0.0000
     2 S1       7.8871  -2.0254  -0.8532   S.3       1 RES1   0.0000
     3 S2       6.2070  -4.5466   0.0830   S.3       1 RES1   0.0000
     4 S3       6.5254  -2.3419  -3.6983   S.3       1 RES1   0.0000
     5 S4       5.0748  -5.0574  -2.8617   S.3       1 RES1   0.0000
     6 P1       8.1974  -4.8522  -2.5086   P.3       1 RES1   0.0000
     7 N1       4.9156  -2.4472  -1.3389   N.ar      1 RES1   0.0000
     8 C1       7.7283  -2.4114   0.8390   C.ar      1 RES1   0.0000
     9 C2       8.3619  -1.6250   1.8135   C.ar      1 RES1   0.0000
    10 C3       8.2402  -1.9231   3.1360   C.ar      1 RES1   0.0000
    11 C4       7.4959  -2.9957   3.5867   C.ar      1 RES1   0.0000
    12 C5       6.8693  -3.7961   2.6391   C.ar      1 RES1   0.0000
    13 C6       6.9698  -3.4903   1.2957   C.ar      1 RES1   0.0000
    14 C7       4.4593  -4.1112   0.3392   C.3       1 RES1   0.0000
    15 C8       4.7117  -4.2827  -4.3841   C.ar      1 RES1   0.0000
    16 C9       3.8168  -4.8582  -5.2886   C.ar      1 RES1   0.0000
    17 C10      3.5650  -4.2992  -6.5174   C.ar      1 RES1   0.0000
    18 C11      4.1862  -3.1526  -6.8997   C.ar      1 RES1   0.0000
    19 C12      5.0801  -2.5448  -6.0369   C.ar      1 RES1   0.0000
    20 C13      5.3415  -3.1094  -4.7858   C.ar      1 RES1   0.0000
    21 C14      5.5783  -0.9060  -3.0943   C.3       1 RES1   0.0000
    22 C15      4.1334  -2.8156  -0.3035   C.ar      1 RES1   0.0000
    23 C16      3.0474  -2.0421   0.0818   C.ar      1 RES1   0.0000
    24 C17      2.7347  -0.8873  -0.6055   C.ar      1 RES1   0.0000
    25 C18      3.5283  -0.5216  -1.6736   C.ar      1 RES1   0.0000
    26 C19      4.6231  -1.3140  -1.9979   C.ar      1 RES1   0.0000
    27 C20      8.3461  -5.1081  -4.3142   C.3       1 RES1   0.0000
    28 C21      8.1170  -6.5701  -1.9042   C.3       1 RES1   0.0000
    29 C22      9.8949  -4.3760  -2.0887   C.3       1 RES1   0.0000
    30 H17      8.8867  -0.9254   1.5620   H         1 RES1   0.0000
    31 H18      8.5165  -1.3839   3.7340   H         1 RES1   0.0000
    32 H19      7.4393  -3.1457   4.4630   H         1 RES1   0.0000
    33 H20      6.4917  -4.6315   2.8265   H         1 RES1   0.0000
    34 H21      4.2967  -4.1593   1.2794   H         1 RES1   0.0000
    35 H22      4.0121  -4.7833  -0.2083   H         1 RES1   0.0000
    36 H23      3.3501  -5.6453  -4.9688   H         1 RES1   0.0000
    37 H24      3.1146  -4.7140  -7.1854   H         1 RES1   0.0000
    38 H25      4.0984  -2.7651  -7.6912   H         1 RES1   0.0000
    39 H26      5.6446  -1.7796  -6.3374   H         1 RES1   0.0000
    40 H27      5.1592  -0.5394  -3.7191   H         1 RES1   0.0000
    41 H28      6.2529  -0.2441  -2.8117   H         1 RES1   0.0000
    42 H29      2.5180  -2.3636   0.8033   H         1 RES1   0.0000
    43 H30      1.8512  -0.3004  -0.4017   H         1 RES1   0.0000
    44 H31      3.3647   0.2070  -2.1869   H         1 RES1   0.0000
    45 H32      8.9580  -5.6757  -4.5076   H         1 RES1   0.0000
    46 H33      7.6334  -5.4478  -4.6415   H         1 RES1   0.0000
    47 H34      8.6416  -4.2387  -4.9093   H         1 RES1   0.0000
    48 H35      7.2796  -6.8976  -2.2464   H         1 RES1   0.0000
    49 H36      8.8211  -7.1068  -2.1869   H         1 RES1   0.0000
    50 H37      8.2318  -6.6187  -0.9819   H         1 RES1   0.0000
    51 H38     10.0842  -3.6474  -2.5141   H         1 RES1   0.0000
    52 H39     10.0032  -4.2386  -1.2199   H         1 RES1   0.0000
    53 H40     10.8784  -4.9165  -2.3951   H         1 RES1   0.0000
    54 O1       2.3314  -0.1148  -5.4597   O.3       2 RES2   0.0000
    55 C23      1.4772  -1.3510  -5.0833   C.3       2 RES2   0.0000
    56 H1       2.0298  -2.1327  -4.9405   H         2 RES2   0.0000
    57 H2       0.9482  -1.1837  -4.2859   H         2 RES2   0.0000
    58 C24      0.6540  -1.5104  -6.1991   C.3       2 RES2   0.0000
    59 H3      -0.2579  -1.6626  -5.9164   H         2 RES2   0.0000
    60 H4       0.9496  -2.2826  -6.7108   H         2 RES2   0.0000
    61 C25      0.7219  -0.3194  -7.0262   C.3       2 RES2   0.0000
    62 H5       1.1313  -0.5302  -7.8831   H         2 RES2   0.0000
    63 H6      -0.1655   0.0287  -7.1839   H         2 RES2   0.0000
    64 C26      1.4940   0.6021  -6.3389   C.3       2 RES2   0.0000
    65 H7       0.9236   1.2076  -5.8405   H         2 RES2   0.0000
    66 H8       2.0271   1.1222  -6.9607   H         2 RES2   0.0000
    67 O2       2.9182  -1.6913   5.0937   O.3       3 RES3   0.0000
    68 C27      3.6383  -2.6167   4.3395   C.3       3 RES3   0.0000
    69 H9       3.1338  -2.8726   3.5510   H         3 RES3   0.0000
    70 H10      4.4835  -2.2361   4.0568   H         3 RES3   0.0000
    71 C28      3.8527  -3.7129   5.1517   C.3       3 RES3   0.0000
    72 H11      3.8048  -4.5263   4.6251   H         3 RES3   0.0000
    73 H12      4.7307  -3.6595   5.5549   H         3 RES3   0.0000
    74 C29      2.9224  -3.7355   6.0964   C.3       3 RES3   0.0000
    75 H13      3.3242  -3.7776   6.9786   H         3 RES3   0.0000
    76 H14      2.3234  -4.4880   5.9819   H         3 RES3   0.0000
    77 C30      2.2358  -2.4693   5.8867   C.3       3 RES3   0.0000
    78 H15      1.3633  -2.6422   5.4999   H         3 RES3   0.0000
    79 H16      2.1065  -2.0317   6.7406   H         3 RES3   0.0000
@<TRIPOS>BOND
     1     1     2    1
     2     2     8    1
     3     3     1    1
     4     4     1    1
     5     5     1    1
     6     6     1    1
     7     7     1    1
     8     8     9   ar
     9     9    10   ar
    10    10    11   ar
    11    11    12   ar
    12    12    13   ar
    13    13     3    1
    14    14     3    1
    15    15     5    1
    16    16    15   ar
    17    17    16   ar
    18    18    17   ar
    19    19    18   ar
    20    20     4    1
    21    21     4    1
    22    22     7   ar
    23    23    22   ar
    24    24    23   ar
    25    25    24   ar
    26    26     7   ar
    27    27     6    1
    28    28     6    1
    29    29     6    1
    30    30     9    1
    31    31    10    1
    32    32    11    1
    33    33    12    1
    34    34    14    1
    35    35    14    1
    36    36    16    1
    37    37    17    1
    38    38    18    1
    39    39    19    1
    40    40    21    1
    41    41    21    1
    42    42    23    1
    43    43    24    1
    44    44    25    1
    45    45    27    1
    46    46    27    1
    47    47    27    1
    48    48    28    1
    49    49    28    1
    50    50    28    1
    51    51    29    1
    52    52    29    1
    53    53    29    1
    54     8    13   ar
    55    14    22    1
    56    15    20   ar
    57    19    20   ar
    58    21    26    1
    59    25    26   ar
    60    54    55    1
    61    55    56    1
    62    57    55    1
    63    58    55    1
    64    59    58    1
    65    60    58    1
    66    61    58    1
    67    62    61    1
    68    63    61    1
    69    64    54    1
    70    65    64    1
    71    66    64    1
    72    61    64    1
    73    67    68    1
    74    68    69    1
    75    70    68    1
    76    71    68    1
    77    72    71    1
    78    73    71    1
    79    74    71    1
    80    75    74    1
    81    76    74    1
    82    77    67    1
    83    78    77    1
    84    79    77    1
    85    74    77    1
@<TRIPOS>SUBSTRUCTURE
     1 RES1        1 GROUP             0 ****  ****    0  
     2 RES2       54 GROUP             0 ****  ****    0  
     3 RES3       67 GROUP             0 ****  ****    0  
@<TRIPOS>CRYSIN
    8.6780   12.1740   15.4320  103.5100   96.4200   93.6500     2     1
