@<TRIPOS>MOLECULE
RAMNAU
    96    96     1     0     0
SMALL
NO_CHARGES
****
Generated from the CSD

@<TRIPOS>ATOM
     1 Sb1      5.1692   5.7294   5.0062   Sb        1 RES1   0.0000
     2 Sb2      3.6558   8.1220   4.5136   Sb        1 RES1   0.0000
     3 Sb3      5.2067   8.6919   6.8457   Sb        1 RES1   0.0000
     4 Fe1      4.9630   6.1287   7.6778   Fe        1 RES1   0.0000
     5 Si1      5.0704   2.5690   4.2466   Si        1 RES1   0.0000
     6 Si2      2.3676   4.1975   3.5675   Si        1 RES1   0.0000
     7 Si3      2.6720  10.8659   7.6495   Si        1 RES1   0.0000
     8 Si4      3.6015  10.0754   1.8601   Si        1 RES1   0.0000
     9 Si5      6.4745   8.6437   2.4524   Si        1 RES1   0.0000
    10 Si6      5.2445  10.5272   9.5475   Si        1 RES1   0.0000
    11 C1       3.8517   3.9542   4.6721   C.3       1 RES1   0.0000
    12 H1       3.4819   3.7206   5.5731   H         1 RES1   0.0000
    13 C2       4.8442   9.3384   3.0827   C.3       1 RES1   0.0000
    14 H2       5.1258  10.1267   3.6292   H         1 RES1   0.0000
    15 C3       3.9812   9.7307   8.3805   C.3       1 RES1   0.0000
    16 H3       3.5016   9.0252   8.9019   H         1 RES1   0.0000
    17 C4       3.2288   6.4099   7.3293   C.1       1 RES1   0.0000
    18 O1       2.1055   6.5693   7.1875   O.2       1 RES1   0.0000
    19 C5       6.7679   6.2051   7.6171   C.1       1 RES1   0.0000
    20 O2       7.9006   6.2356   7.5942   O.2       1 RES1   0.0000
    21 C6       4.7826   6.5892   9.4129   C.1       1 RES1   0.0000
    22 O3       4.5704   6.8439  10.5080   O.2       1 RES1   0.0000
    23 C7       4.8393   4.3590   7.9383   C.1       1 RES1   0.0000
    24 O4       4.7647   3.2458   8.1782   O.2       1 RES1   0.0000
    25 C8       6.5669   2.5338   5.3666   C.3       1 RES1   0.0000
    26 H4       7.2015   1.8604   5.0433   H         1 RES1   0.0000
    27 H5       6.2871   2.3063   6.2781   H         1 RES1   0.0000
    28 H6       6.9962   3.4145   5.3666   H         1 RES1   0.0000
    29 C9       4.2962   0.8707   4.4718   C.3       1 RES1   0.0000
    30 H7       3.6480   0.7105   3.7543   H         1 RES1   0.0000
    31 H8       3.8410   0.8318   5.3374   H         1 RES1   0.0000
    32 H9       4.9963   0.1862   4.4385   H         1 RES1   0.0000
    33 C10      5.6819   2.7766   2.5279   C.3       1 RES1   0.0000
    34 H10      6.0115   3.6917   2.4069   H         1 RES1   0.0000
    35 H11      4.9507   2.6063   1.8980   H         1 RES1   0.0000
    36 H12      6.4099   2.1418   2.3631   H         1 RES1   0.0000
    37 C11      1.5923   2.5523   3.0973   C.3       1 RES1   0.0000
    38 H13      1.4380   2.0216   3.9066   H         1 RES1   0.0000
    39 H14      2.1959   2.0660   2.4966   H         1 RES1   0.0000
    40 H15      0.7389   2.7116   2.6426   H         1 RES1   0.0000
    41 C12      2.8161   5.0684   1.9815   C.3       1 RES1   0.0000
    42 H16      1.9984   5.3728   1.5330   H         1 RES1   0.0000
    43 H17      3.2985   4.4500   1.3933   H         1 RES1   0.0000
    44 H18      3.3854   5.8403   2.1817   H         1 RES1   0.0000
    45 C13      1.0357   5.1284   4.4697   C.3       1 RES1   0.0000
    46 H19      0.8747   4.7070   5.3395   H         1 RES1   0.0000
    47 H20      0.2109   5.1132   3.9400   H         1 RES1   0.0000
    48 H21      1.3201   6.0566   4.6053   H         1 RES1   0.0000
    49 C14      6.2628   7.0307   1.5539   C.3       1 RES1   0.0000
    50 H22      7.1387   6.7058   1.2577   H         1 RES1   0.0000
    51 H23      5.6817   7.1634   0.7759   H         1 RES1   0.0000
    52 H24      5.8572   6.3729   2.1567   H         1 RES1   0.0000
    53 C15      7.3330   9.8140   1.2535   C.3       1 RES1   0.0000
    54 H25      8.2485   9.5028   1.0908   H         1 RES1   0.0000
    55 H26      7.3582  10.7160   1.6373   H         1 RES1   0.0000
    56 H27      6.8407   9.8339   0.4067   H         1 RES1   0.0000
    57 C16      7.6782   8.4407   3.8690   C.3       1 RES1   0.0000
    58 H28      7.3474   7.7531   4.4823   H         1 RES1   0.0000
    59 H29      7.7652   9.2916   4.3467   H         1 RES1   0.0000
    60 H30      8.5526   8.1728   3.5166   H         1 RES1   0.0000
    61 C17      2.8337   8.7644   0.7717   C.3       1 RES1   0.0000
    62 H31      2.3296   8.1325   1.3265   H         1 RES1   0.0000
    63 H32      3.5400   8.2840   0.2899   H         1 RES1   0.0000
    64 H33      2.2289   9.1877   0.1272   H         1 RES1   0.0000
    65 C18      4.3821  11.3760   0.7571   C.3       1 RES1   0.0000
    66 H34      3.6977  12.0172   0.4755   H         1 RES1   0.0000
    67 H35      4.7708  10.9440  -0.0313   H         1 RES1   0.0000
    68 H36      5.0856  11.8451   1.2535   H         1 RES1   0.0000
    69 C19      2.2397  10.9617   2.7824   C.3       1 RES1   0.0000
    70 H37      1.5586  11.2655   2.1462   H         1 RES1   0.0000
    71 H38      2.6141  11.7343   3.2538   H         1 RES1   0.0000
    72 H39      1.8318  10.3492   3.4310   H         1 RES1   0.0000
    73 C20      1.2184   9.8806   7.0289   C.3       1 RES1   0.0000
    74 H40      1.5136   9.2782   6.3156   H         1 RES1   0.0000
    75 H41      0.5359  10.4916   6.6806   H         1 RES1   0.0000
    76 H42      0.8415   9.3558   7.7652   H         1 RES1   0.0000
    77 C21      3.4068  11.8960   6.2572   C.3       1 RES1   0.0000
    78 H43      3.8931  11.3109   5.6398   H         1 RES1   0.0000
    79 H44      4.0220  12.5595   6.6327   H         1 RES1   0.0000
    80 H45      2.6870  12.3536   5.7754   H         1 RES1   0.0000
    81 C22      1.9767  12.0418   8.9457   C.3       1 RES1   0.0000
    82 H46      1.2604  12.5807   8.5474   H         1 RES1   0.0000
    83 H47      2.6893  12.6326   9.2669   H         1 RES1   0.0000
    84 H48      1.6180  11.5249   9.6966   H         1 RES1   0.0000
    85 C23      5.9143  12.1184   8.8561   C.3       1 RES1   0.0000
    86 H49      5.2029  12.7929   8.8394   H         1 RES1   0.0000
    87 H50      6.2402  11.9664   7.9446   H         1 RES1   0.0000
    88 H51      6.6509  12.4340   9.4192   H         1 RES1   0.0000
    89 C24      4.4458  10.8158  11.2171   C.3       1 RES1   0.0000
    90 H52      5.1050  11.2026  11.8324   H         1 RES1   0.0000
    91 H53      4.1235   9.9639  11.5759   H         1 RES1   0.0000
    92 H54      3.6914  11.4338  11.1149   H         1 RES1   0.0000
    93 C25      6.7567   9.4686   9.8697   C.3       1 RES1   0.0000
    94 H55      7.2072   9.2737   9.0229   H         1 RES1   0.0000
    95 H56      6.4836   8.6289  10.2952   H         1 RES1   0.0000
    96 H57      7.3721   9.9493  10.4642   H         1 RES1   0.0000
@<TRIPOS>BOND
     1     1     2    1
     2     2     3    1
     3     3     4    1
     4     4     1    1
     5     5    11    1
     6     6    11    1
     7     7    15    1
     8     8    13    1
     9     9    13    1
    10    10    15    1
    11    11     1    1
    12    12    11    1
    13    13     2    1
    14    14    13    1
    15    15     3    1
    16    16    15    1
    17    17     4    1
    18    18    17    3
    19    19     4    1
    20    20    19    3
    21    21     4    1
    22    22    21    3
    23    23     4    1
    24    24    23    3
    25    25     5    1
    26    26    25    1
    27    27    25    1
    28    28    25    1
    29    29     5    1
    30    30    29    1
    31    31    29    1
    32    32    29    1
    33    33     5    1
    34    34    33    1
    35    35    33    1
    36    36    33    1
    37    37     6    1
    38    38    37    1
    39    39    37    1
    40    40    37    1
    41    41     6    1
    42    42    41    1
    43    43    41    1
    44    44    41    1
    45    45     6    1
    46    46    45    1
    47    47    45    1
    48    48    45    1
    49    49     9    1
    50    50    49    1
    51    51    49    1
    52    52    49    1
    53    53     9    1
    54    54    53    1
    55    55    53    1
    56    56    53    1
    57    57     9    1
    58    58    57    1
    59    59    57    1
    60    60    57    1
    61    61     8    1
    62    62    61    1
    63    63    61    1
    64    64    61    1
    65    65     8    1
    66    66    65    1
    67    67    65    1
    68    68    65    1
    69    69     8    1
    70    70    69    1
    71    71    69    1
    72    72    69    1
    73    73     7    1
    74    74    73    1
    75    75    73    1
    76    76    73    1
    77    77     7    1
    78    78    77    1
    79    79    77    1
    80    80    77    1
    81    81     7    1
    82    82    81    1
    83    83    81    1
    84    84    81    1
    85    85    10    1
    86    86    85    1
    87    87    85    1
    88    88    85    1
    89    89    10    1
    90    90    89    1
    91    91    89    1
    92    92    89    1
    93    93    10    1
    94    94    93    1
    95    95    93    1
    96    96    93    1
@<TRIPOS>SUBSTRUCTURE
     1 RES1        1 GROUP             0 ****  ****    0  
@<TRIPOS>CRYSIN
    8.5620   12.1950   21.2990   80.9600   80.9400   78.1200     2     1
