@<TRIPOS>MOLECULE
RANBIT
   192   201     4     0     0
SMALL
USER_CHARGES
****
Generated from the CSD

@<TRIPOS>ATOM
     1 Fe1     -2.2566   6.2612  14.9662   Fe        1 RES1   1.0000
     2 N1      -0.7756   7.2014  16.0470   N.3       1 RES1   0.0000
     3 H1      -0.0654   7.5993  15.6511   H         1 RES1   0.0000
     4 H2      -1.1660   7.8235  16.5553   H         1 RES1   0.0000
     5 H3      -0.4707   6.6556  16.6693   H         1 RES1   0.0000
     6 O1      -2.4376   5.1812  16.7649   O.co2     1 RES1   0.0000
     7 O2      -3.4744   7.0680  16.4535   O.co2     1 RES1   0.0000
     8 C1      -3.1527   6.1190  17.2269   C.2       1 RES1   0.0000
     9 C2      -3.5948   6.1401  18.6586   C.3       1 RES1   0.0000
    10 H4      -3.4688   7.0209  19.0190   H         1 RES1   0.0000
    11 H5      -3.0753   5.5099  19.1635   H         1 RES1   0.0000
    12 H6      -4.5241   5.9029  18.7106   H         1 RES1   0.0000
    13 B1      -2.4030   5.5755  11.4483   B         1 RES1  -1.0000
    14 C3      -2.3309   5.1812   9.8612   C.ar      1 RES1   0.0000
    15 C4      -2.9350   4.0283   9.3248   C.ar      1 RES1   0.0000
    16 H7      -3.4847   3.5174   9.8741   H         1 RES1   0.0000
    17 C5      -2.7434   3.6226   8.0099   C.ar      1 RES1   0.0000
    18 H8      -3.1568   2.8504   7.6978   H         1 RES1   0.0000
    19 C6      -1.9397   4.3648   7.1637   C.ar      1 RES1   0.0000
    20 H9      -1.8100   4.0985   6.2829   H         1 RES1   0.0000
    21 C7      -1.3294   5.5138   7.6473   C.ar      1 RES1   0.0000
    22 H10     -0.7876   6.0219   7.0892   H         1 RES1   0.0000
    23 C8      -1.5286   5.9026   8.9644   C.ar      1 RES1   0.0000
    24 H11     -1.1118   6.6778   9.2670   H         1 RES1   0.0000
    25 C9      -2.7159   7.1884  11.6656   C.3       1 RES1   0.0000
    26 H12     -3.6566   7.3503  11.4898   H         1 RES1   0.0000
    27 H13     -2.2028   7.6962  11.0176   H         1 RES1   0.0000
    28 P1      -2.3145   7.8005  13.3493   P.3       1 RES1   0.0000
    29 C10     -3.5128   9.2080  13.5756   C.3       1 RES1   0.0000
    30 H14     -3.2132   9.9350  13.0091   H         1 RES1   0.0000
    31 H15     -4.3707   8.9166  13.2291   H         1 RES1   0.0000
    32 C11     -3.7613   9.7917  14.9772   C.3       1 RES1   0.0000
    33 H16     -4.0524   9.0578  15.5579   H         1 RES1   0.0000
    34 C12     -4.8968  10.8120  14.9131   C.3       1 RES1   0.0000
    35 H17     -5.6895  10.3834  14.5541   H         1 RES1   0.0000
    36 H18     -4.6466  11.5291  14.3084   H         1 RES1   0.0000
    37 C13     -5.2235  11.4040  16.2851   C.3       1 RES1   0.0000
    38 H19     -5.8966  12.0964  16.1811   H         1 RES1   0.0000
    39 H20     -5.5938  10.7099  16.8508   H         1 RES1   0.0000
    40 C14     -4.0002  11.9970  16.9602   C.3       1 RES1   0.0000
    41 H21     -4.2306  12.2790  17.8594   H         1 RES1   0.0000
    42 H22     -3.7061  12.7772  16.4669   H         1 RES1   0.0000
    43 C15     -2.8668  10.9764  17.0214   C.3       1 RES1   0.0000
    44 H23     -3.1251  10.2422  17.5992   H         1 RES1   0.0000
    45 H24     -2.0772  11.3935  17.4017   H         1 RES1   0.0000
    46 C16     -2.5375  10.4373  15.6246   C.3       1 RES1   0.0000
    47 H25     -2.2235  11.1638  15.0649   H         1 RES1   0.0000
    48 H26     -1.8265   9.7828  15.6928   H         1 RES1   0.0000
    49 C17     -0.7156   8.7085  13.0900   C.3       1 RES1   0.0000
    50 H27     -0.5205   9.1989  13.9037   H         1 RES1   0.0000
    51 H28     -0.0164   8.0449  12.9818   H         1 RES1   0.0000
    52 C18     -0.6091   9.7045  11.9054   C.3       1 RES1   0.0000
    53 H29     -1.4630   9.6915  11.4255   H         1 RES1   0.0000
    54 C19      0.4829   9.2778  10.9299   C.3       1 RES1   0.0000
    55 H30      0.2901   8.3853  10.6048   H         1 RES1   0.0000
    56 H31      1.3330   9.2487  11.3966   H         1 RES1   0.0000
    57 C20      0.5960  10.2309   9.7398   C.3       1 RES1   0.0000
    58 H32      1.3261   9.9489   9.1674   H         1 RES1   0.0000
    59 H33     -0.2229  10.2007   9.2204   H         1 RES1   0.0000
    60 C21      0.8446  11.6614  10.2120   C.3       1 RES1   0.0000
    61 H34      1.7123  11.7145  10.6418   H         1 RES1   0.0000
    62 H35      0.8513  12.2569   9.4469   H         1 RES1   0.0000
    63 C22     -0.2332  12.1033  11.1912   C.3       1 RES1   0.0000
    64 H36     -1.0847  12.1490  10.7301   H         1 RES1   0.0000
    65 H37     -0.0223  12.9903  11.5203   H         1 RES1   0.0000
    66 C23     -0.3497  11.1438  12.3702   C.3       1 RES1   0.0000
    67 H38     -1.0755  11.4294  12.9465   H         1 RES1   0.0000
    68 H39      0.4703  11.1693  12.8870   H         1 RES1   0.0000
    69 C24     -3.5648   4.6902  12.2016   C.3       1 RES1   0.0000
    70 H40     -3.2917   3.7582  12.1996   H         1 RES1   0.0000
    71 H41     -4.3839   4.7544  11.6857   H         1 RES1   0.0000
    72 P2      -3.9248   5.1837  13.9255   P.3       1 RES1   0.0000
    73 C25     -4.4402   3.6068  14.7462   C.3       1 RES1   0.0000
    74 H42     -3.7013   2.9860  14.6617   H         1 RES1   0.0000
    75 H43     -4.5424   3.7969  15.6928   H         1 RES1   0.0000
    76 C26     -5.7117   2.8662  14.2912   C.3       1 RES1   0.0000
    77 H44     -6.3653   3.5368  14.0000   H         1 RES1   0.0000
    78 C27     -5.4670   1.9032  13.1283   C.3       1 RES1   0.0000
    79 H45     -5.1301   2.3994  12.3667   H         1 RES1   0.0000
    80 H46     -4.7906   1.2564  13.3849   H         1 RES1   0.0000
    81 C28     -6.7426   1.1634  12.7221   C.3       1 RES1   0.0000
    82 H47     -7.3847   1.7988  12.3699   H         1 RES1   0.0000
    83 H48     -6.5348   0.5286  12.0198   H         1 RES1   0.0000
    84 C29     -7.3582   0.4292  13.8972   C.3       1 RES1   0.0000
    85 H49     -6.7701  -0.2933  14.1687   H         1 RES1   0.0000
    86 H50     -8.2034   0.0387  13.6242   H         1 RES1   0.0000
    87 C30     -7.5911   1.3588  15.0777   C.3       1 RES1   0.0000
    88 H51     -7.9071   0.8413  15.8358   H         1 RES1   0.0000
    89 H52     -8.2779   2.0036  14.8480   H         1 RES1   0.0000
    90 C31     -6.3126   2.0969  15.4673   C.3       1 RES1   0.0000
    91 H53     -5.6622   1.4557  15.7956   H         1 RES1   0.0000
    92 H54     -6.5101   2.7176  16.1875   H         1 RES1   0.0000
    93 C32     -5.5174   6.1085  13.6827   C.3       1 RES1   0.0000
    94 H55     -5.3553   6.7829  13.0043   H         1 RES1   0.0000
    95 H56     -6.1577   5.4823  13.3094   H         1 RES1   0.0000
    96 C33     -6.2023   6.8065  14.8622   C.3       1 RES1   0.0000
    97 H57     -5.5515   7.4195  15.2640   H         1 RES1   0.0000
    98 C34     -6.6701   5.8451  15.9535   C.3       1 RES1   0.0000
    99 H58     -5.9091   5.3467  16.2903   H         1 RES1   0.0000
   100 H59     -7.2970   5.2111  15.5740   H         1 RES1   0.0000
   101 C35     -7.3400   6.5856  17.1098   C.3       1 RES1   0.0000
   102 H60     -7.6495   5.9417  17.7679   H         1 RES1   0.0000
   103 H61     -6.6924   7.1649  17.5398   H         1 RES1   0.0000
   104 C36     -8.5202   7.4192  16.6237   C.3       1 RES1   0.0000
   105 H62     -9.2129   6.8328  16.2839   H         1 RES1   0.0000
   106 H63     -8.8894   7.9204  17.3663   H         1 RES1   0.0000
   107 C37     -8.0855   8.3811  15.5266   C.3       1 RES1   0.0000
   108 H64     -7.4773   9.0384  15.8984   H         1 RES1   0.0000
   109 H65     -8.8621   8.8502  15.1853   H         1 RES1   0.0000
   110 C38     -7.3949   7.6467  14.3783   C.3       1 RES1   0.0000
   111 H66     -7.0845   8.2940  13.7270   H         1 RES1   0.0000
   112 H67     -8.0365   7.0652  13.9390   H         1 RES1   0.0000
   113 C39     -0.8934   5.2113  12.0410   C.3       1 RES1   0.0000
   114 H68     -0.2765   5.9029  11.7548   H         1 RES1   0.0000
   115 H69     -0.6009   4.3781  11.6407   H         1 RES1   0.0000
   116 P3      -0.7768   5.0503  13.8463   P.3       1 RES1   0.0000
   117 C40      1.0211   5.3873  14.1868   C.3       1 RES1   0.0000
   118 H70      1.1777   6.3374  14.0803   H         1 RES1   0.0000
   119 H71      1.2029   5.1668  15.1130   H         1 RES1   0.0000
   120 C41      2.0341   4.6233  13.2958   C.3       1 RES1   0.0000
   121 H72      1.5240   4.1760  12.5899   H         1 RES1   0.0000
   122 C42      3.0212   5.5769  12.6143   C.3       1 RES1   0.0000
   123 H73      2.5259   6.2295  12.0952   H         1 RES1   0.0000
   124 H74      3.5237   6.0551  13.2934   H         1 RES1   0.0000
   125 C43      3.9940   4.8363  11.6957   C.3       1 RES1   0.0000
   126 H75      3.5025   4.4445  10.9565   H         1 RES1   0.0000
   127 H76      4.6335   5.4684  11.3292   H         1 RES1   0.0000
   128 C44      4.7408   3.7385  12.4441   C.3       1 RES1   0.0000
   129 H77      5.2978   3.2434  11.8222   H         1 RES1   0.0000
   130 H78      5.3179   4.1373  13.1135   H         1 RES1   0.0000
   131 C45      3.7598   2.7879  13.1181   C.3       1 RES1   0.0000
   132 H79      4.2508   2.1254  13.6290   H         1 RES1   0.0000
   133 H80      3.2426   2.3219  12.4422   H         1 RES1   0.0000
   134 C46      2.8161   3.5481  14.0453   C.3       1 RES1   0.0000
   135 H81      3.3296   3.9629  14.7565   H         1 RES1   0.0000
   136 H82      2.1944   2.9252  14.4513   H         1 RES1   0.0000
   137 C47     -0.8732   3.2088  14.0729   C.3       1 RES1   0.0000
   138 H83     -1.5554   2.8809  13.4668   H         1 RES1   0.0000
   139 H84     -0.0281   2.8394  13.7736   H         1 RES1   0.0000
   140 C48     -1.1676   2.6122  15.4535   C.3       1 RES1   0.0000
   141 H85     -1.9537   3.0774  15.8085   H         1 RES1   0.0000
   142 C49     -0.0492   2.7577  16.4906   C.3       1 RES1   0.0000
   143 H86      0.7506   2.3136  16.1682   H         1 RES1   0.0000
   144 H87      0.1574   3.6973  16.6131   H         1 RES1   0.0000
   145 C50     -0.4670   2.1478  17.8321   C.3       1 RES1   0.0000
   146 H88      0.2714   2.2139  18.4585   H         1 RES1   0.0000
   147 H89     -1.2118   2.6512  18.1935   H         1 RES1   0.0000
   148 C51     -0.8725   0.6802  17.6869   C.3       1 RES1   0.0000
   149 H90     -0.0959   0.1550  17.4370   H         1 RES1   0.0000
   150 H91     -1.1963   0.3515  18.5404   H         1 RES1   0.0000
   151 C52     -1.9579   0.5078  16.6340   C.3       1 RES1   0.0000
   152 H92     -2.7763   0.9271  16.9439   H         1 RES1   0.0000
   153 H93     -2.1348  -0.4373  16.5055   H         1 RES1   0.0000
   154 C53     -1.5430   1.1308  15.3045   C.3       1 RES1   0.0000
   155 H94     -2.2738   1.0489  14.6714   H         1 RES1   0.0000
   156 H95     -0.7835   0.6448  14.9476   H         1 RES1   0.0000
   157 C54     10.8774  -0.0534   6.7114   C.ar      2 RES2   0.0000
   158 H96     10.6137  -0.0913   5.8204   H         2 RES2   0.0000
   159 C55      9.9219   0.0185   7.7084   C.ar      2 RES2   0.0000
   160 H97      9.0172   0.0304   7.4907   H         2 RES2   0.0000
   161 C56     10.3192   0.0711   9.0320   C.ar      2 RES2   0.0000
   162 H98      9.6825   0.1190   9.7070   H         2 RES2   0.0000
   163 C54B    11.6625   0.0534   9.3492   C.ar      2 RES2   0.0000
   164 H96B    11.9262   0.0913  10.2402   H         2 RES2   0.0000
   165 C55B    12.6180  -0.0185   8.3522   C.ar      2 RES2   0.0000
   166 H97B    13.5227  -0.0304   8.5699   H         2 RES2   0.0000
   167 C56B    12.2207  -0.0711   7.0286   C.ar      2 RES2   0.0000
   168 H98B    12.8574  -0.1190   6.3536   H         2 RES2   0.0000
   169 C57      0.4845   2.4863   9.6553   C.ar      3 RES3   0.0000
   170 H99      0.1183   3.2240   9.2220   H         3 RES3   0.0000
   171 C58      1.7276   2.0188   9.2898   C.ar      3 RES3   0.0000
   172 H100     2.2087   2.4519   8.6229   H         3 RES3   0.0000
   173 C59      2.2649   0.9008   9.9149   C.ar      3 RES3   0.0000
   174 H101     3.0995   0.5784   9.6589   H         3 RES3   0.0000
   175 C60      1.5533   0.2698  10.9183   C.ar      3 RES3   0.0000
   176 H102     1.9079  -0.4788  11.3388   H         3 RES3   0.0000
   177 C61      0.3146   0.7536  11.2970   C.ar      3 RES3   0.0000
   178 H103    -0.1610   0.3349  11.9780   H         3 RES3   0.0000
   179 C62     -0.2159   1.8594  10.6636   C.ar      3 RES3   0.0000
   180 H104    -1.0494   2.1835  10.9180   H         3 RES3   0.0000
   181 C63     -4.3229   2.7793  19.2841   C.ar      4 RES4   0.0000
   182 H105    -3.8900   3.0220  18.4970   H         4 RES4   0.0000
   183 C64     -3.6152   2.2048  20.3120   C.ar      4 RES4   0.0000
   184 H106    -2.7005   2.0617  20.2235   H         4 RES4   0.0000
   185 C65     -4.2582   1.8392  21.4743   C.ar      4 RES4   0.0000
   186 H107    -3.7756   1.4474  22.1669   H         4 RES4   0.0000
   187 C66     -5.6078   2.0471  21.6187   C.ar      4 RES4   0.0000
   188 H108    -6.0378   1.8044  22.4062   H         4 RES4   0.0000
   189 C67     -6.3176   2.6171  20.5931   C.ar      4 RES4   0.0000
   190 H109    -7.2329   2.7508  20.6829   H         4 RES4   0.0000
   191 C68     -5.6768   2.9930  19.4251   C.ar      4 RES4   0.0000
   192 H110    -6.1594   3.3901  18.7363   H         4 RES4   0.0000
@<TRIPOS>BOND
     1     1     2    1
     2     2     3    1
     3     4     2    1
     4     5     2    1
     5     6     1    1
     6     7     1    1
     7     8     6   un
     8     9     8    1
     9    10     9    1
    10    11     9    1
    11    12     9    1
    12    13    14    1
    13    14    15   ar
    14    15    16    1
    15    17    15   ar
    16    18    17    1
    17    19    17   ar
    18    20    19    1
    19    21    19   ar
    20    22    21    1
    21    23    14   ar
    22    24    23    1
    23    25    13    1
    24    26    25    1
    25    27    25    1
    26    28     1    1
    27    29    28    1
    28    30    29    1
    29    31    29    1
    30    32    29    1
    31    33    32    1
    32    34    32    1
    33    35    34    1
    34    36    34    1
    35    37    34    1
    36    38    37    1
    37    39    37    1
    38    40    37    1
    39    41    40    1
    40    42    40    1
    41    43    40    1
    42    44    43    1
    43    45    43    1
    44    46    32    1
    45    47    46    1
    46    48    46    1
    47    49    28    1
    48    50    49    1
    49    51    49    1
    50    52    49    1
    51    53    52    1
    52    54    52    1
    53    55    54    1
    54    56    54    1
    55    57    54    1
    56    58    57    1
    57    59    57    1
    58    60    57    1
    59    61    60    1
    60    62    60    1
    61    63    60    1
    62    64    63    1
    63    65    63    1
    64    66    52    1
    65    67    66    1
    66    68    66    1
    67    69    13    1
    68    70    69    1
    69    71    69    1
    70    72     1    1
    71    73    72    1
    72    74    73    1
    73    75    73    1
    74    76    73    1
    75    77    76    1
    76    78    76    1
    77    79    78    1
    78    80    78    1
    79    81    78    1
    80    82    81    1
    81    83    81    1
    82    84    81    1
    83    85    84    1
    84    86    84    1
    85    87    84    1
    86    88    87    1
    87    89    87    1
    88    90    76    1
    89    91    90    1
    90    92    90    1
    91    93    72    1
    92    94    93    1
    93    95    93    1
    94    96    93    1
    95    97    96    1
    96    98    96    1
    97    99    98    1
    98   100    98    1
    99   101    98    1
   100   102   101    1
   101   103   101    1
   102   104   101    1
   103   105   104    1
   104   106   104    1
   105   107   104    1
   106   108   107    1
   107   109   107    1
   108   110    96    1
   109   111   110    1
   110   112   110    1
   111   113    13    1
   112   114   113    1
   113   115   113    1
   114   116     1    1
   115   117   116    1
   116   118   117    1
   117   119   117    1
   118   120   117    1
   119   121   120    1
   120   122   120    1
   121   123   122    1
   122   124   122    1
   123   125   122    1
   124   126   125    1
   125   127   125    1
   126   128   125    1
   127   129   128    1
   128   130   128    1
   129   131   128    1
   130   132   131    1
   131   133   131    1
   132   134   120    1
   133   135   134    1
   134   136   134    1
   135   137   116    1
   136   138   137    1
   137   139   137    1
   138   140   137    1
   139   141   140    1
   140   142   140    1
   141   143   142    1
   142   144   142    1
   143   145   142    1
   144   146   145    1
   145   147   145    1
   146   148   145    1
   147   149   148    1
   148   150   148    1
   149   151   148    1
   150   152   151    1
   151   153   151    1
   152   154   140    1
   153   155   154    1
   154   156   154    1
   155     7     8   un
   156    21    23   ar
   157    25    28    1
   158    43    46    1
   159    63    66    1
   160    69    72    1
   161    87    90    1
   162   107   110    1
   163   113   116    1
   164   131   134    1
   165   151   154    1
   166   157   158    1
   167   159   157   ar
   168   160   159    1
   169   161   159   ar
   170   162   161    1
   171   163   161   ar
   172   164   163    1
   173   165   163   ar
   174   166   165    1
   175   167   157   ar
   176   168   167    1
   177   165   167   ar
   178   169   170    1
   179   171   169   ar
   180   172   171    1
   181   173   171   ar
   182   174   173    1
   183   175   173   ar
   184   176   175    1
   185   177   175   ar
   186   178   177    1
   187   179   169   ar
   188   180   179    1
   189   177   179   ar
   190   181   182    1
   191   183   181   ar
   192   184   183    1
   193   185   183   ar
   194   186   185    1
   195   187   185   ar
   196   188   187    1
   197   189   187   ar
   198   190   189    1
   199   191   181   ar
   200   192   191    1
   201   189   191   ar
@<TRIPOS>SUBSTRUCTURE
     1 RES1        1 GROUP             0 ****  ****    0  
     2 RES2      157 GROUP             0 ****  ****    0  
     3 RES3      169 GROUP             0 ****  ****    0  
     4 RES4      181 GROUP             0 ****  ****    0  
@<TRIPOS>CRYSIN
   14.5464   27.6742   17.3460   90.0000  112.1960   90.0000   231     1
