@<TRIPOS>MOLECULE
RANDER06
    81    84     3     0     0
SMALL
USER_CHARGES
****
Generated from the CSD

@<TRIPOS>ATOM
     1 Fe1      6.2126   2.8879   3.0041   Fe        1 RES1   2.0000
     2 N1       3.2700   5.7311   1.9941   N.pl3     1 RES1   0.0000
     3 N2       4.8626   4.2667   2.4935   N.2       1 RES1   0.0000
     4 N3       6.3202   2.6641   1.0410   N.2       1 RES1   0.0000
     5 N4       5.6104   3.5101   7.0929   N.pl3     1 RES1   0.0000
     6 N5       5.8917   3.1443   4.9436   N.2       1 RES1   0.0000
     7 N6       4.7425   1.5673   3.2348   N.2       1 RES1   0.0000
     8 N7       9.4085   5.5356   2.9652   N.pl3     1 RES1   0.0000
     9 N8       7.7762   4.0850   2.9604   N.2       1 RES1   0.0000
    10 N9       7.6312   1.5563   3.5573   N.2       1 RES1   0.0000
    11 C1       3.7848   5.5099   4.4117   C.3       1 RES1   0.0000
    12 C2       4.0078   5.1622   3.0073   C.2       1 RES1   0.0000
    13 C3       3.7094   5.2096   0.7943   C.2       1 RES1   0.0000
    14 C4       4.6877   4.3093   1.1023   C.2       1 RES1   0.0000
    15 C5       5.5244   3.4018   0.3261   C.2       1 RES1   0.0000
    16 C6       7.1901   1.7811   0.2250   C.3       1 RES1   0.0000
    17 C7       8.5928   2.3082   0.0782   C.3       1 RES1   0.0000
    18 C8       8.7298   3.5982  -0.6631   C.3       1 RES1   0.0000
    19 C9       7.3430   4.9487   6.0327   C.3       1 RES1   0.0000
    20 C10      6.3136   3.8765   5.9978   C.2       1 RES1   0.0000
    21 C11      4.7366   2.5493   6.7656   C.2       1 RES1   0.0000
    22 C12      4.9237   2.2935   5.4082   C.2       1 RES1   0.0000
    23 C13      4.3114   1.4777   4.4695   C.2       1 RES1   0.0000
    24 C14      4.1099   0.7380   2.2203   C.3       1 RES1   0.0000
    25 C15      2.8744   1.3818   1.5969   C.3       1 RES1   0.0000
    26 C16      1.7042   1.4206   2.5031   C.3       1 RES1   0.0000
    27 C17      7.2506   6.4578   2.2035   C.3       1 RES1   0.0000
    28 C18      8.1105   5.3712   2.7173   C.2       1 RES1   0.0000
    29 C19      9.9705   4.3612   3.4502   C.2       1 RES1   0.0000
    30 C20      8.9311   3.4541   3.4153   C.2       1 RES1   0.0000
    31 C21      8.7966   2.0919   3.7847   C.2       1 RES1   0.0000
    32 C22      7.4592   0.1510   3.9773   C.3       1 RES1   0.0000
    33 C23      7.4945  -0.8748   2.8461   C.3       1 RES1   0.0000
    34 C24      8.8196  -0.9562   2.1361   C.3       1 RES1   0.0000
    35 H1       2.5908   6.3542   2.1192   H         1 RES1   0.0000
    36 H2       5.7107   3.8895   7.9365   H         1 RES1   0.0000
    37 H3       9.8784   6.3228   2.8088   H         1 RES1   0.0000
    38 H4       4.6060   5.8558   4.7691   H         1 RES1   0.0000
    39 H5       3.1042   6.1846   4.4635   H         1 RES1   0.0000
    40 H6       3.5132   4.7422   4.9208   H         1 RES1   0.0000
    41 H7       3.4044   5.4529  -0.0505   H         1 RES1   0.0000
    42 H8       5.4829   3.3664  -0.6029   H         1 RES1   0.0000
    43 H9       7.1914   0.9213   0.6739   H         1 RES1   0.0000
    44 H10      6.7584   1.6915  -0.6402   H         1 RES1   0.0000
    45 H11      8.9842   2.4205   0.9579   H         1 RES1   0.0000
    46 H12      9.1078   1.6591  -0.4260   H         1 RES1   0.0000
    47 H13      8.2435   4.2683  -0.1781   H         1 RES1   0.0000
    48 H14      9.6540   3.8539  -0.7221   H         1 RES1   0.0000
    49 H15      8.3649   3.5147  -1.5476   H         1 RES1   0.0000
    50 H16      8.2042   4.5541   5.8799   H         1 RES1   0.0000
    51 H17      7.1601   5.5941   5.3468   H         1 RES1   0.0000
    52 H18      7.3381   5.3821   6.8896   H         1 RES1   0.0000
    53 H19      4.1222   2.1248   7.3192   H         1 RES1   0.0000
    54 H20      3.6334   0.8815   4.6957   H         1 RES1   0.0000
    55 H21      4.7811   0.5508   1.5452   H         1 RES1   0.0000
    56 H22      3.8649  -0.0867   2.6668   H         1 RES1   0.0000
    57 H23      3.0860   2.2874   1.3177   H         1 RES1   0.0000
    58 H24      2.5787   0.8695   0.8280   H         1 RES1   0.0000
    59 H25      1.9542   1.9417   3.2697   H         1 RES1   0.0000
    60 H26      0.9622   1.8390   2.0603   H         1 RES1   0.0000
    61 H27      1.4509   0.5375   2.7847   H         1 RES1   0.0000
    62 H28      7.7851   7.2521   2.1228   H         1 RES1   0.0000
    63 H29      6.8764   6.2357   1.3478   H         1 RES1   0.0000
    64 H30      6.5418   6.6132   2.8316   H         1 RES1   0.0000
    65 H31     10.8444   4.2046   3.7270   H         1 RES1   0.0000
    66 H32      9.4950   1.5924   4.1398   H         1 RES1   0.0000
    67 H33      6.5976   0.0551   4.4117   H         1 RES1   0.0000
    68 H34      8.1642  -0.0763   4.6043   H         1 RES1   0.0000
    69 H35      7.2894  -1.7455   3.2228   H         1 RES1   0.0000
    70 H36      6.8025  -0.6264   2.2131   H         1 RES1   0.0000
    71 H37      9.5169  -1.2125   2.7438   H         1 RES1   0.0000
    72 H38      8.7406  -1.6164   1.4441   H         1 RES1   0.0000
    73 H39      9.0344  -0.1058   1.7450   H         1 RES1   0.0000
    74 Cl1      6.4800   4.7997   9.8271   Cl        2 RES2  -1.0000
    75 P1       6.6054   9.6420   4.7342   P.3       3 RES3  -1.0000
    76 F1       6.0485   9.5845   6.2397   F         3 RES3   0.0000
    77 F2       7.1583   9.7346   3.2408   F         3 RES3   0.0000
    78 F3       7.7907  10.5998   5.2276   F         3 RES3   0.0000
    79 F4       5.4053   8.7006   4.2577   F         3 RES3   0.0000
    80 F5       5.6935  10.9480   4.4767   F         3 RES3   0.0000
    81 F6       7.5022   8.3473   5.0026   F         3 RES3   0.0000
@<TRIPOS>BOND
     1     1     3    1
     2     2    12    1
     3     3    12    2
     4     4     1    1
     5     5    20    1
     6     6     1    1
     7     7     1    1
     8     8    28    1
     9     9     1    1
    10    10     1    1
    11    11    12    1
    12    13     2    1
    13    14     3    1
    14    15     4    2
    15    16     4    1
    16    17    16    1
    17    18    17    1
    18    19    20    1
    19    20     6    2
    20    21     5    1
    21    22     6    1
    22    23     7    2
    23    24     7    1
    24    25    24    1
    25    26    25    1
    26    27    28    1
    27    28     9    2
    28    29     8    1
    29    30     9    1
    30    31    10    2
    31    32    10    1
    32    33    32    1
    33    34    33    1
    34    35     2    1
    35    36     5    1
    36    37     8    1
    37    38    11    1
    38    39    11    1
    39    40    11    1
    40    41    13    1
    41    42    15    1
    42    43    16    1
    43    44    16    1
    44    45    17    1
    45    46    17    1
    46    47    18    1
    47    48    18    1
    48    49    18    1
    49    50    19    1
    50    51    19    1
    51    52    19    1
    52    53    21    1
    53    54    23    1
    54    55    24    1
    55    56    24    1
    56    57    25    1
    57    58    25    1
    58    59    26    1
    59    60    26    1
    60    61    26    1
    61    62    27    1
    62    63    27    1
    63    64    27    1
    64    65    29    1
    65    66    31    1
    66    67    32    1
    67    68    32    1
    68    69    33    1
    69    70    33    1
    70    71    34    1
    71    72    34    1
    72    73    34    1
    73    13    14    2
    74    14    15    1
    75    21    22    2
    76    22    23    1
    77    29    30    2
    78    30    31    1
    79    75    76    1
    80    77    75    1
    81    78    75    1
    82    79    75    1
    83    80    75    1
    84    81    75    1
@<TRIPOS>SUBSTRUCTURE
     1 RES1        1 GROUP             0 ****  ****    0  
     2 RES2       74 GROUP             0 ****  ****    0  
     3 RES3       75 GROUP             0 ****  ****    0  
@<TRIPOS>CRYSIN
   10.3860   12.8290   12.8830   84.7780   69.0970   77.1020     2     1
