@<TRIPOS>MOLECULE
RANDER
    81    84     3     0     0
SMALL
USER_CHARGES
****
Generated from the CSD

@<TRIPOS>ATOM
     1 Fe1     12.0226   9.3697   3.1892   Fe        1 RES1   2.0000
     2 N1      11.6855   9.7557   7.5195   N.pl3     1 RES1   0.0000
     3 N2      11.8191   9.5939   5.3438   N.2       1 RES1   0.0000
     4 N3      10.3885   7.9823   3.6381   N.2       1 RES1   0.0000
     5 N4      15.5624  11.8383   3.0111   N.pl3     1 RES1   0.0000
     6 N5      13.8219  10.5415   3.0525   N.2       1 RES1   0.0000
     7 N6      13.6502   7.8856   3.7309   N.2       1 RES1   0.0000
     8 N7       9.0035  12.3639   2.1671   N.pl3     1 RES1   0.0000
     9 N8      10.5676  10.8860   2.6459   N.2       1 RES1   0.0000
    10 N9      11.8771   9.1586   0.9594   N.2       1 RES1   0.0000
    11 C1      13.2944  11.3092   6.3959   C.3       1 RES1   0.0000
    12 C2      12.2783  10.2296   6.3934   C.2       1 RES1   0.0000
    13 C3      10.8001   8.8159   7.1759   C.2       1 RES1   0.0000
    14 C4      10.8767   8.6780   5.8303   C.2       1 RES1   0.0000
    15 C5      10.1366   7.8696   4.8922   C.2       1 RES1   0.0000
    16 C6       9.5257   7.2400   2.7214   C.3       1 RES1   0.0000
    17 C7       8.1841   7.9905   2.5245   C.3       1 RES1   0.0000
    18 C8       7.2758   7.3480   1.5939   C.3       1 RES1   0.0000
    19 C9      13.4136  12.8755   2.2787   C.3       1 RES1   0.0000
    20 C10     14.2292  11.7542   2.7715   C.2       1 RES1   0.0000
    21 C11     16.0007  10.6584   3.4763   C.2       1 RES1   0.0000
    22 C12     14.9207   9.8509   3.4763   C.2       1 RES1   0.0000
    23 C13     14.7770   8.4652   3.8776   C.2       1 RES1   0.0000
    24 C14     13.5118   6.5049   4.1899   C.3       1 RES1   0.0000
    25 C15     13.2512   5.5833   3.0224   C.3       1 RES1   0.0000
    26 C16     14.4100   5.4235   2.1232   C.3       1 RES1   0.0000
    27 C17      9.6488  12.1779   4.5875   C.3       1 RES1   0.0000
    28 C18      9.7634  11.8223   3.1415   C.2       1 RES1   0.0000
    29 C19      9.3252  11.7904   0.9945   C.2       1 RES1   0.0000
    30 C20     10.3046  10.8790   1.2767   C.2       1 RES1   0.0000
    31 C21     11.0188   9.9390   0.4414   C.2       1 RES1   0.0000
    32 C22     12.6266   8.2774   0.0740   C.3       1 RES1   0.0000
    33 C23     14.0714   8.6611  -0.0063   C.3       1 RES1   0.0000
    34 C24     14.3598   9.9886  -0.6045   C.3       1 RES1   0.0000
    35 H1      11.8687  10.0445   8.4049   H         1 RES1   0.0000
    36 H2      16.1003  12.6098   2.8719   H         1 RES1   0.0000
    37 H3       8.3480  13.0389   2.2900   H         1 RES1   0.0000
    38 H4      12.8618  12.1511   6.3081   H         1 RES1   0.0000
    39 H5      13.8923  11.1833   5.6685   H         1 RES1   0.0000
    40 H6      13.7793  11.2858   7.2123   H         1 RES1   0.0000
    41 H7      10.2279   8.3350   7.7628   H         1 RES1   0.0000
    42 H8       9.4729   7.2610   5.1982   H         1 RES1   0.0000
    43 H9       9.9621   7.1518   1.8811   H         1 RES1   0.0000
    44 H10      9.3539   6.3777   3.0800   H         1 RES1   0.0000
    45 H11      7.7507   8.0522   3.3685   H         1 RES1   0.0000
    46 H12      8.3746   8.8635   2.2022   H         1 RES1   0.0000
    47 H13      7.4491   7.6631   0.7148   H         1 RES1   0.0000
    48 H14      6.3803   7.5524   1.8335   H         1 RES1   0.0000
    49 H15      7.4040   6.4067   1.6228   H         1 RES1   0.0000
    50 H16     13.0679  13.3648   3.0161   H         1 RES1   0.0000
    51 H17     12.6941  12.5396   1.7570   H         1 RES1   0.0000
    52 H18     13.9520  13.4482   1.7432   H         1 RES1   0.0000
    53 H19     16.8836  10.4380   3.7472   H         1 RES1   0.0000
    54 H20     15.5144   7.9941   4.2451   H         1 RES1   0.0000
    55 H21     14.3123   6.2385   4.6263   H         1 RES1   0.0000
    56 H22     12.7858   6.4496   4.8007   H         1 RES1   0.0000
    57 H23     13.0143   4.7284   3.3622   H         1 RES1   0.0000
    58 H24     12.5275   5.9362   2.5182   H         1 RES1   0.0000
    59 H25     14.3762   6.0829   1.4409   H         1 RES1   0.0000
    60 H26     14.3879   4.5589   1.7294   H         1 RES1   0.0000
    61 H27     15.2138   5.5224   2.6210   H         1 RES1   0.0000
    62 H28     10.2325  12.9007   4.7831   H         1 RES1   0.0000
    63 H29      9.8872  11.4267   5.1167   H         1 RES1   0.0000
    64 H30      8.7543  12.4310   4.7806   H         1 RES1   0.0000
    65 H31      8.9486  11.9805   0.1430   H         1 RES1   0.0000
    66 H32     10.8465   9.9053  -0.4929   H         1 RES1   0.0000
    67 H33     12.5640   7.3881   0.4013   H         1 RES1   0.0000
    68 H34     12.2490   8.3230  -0.7963   H         1 RES1   0.0000
    69 H35     14.4235   8.6562   0.8754   H         1 RES1   0.0000
    70 H36     14.5177   8.0037  -0.5292   H         1 RES1   0.0000
    71 H37     14.4735   9.8954  -1.5425   H         1 RES1   0.0000
    72 H38     15.1545  10.3417  -0.2220   H         1 RES1   0.0000
    73 H39     13.6362  10.5782  -0.4302   H         1 RES1   0.0000
    74 Cl1     12.2477  11.0880  10.2971   Cl        2 RES2  -1.0000
    75 P1       6.7737   9.4072   7.3075   P.3       3 RES3  -1.0000
    76 F1       5.5941   8.6463   6.6918   F         3 RES3   0.0000
    77 F2       7.6848   8.1203   7.5107   F         3 RES3   0.0000
    78 F3       7.4229   9.5627   5.9206   F         3 RES3   0.0000
    79 F4       7.9351  10.2044   7.9534   F         3 RES3   0.0000
    80 F5       6.0155  10.7262   7.1057   F         3 RES3   0.0000
    81 F6       6.1486   9.1803   8.7159   F         3 RES3   0.0000
@<TRIPOS>BOND
     1     1     3    1
     2     2    12    1
     3     3    12    2
     4     4     1    1
     5     5    20    1
     6     6     1    1
     7     7     1    1
     8     8    28    1
     9     9     1    1
    10    10     1    1
    11    11    12    1
    12    13     2    1
    13    14     3    1
    14    15     4    2
    15    16     4    1
    16    17    16    1
    17    18    17    1
    18    19    20    1
    19    20     6    2
    20    21     5    1
    21    22     6    1
    22    23     7    2
    23    24     7    1
    24    25    24    1
    25    26    25    1
    26    27    28    1
    27    28     9    2
    28    29     8    1
    29    30     9    1
    30    31    10    2
    31    32    10    1
    32    33    32    1
    33    34    33    1
    34    35     2    1
    35    36     5    1
    36    37     8    1
    37    38    11    1
    38    39    11    1
    39    40    11    1
    40    41    13    1
    41    42    15    1
    42    43    16    1
    43    44    16    1
    44    45    17    1
    45    46    17    1
    46    47    18    1
    47    48    18    1
    48    49    18    1
    49    50    19    1
    50    51    19    1
    51    52    19    1
    52    53    21    1
    53    54    23    1
    54    55    24    1
    55    56    24    1
    56    57    25    1
    57    58    25    1
    58    59    26    1
    59    60    26    1
    60    61    26    1
    61    62    27    1
    62    63    27    1
    63    64    27    1
    64    65    29    1
    65    66    31    1
    66    67    32    1
    67    68    32    1
    68    69    33    1
    69    70    33    1
    70    71    34    1
    71    72    34    1
    72    73    34    1
    73    13    14    2
    74    14    15    1
    75    21    22    2
    76    22    23    1
    77    29    30    2
    78    30    31    1
    79    75    76    1
    80    77    75    1
    81    78    75    1
    82    79    75    1
    83    80    75    1
    84    81    75    1
@<TRIPOS>SUBSTRUCTURE
     1 RES1        1 GROUP             0 ****  ****    0  
     2 RES2       74 GROUP             0 ****  ****    0  
     3 RES3       75 GROUP             0 ****  ****    0  
@<TRIPOS>CRYSIN
   10.5790   12.8390   13.1630   86.3760   72.3300   80.3430     2     1
