@<TRIPOS>MOLECULE
RANDER04
    81    84     3     0     0
SMALL
USER_CHARGES
****
Generated from the CSD

@<TRIPOS>ATOM
     1 Fe1      5.4851   3.0764   3.0895   Fe        1 RES1   2.0000
     2 N1       2.6146   6.0090   2.1388   N.pl3     1 RES1   0.0000
     3 N2       4.1595   4.5156   2.5707   N.2       1 RES1   0.0000
     4 N3       5.3847   2.7667   1.1139   N.2       1 RES1   0.0000
     5 N4       5.2277   3.7832   7.2128   N.pl3     1 RES1   0.0000
     6 N5       5.3370   3.3927   5.0559   N.2       1 RES1   0.0000
     7 N6       3.9514   1.8312   3.4765   N.2       1 RES1   0.0000
     8 N7       8.8628   5.5431   2.8630   N.pl3     1 RES1   0.0000
     9 N8       7.1173   4.2225   2.9159   N.2       1 RES1   0.0000
    10 N9       6.8674   1.6753   3.5174   N.2       1 RES1   0.0000
    11 C1       3.2898   5.8917   4.5314   C.3       1 RES1   0.0000
    12 C2       3.3816   5.4203   3.0975   C.2       1 RES1   0.0000
    13 C3       2.9031   5.4239   0.9467   C.2       1 RES1   0.0000
    14 C4       3.8857   4.5010   1.2138   C.2       1 RES1   0.0000
    15 C5       4.5588   3.5040   0.4427   C.2       1 RES1   0.0000
    16 C6       6.1689   1.7664   0.3260   C.3       1 RES1   0.0000
    17 C7       7.5856   2.2301   0.0397   C.3       1 RES1   0.0000
    18 C8       7.7291   3.4854  -0.7037   C.3       1 RES1   0.0000
    19 C9       6.9654   5.1692   6.0014   C.3       1 RES1   0.0000
    20 C10      5.8729   4.1200   6.0519   C.2       1 RES1   0.0000
    21 C11      4.2873   2.8181   6.9854   C.2       1 RES1   0.0000
    22 C12      4.3510   2.6019   5.6381   C.2       1 RES1   0.0000
    23 C13      3.6014   1.7690   4.7035   C.2       1 RES1   0.0000
    24 C14      3.0751   1.0815   2.5406   C.3       1 RES1   0.0000
    25 C15      1.7476   1.8275   2.2711   C.3       1 RES1   0.0000
    26 C16      0.8731   1.1468   1.2715   C.3       1 RES1   0.0000
    27 C17      6.6604   6.5582   2.2471   C.3       1 RES1   0.0000
    28 C18      7.5187   5.4430   2.6669   C.2       1 RES1   0.0000
    29 C19      9.3602   4.3802   3.2359   C.2       1 RES1   0.0000
    30 C20      8.2753   3.5352   3.2804   C.2       1 RES1   0.0000
    31 C21      8.0701   2.1193   3.6437   C.2       1 RES1   0.0000
    32 C22      6.5426   0.2749   3.9131   C.3       1 RES1   0.0000
    33 C23      7.6571  -0.7533   3.8217   C.3       1 RES1   0.0000
    34 C24      8.1732  -0.9755   2.3986   C.3       1 RES1   0.0000
    35 H1       1.9778   6.6977   2.2880   H         1 RES1   0.0000
    36 H2       5.4167   4.1665   8.0608   H         1 RES1   0.0000
    37 H3       9.3750   6.3361   2.7595   H         1 RES1   0.0000
    38 H4       3.9236   6.5850   4.6698   H         1 RES1   0.0000
    39 H5       3.4880   5.1639   5.1101   H         1 RES1   0.0000
    40 H6       2.4182   6.2174   4.7191   H         1 RES1   0.0000
    41 H7       2.5173   5.6100   0.0986   H         1 RES1   0.0000
    42 H8       4.4252   3.3869  -0.4908   H         1 RES1   0.0000
    43 H9       6.1966   0.9633   0.8324   H         1 RES1   0.0000
    44 H10      5.7364   1.6011  -0.5040   H         1 RES1   0.0000
    45 H11      8.0006   2.3770   0.8817   H         1 RES1   0.0000
    46 H12      8.0507   1.5454  -0.4270   H         1 RES1   0.0000
    47 H13      7.7828   3.2728  -1.6276   H         1 RES1   0.0000
    48 H14      8.5113   3.9560  -0.4415   H         1 RES1   0.0000
    49 H15      6.9655   4.0293  -0.5473   H         1 RES1   0.0000
    50 H16      6.5718   6.0126   5.8138   H         1 RES1   0.0000
    51 H17      7.5888   4.9515   5.3182   H         1 RES1   0.0000
    52 H18      7.4137   5.2085   6.8375   H         1 RES1   0.0000
    53 H19      3.6920   2.4194   7.6097   H         1 RES1   0.0000
    54 H20      2.9121   1.1857   4.9982   H         1 RES1   0.0000
    55 H21      3.5234   0.9830   1.7094   H         1 RES1   0.0000
    56 H22      2.8969   0.2238   2.9075   H         1 RES1   0.0000
    57 H23      1.2603   1.8444   3.0867   H         1 RES1   0.0000
    58 H24      1.9357   2.7186   1.9981   H         1 RES1   0.0000
    59 H25      1.0921   1.5057   0.4198   H         1 RES1   0.0000
    60 H26     -0.0516   1.2811   1.4435   H         1 RES1   0.0000
    61 H27      1.0657   0.2168   1.2823   H         1 RES1   0.0000
    62 H28      6.3266   7.0120   3.0121   H         1 RES1   0.0000
    63 H29      5.9335   6.2345   1.7274   H         1 RES1   0.0000
    64 H30      7.1802   7.1573   1.7250   H         1 RES1   0.0000
    65 H31     10.2615   4.1467   3.4247   H         1 RES1   0.0000
    66 H32      8.7915   1.5584   3.9035   H         1 RES1   0.0000
    67 H33      6.2143   0.2979   4.8045   H         1 RES1   0.0000
    68 H34      5.8556  -0.0290   3.3309   H         1 RES1   0.0000
    69 H35      8.3766  -0.4366   4.3546   H         1 RES1   0.0000
    70 H36      7.3543  -1.5870   4.1597   H         1 RES1   0.0000
    71 H37      7.6846  -1.6778   1.9884   H         1 RES1   0.0000
    72 H38      9.0984  -1.1937   2.4035   H         1 RES1   0.0000
    73 H39      8.0405  -0.1702   1.9115   H         1 RES1   0.0000
    74 Cl1      5.7491   5.1729   9.9735   Cl        2 RES2  -1.0000
    75 P1       5.5074   9.7995   5.0246   P.3       3 RES3  -1.0000
    76 F1       4.7574   9.6135   6.4393   F         3 RES3   0.0000
    77 F2       6.2615  10.0030   3.6329   F         3 RES3   0.0000
    78 F3       6.7042  10.5634   5.7777   F         3 RES3   0.0000
    79 F4       4.2869   9.0416   4.2909   F         3 RES3   0.0000
    80 F5       4.7462  11.1967   4.8286   F         3 RES3   0.0000
    81 F6       6.2613   8.3929   5.2604   F         3 RES3   0.0000
@<TRIPOS>BOND
     1     1     3    1
     2     2    12    1
     3     3    12    2
     4     4     1    1
     5     5    20    1
     6     6     1    1
     7     7     1    1
     8     8    28    1
     9     9     1    1
    10    10     1    1
    11    11    12    1
    12    13     2    1
    13    14     3    1
    14    15     4    2
    15    16     4    1
    16    17    16    1
    17    18    17    1
    18    19    20    1
    19    20     6    2
    20    21     5    1
    21    22     6    1
    22    23     7    2
    23    24     7    1
    24    25    24    1
    25    26    25    1
    26    27    28    1
    27    28     9    2
    28    29     8    1
    29    30     9    1
    30    31    10    2
    31    32    10    1
    32    33    32    1
    33    34    33    1
    34    35     2    1
    35    36     5    1
    36    37     8    1
    37    38    11    1
    38    39    11    1
    39    40    11    1
    40    41    13    1
    41    42    15    1
    42    43    16    1
    43    44    16    1
    44    45    17    1
    45    46    17    1
    46    47    18    1
    47    48    18    1
    48    49    18    1
    49    50    19    1
    50    51    19    1
    51    52    19    1
    52    53    21    1
    53    54    23    1
    54    55    24    1
    55    56    24    1
    56    57    25    1
    57    58    25    1
    58    59    26    1
    59    60    26    1
    60    61    26    1
    61    62    27    1
    62    63    27    1
    63    64    27    1
    64    65    29    1
    65    66    31    1
    66    67    32    1
    67    68    32    1
    68    69    33    1
    69    70    33    1
    70    71    34    1
    71    72    34    1
    72    73    34    1
    73    13    14    2
    74    14    15    1
    75    21    22    2
    76    22    23    1
    77    29    30    2
    78    30    31    1
    79    75    76    1
    80    77    75    1
    81    78    75    1
    82    79    75    1
    83    80    75    1
    84    81    75    1
@<TRIPOS>SUBSTRUCTURE
     1 RES1        1 GROUP             0 ****  ****    0  
     2 RES2       74 GROUP             0 ****  ****    0  
     3 RES3       75 GROUP             0 ****  ****    0  
@<TRIPOS>CRYSIN
   10.5040   12.7010   12.8610   85.2900   69.4500   83.7200     2     1
