@<TRIPOS>MOLECULE
RANDER07
    81    84     3     0     0
SMALL
USER_CHARGES
****
Generated from the CSD

@<TRIPOS>ATOM
     1 Fe1      5.4028   3.0608   3.0734   Fe        1 RES1   2.0000
     2 N1       2.5694   5.9884   2.1057   N.pl3     1 RES1   0.0000
     3 N2       4.1070   4.4897   2.5828   N.2       1 RES1   0.0000
     4 N3       5.3432   2.7319   1.1192   N.2       1 RES1   0.0000
     5 N4       5.1224   3.7936   7.1780   N.pl3     1 RES1   0.0000
     6 N5       5.2668   3.3786   5.0424   N.2       1 RES1   0.0000
     7 N6       3.8687   1.8472   3.4545   N.2       1 RES1   0.0000
     8 N7       8.7613   5.5287   2.8207   N.pl3     1 RES1   0.0000
     9 N8       7.0235   4.1901   2.9128   N.2       1 RES1   0.0000
    10 N9       6.7584   1.6923   3.4975   N.2       1 RES1   0.0000
    11 C1       3.2436   5.8453   4.4912   C.3       1 RES1   0.0000
    12 C2       3.3242   5.4221   3.0910   C.2       1 RES1   0.0000
    13 C3       2.8727   5.3891   0.9387   C.2       1 RES1   0.0000
    14 C4       3.8248   4.4614   1.2017   C.2       1 RES1   0.0000
    15 C5       4.5339   3.4640   0.4317   C.2       1 RES1   0.0000
    16 C6       6.1129   1.7363   0.3348   C.3       1 RES1   0.0000
    17 C7       7.5389   2.1758   0.0705   C.3       1 RES1   0.0000
    18 C8       7.6727   3.4697  -0.7067   C.3       1 RES1   0.0000
    19 C9       6.8368   5.1265   5.9727   C.3       1 RES1   0.0000
    20 C10      5.7660   4.1031   6.0146   C.2       1 RES1   0.0000
    21 C11      4.1826   2.8421   6.9329   C.2       1 RES1   0.0000
    22 C12      4.2576   2.5949   5.6200   C.2       1 RES1   0.0000
    23 C13      3.5248   1.7788   4.7004   C.2       1 RES1   0.0000
    24 C14      3.0237   1.1017   2.5146   C.3       1 RES1   0.0000
    25 C15      1.6879   1.8282   2.2707   C.3       1 RES1   0.0000
    26 C16      0.8582   1.1510   1.2089   C.3       1 RES1   0.0000
    27 C17      6.5923   6.5633   2.2145   C.3       1 RES1   0.0000
    28 C18      7.4155   5.4156   2.6306   C.2       1 RES1   0.0000
    29 C19      9.2447   4.3056   3.2357   C.2       1 RES1   0.0000
    30 C20      8.1635   3.4984   3.2847   C.2       1 RES1   0.0000
    31 C21      7.9589   2.0937   3.6004   C.2       1 RES1   0.0000
    32 C22      6.4428   0.2757   3.8527   C.3       1 RES1   0.0000
    33 C23      7.5681  -0.7235   3.7953   C.3       1 RES1   0.0000
    34 C24      8.0920  -0.9631   2.4022   C.3       1 RES1   0.0000
    35 H1       1.9427   6.6645   2.2324   H         1 RES1   0.0000
    36 H2       5.2988   4.1739   8.0090   H         1 RES1   0.0000
    37 H3       9.2637   6.2974   2.6749   H         1 RES1   0.0000
    38 H4       3.2567   5.0779   5.0675   H         1 RES1   0.0000
    39 H5       3.9899   6.4135   4.6992   H         1 RES1   0.0000
    40 H6       2.4261   6.3309   4.6227   H         1 RES1   0.0000
    41 H7       2.5113   5.5835   0.1040   H         1 RES1   0.0000
    42 H8       4.4130   3.3609  -0.4843   H         1 RES1   0.0000
    43 H9       6.1177   0.9106   0.8454   H         1 RES1   0.0000
    44 H10      5.6524   1.5928  -0.5058   H         1 RES1   0.0000
    45 H11      7.9832   1.4722  -0.4281   H         1 RES1   0.0000
    46 H12      7.9813   2.2924   0.9267   H         1 RES1   0.0000
    47 H13      8.5927   3.7444  -0.7366   H         1 RES1   0.0000
    48 H14      7.3517   3.3325  -1.6011   H         1 RES1   0.0000
    49 H15      7.1489   4.1511  -0.2798   H         1 RES1   0.0000
    50 H16      6.5759   5.8368   5.3820   H         1 RES1   0.0000
    51 H17      6.9872   5.4814   6.8516   H         1 RES1   0.0000
    52 H18      7.6450   4.7223   5.6499   H         1 RES1   0.0000
    53 H19      3.6041   2.4452   7.5427   H         1 RES1   0.0000
    54 H20      2.8332   1.2233   4.9791   H         1 RES1   0.0000
    55 H21      2.8615   0.2274   2.9009   H         1 RES1   0.0000
    56 H22      3.5235   1.0015   1.6896   H         1 RES1   0.0000
    57 H23      1.8703   2.7299   1.9610   H         1 RES1   0.0000
    58 H24      1.1729   1.8679   3.0922   H         1 RES1   0.0000
    59 H25      0.6552   0.2598   1.5018   H         1 RES1   0.0000
    60 H26      0.0420   1.6380   1.0762   H         1 RES1   0.0000
    61 H27      1.3457   1.1136   0.3826   H         1 RES1   0.0000
    62 H28      5.9181   6.7447   2.8734   H         1 RES1   0.0000
    63 H29      7.1525   7.3365   2.1093   H         1 RES1   0.0000
    64 H30      6.1716   6.3571   1.3763   H         1 RES1   0.0000
    65 H31     10.1231   4.0936   3.4521   H         1 RES1   0.0000
    66 H32      8.6511   1.5410   3.8850   H         1 RES1   0.0000
    67 H33      5.7664  -0.0198   3.2237   H         1 RES1   0.0000
    68 H34      6.0738   0.2763   4.7495   H         1 RES1   0.0000
    69 H35      7.2405  -1.5556   4.1695   H         1 RES1   0.0000
    70 H36      8.2840  -0.3774   4.3513   H         1 RES1   0.0000
    71 H37      8.8654  -1.5298   2.4405   H         1 RES1   0.0000
    72 H38      7.4101  -1.3880   1.8773   H         1 RES1   0.0000
    73 H39      8.3313  -0.1248   1.9981   H         1 RES1   0.0000
    74 Cl1      5.6079   5.1499   9.9179   Cl        2 RES2  -1.0000
    75 P1       5.4232   9.7373   5.0019   P.3       3 RES3  -1.0000
    76 F1       4.6670   9.5428   6.3984   F         3 RES3   0.0000
    77 F2       6.1755   9.9498   3.6183   F         3 RES3   0.0000
    78 F3       6.6070  10.5036   5.7694   F         3 RES3   0.0000
    79 F4       4.2366   8.9793   4.2532   F         3 RES3   0.0000
    80 F5       4.6608  11.1308   4.7985   F         3 RES3   0.0000
    81 F6       6.1648   8.3556   5.2194   F         3 RES3   0.0000
@<TRIPOS>BOND
     1     1     3    1
     2     2    12    1
     3     3    12    2
     4     4     1    1
     5     5    20    1
     6     6     1    1
     7     7     1    1
     8     8    28    1
     9     9     1    1
    10    10     1    1
    11    11    12    1
    12    13     2    1
    13    14     3    1
    14    15     4    2
    15    16     4    1
    16    17    16    1
    17    18    17    1
    18    19    20    1
    19    20     6    2
    20    21     5    1
    21    22     6    1
    22    23     7    2
    23    24     7    1
    24    25    24    1
    25    26    25    1
    26    27    28    1
    27    28     9    2
    28    29     8    1
    29    30     9    1
    30    31    10    2
    31    32    10    1
    32    33    32    1
    33    34    33    1
    34    35     2    1
    35    36     5    1
    36    37     8    1
    37    38    11    1
    38    39    11    1
    39    40    11    1
    40    41    13    1
    41    42    15    1
    42    43    16    1
    43    44    16    1
    44    45    17    1
    45    46    17    1
    46    47    18    1
    47    48    18    1
    48    49    18    1
    49    50    19    1
    50    51    19    1
    51    52    19    1
    52    53    21    1
    53    54    23    1
    54    55    24    1
    55    56    24    1
    56    57    25    1
    57    58    25    1
    58    59    26    1
    59    60    26    1
    60    61    26    1
    61    62    27    1
    62    63    27    1
    63    64    27    1
    64    65    29    1
    65    66    31    1
    66    67    32    1
    67    68    32    1
    68    69    33    1
    69    70    33    1
    70    71    34    1
    71    72    34    1
    72    73    34    1
    73    13    14    2
    74    14    15    1
    75    21    22    2
    76    22    23    1
    77    29    30    2
    78    30    31    1
    79    75    76    1
    80    77    75    1
    81    78    75    1
    82    79    75    1
    83    80    75    1
    84    81    75    1
@<TRIPOS>SUBSTRUCTURE
     1 RES1        1 GROUP             0 ****  ****    0  
     2 RES2       74 GROUP             0 ****  ****    0  
     3 RES3       75 GROUP             0 ****  ****    0  
@<TRIPOS>CRYSIN
   10.4175   12.6237   12.7500   85.3700   69.8610   83.8180     2     1
