@<TRIPOS>MOLECULE
RANDER05
    81    84     3     0     0
SMALL
USER_CHARGES
****
Generated from the CSD

@<TRIPOS>ATOM
     1 Fe1      6.2222   2.8726   3.0017   Fe        1 RES1   2.0000
     2 N1       3.3444   5.7270   1.9836   N.pl3     1 RES1   0.0000
     3 N2       4.9005   4.2694   2.4692   N.2       1 RES1   0.0000
     4 N3       6.2885   2.6501   1.0351   N.2       1 RES1   0.0000
     5 N4       5.6429   3.4954   7.0915   N.pl3     1 RES1   0.0000
     6 N5       5.9340   3.1439   4.9336   N.2       1 RES1   0.0000
     7 N6       4.7797   1.5588   3.2242   N.2       1 RES1   0.0000
     8 N7       9.4715   5.5289   2.9813   N.pl3     1 RES1   0.0000
     9 N8       7.7727   4.0845   2.9837   N.2       1 RES1   0.0000
    10 N9       7.6159   1.5392   3.5788   N.2       1 RES1   0.0000
    11 C1       3.8152   5.5054   4.4143   C.3       1 RES1   0.0000
    12 C2       4.0445   5.1446   2.9729   C.2       1 RES1   0.0000
    13 C3       3.7439   5.2070   0.7946   C.2       1 RES1   0.0000
    14 C4       4.6985   4.3211   1.1000   C.2       1 RES1   0.0000
    15 C5       5.4862   3.3908   0.3582   C.2       1 RES1   0.0000
    16 C6       7.1866   1.7602   0.2344   C.3       1 RES1   0.0000
    17 C7       8.6490   2.2986   0.0781   C.3       1 RES1   0.0000
    18 C8       8.7458   3.6073  -0.6624   C.3       1 RES1   0.0000
    19 C9       7.3100   4.9416   6.0396   C.3       1 RES1   0.0000
    20 C10      6.3348   3.8718   5.9759   C.2       1 RES1   0.0000
    21 C11      4.7465   2.5136   6.7513   C.2       1 RES1   0.0000
    22 C12      4.9345   2.2925   5.4181   C.2       1 RES1   0.0000
    23 C13      4.3371   1.4367   4.4359   C.2       1 RES1   0.0000
    24 C14      4.1322   0.7250   2.1951   C.3       1 RES1   0.0000
    25 C15      2.8767   1.3619   1.6061   C.3       1 RES1   0.0000
    26 C16      1.6324   1.3917   2.5810   C.3       1 RES1   0.0000
    27 C17      7.2633   6.4368   2.2059   C.3       1 RES1   0.0000
    28 C18      8.1495   5.3509   2.6880   C.2       1 RES1   0.0000
    29 C19      9.9942   4.3655   3.4466   C.2       1 RES1   0.0000
    30 C20      8.9556   3.4545   3.4189   C.2       1 RES1   0.0000
    31 C21      8.7968   2.0705   3.7952   C.2       1 RES1   0.0000
    32 C22      7.4559   0.1322   4.0176   C.3       1 RES1   0.0000
    33 C23      7.4560  -0.8838   2.8780   C.3       1 RES1   0.0000
    34 C24      8.8196  -0.9584   2.1374   C.3       1 RES1   0.0000
    35 H1       2.6893   6.3770   2.0990   H         1 RES1   0.0000
    36 H2       5.7546   3.8594   7.9402   H         1 RES1   0.0000
    37 H3       9.9266   6.3336   2.8816   H         1 RES1   0.0000
    38 H4       4.6262   5.8688   4.7774   H         1 RES1   0.0000
    39 H5       3.1162   6.1598   4.4744   H         1 RES1   0.0000
    40 H6       3.5647   4.7228   4.9120   H         1 RES1   0.0000
    41 H7       3.4224   5.4218  -0.0517   H         1 RES1   0.0000
    42 H8       5.4383   3.3464  -0.5698   H         1 RES1   0.0000
    43 H9       7.1880   0.8972   0.6804   H         1 RES1   0.0000
    44 H10      6.7825   1.6691  -0.6419   H         1 RES1   0.0000
    45 H11      9.1771   1.6346  -0.3919   H         1 RES1   0.0000
    46 H12      9.0095   2.4261   0.9701   H         1 RES1   0.0000
    47 H13      8.3344   3.5163  -1.5255   H         1 RES1   0.0000
    48 H14      8.2977   4.2953  -0.1659   H         1 RES1   0.0000
    49 H15      9.6699   3.8443  -0.7742   H         1 RES1   0.0000
    50 H16      7.0651   5.6494   5.4385   H         1 RES1   0.0000
    51 H17      7.3749   5.2873   6.9316   H         1 RES1   0.0000
    52 H18      8.1582   4.5768   5.7751   H         1 RES1   0.0000
    53 H19      4.1455   2.0834   7.3139   H         1 RES1   0.0000
    54 H20      3.6720   0.8256   4.6583   H         1 RES1   0.0000
    55 H21      4.7993   0.5525   1.5123   H         1 RES1   0.0000
    56 H22      3.8882  -0.1108   2.6255   H         1 RES1   0.0000
    57 H23      3.0975   2.2720   1.3524   H         1 RES1   0.0000
    58 H24      2.6016   0.8664   0.8199   H         1 RES1   0.0000
    59 H25      1.8775   1.8909   3.3624   H         1 RES1   0.0000
    60 H26      0.8876   1.8171   2.1494   H         1 RES1   0.0000
    61 H27      1.3856   0.4990   2.8347   H         1 RES1   0.0000
    62 H28      6.5697   6.6026   2.8479   H         1 RES1   0.0000
    63 H29      7.7855   7.2338   2.0857   H         1 RES1   0.0000
    64 H30      6.8694   6.1840   1.3680   H         1 RES1   0.0000
    65 H31     10.8758   4.2112   3.7014   H         1 RES1   0.0000
    66 H32      9.4991   1.5820   4.1619   H         1 RES1   0.0000
    67 H33      8.1815  -0.0579   4.6331   H         1 RES1   0.0000
    68 H34      6.6114   0.0877   4.4924   H         1 RES1   0.0000
    69 H35      7.2633  -1.7641   3.2362   H         1 RES1   0.0000
    70 H36      6.7704  -0.6392   2.2360   H         1 RES1   0.0000
    71 H37      8.8479  -1.7627   1.6145   H         1 RES1   0.0000
    72 H38      8.9084  -0.1979   1.5580   H         1 RES1   0.0000
    73 H39      9.5417  -0.9636   2.7698   H         1 RES1   0.0000
    74 Cl1      6.5124   4.7749   9.8100   Cl        2 RES2  -1.0000
    75 P1       6.6290   9.6096   4.7312   P.3       3 RES3  -1.0000
    76 F1       6.0667   9.5516   6.2296   F         3 RES3   0.0000
    77 F2       7.1783   9.6880   3.2278   F         3 RES3   0.0000
    78 F3       7.8209  10.5540   5.2089   F         3 RES3   0.0000
    79 F4       5.4224   8.6768   4.2412   F         3 RES3   0.0000
    80 F5       5.7130  10.9133   4.4576   F         3 RES3   0.0000
    81 F6       7.4959   8.3114   5.0070   F         3 RES3   0.0000
@<TRIPOS>BOND
     1     1     3    1
     2     2    12    1
     3     3    12    2
     4     4     1    1
     5     5    20    1
     6     6     1    1
     7     7     1    1
     8     8    28    1
     9     9     1    1
    10    10     1    1
    11    11    12    1
    12    13     2    1
    13    14     3    1
    14    15     4    2
    15    16     4    1
    16    17    16    1
    17    18    17    1
    18    19    20    1
    19    20     6    2
    20    21     5    1
    21    22     6    1
    22    23     7    2
    23    24     7    1
    24    25    24    1
    25    26    25    1
    26    27    28    1
    27    28     9    2
    28    29     8    1
    29    30     9    1
    30    31    10    2
    31    32    10    1
    32    33    32    1
    33    34    33    1
    34    35     2    1
    35    36     5    1
    36    37     8    1
    37    38    11    1
    38    39    11    1
    39    40    11    1
    40    41    13    1
    41    42    15    1
    42    43    16    1
    43    44    16    1
    44    45    17    1
    45    46    17    1
    46    47    18    1
    47    48    18    1
    48    49    18    1
    49    50    19    1
    50    51    19    1
    51    52    19    1
    52    53    21    1
    53    54    23    1
    54    55    24    1
    55    56    24    1
    56    57    25    1
    57    58    25    1
    58    59    26    1
    59    60    26    1
    60    61    26    1
    61    62    27    1
    62    63    27    1
    63    64    27    1
    64    65    29    1
    65    66    31    1
    66    67    32    1
    67    68    32    1
    68    69    33    1
    69    70    33    1
    70    71    34    1
    71    72    34    1
    72    73    34    1
    73    13    14    2
    74    14    15    1
    75    21    22    2
    76    22    23    1
    77    29    30    2
    78    30    31    1
    79    75    76    1
    80    77    75    1
    81    78    75    1
    82    79    75    1
    83    80    75    1
    84    81    75    1
@<TRIPOS>SUBSTRUCTURE
     1 RES1        1 GROUP             0 ****  ****    0  
     2 RES2       74 GROUP             0 ****  ****    0  
     3 RES3       75 GROUP             0 ****  ****    0  
@<TRIPOS>CRYSIN
   10.3701   12.8069   12.8779   84.7420   68.9970   76.9040     2     1
