@<TRIPOS>MOLECULE
RANDIV
    82    85     3     0     0
SMALL
USER_CHARGES
****
Generated from the CSD

@<TRIPOS>ATOM
     1 Fe1      5.2739   3.4590   9.1733   Fe        1 RES1   2.0000
     2 N1       8.5100   0.7825  10.3890   N.pl3     1 RES1   0.0000
     3 N2       6.7846   2.0503   9.8387   N.2       1 RES1   0.0000
     4 N3       5.3899   3.8510  11.3745   N.2       1 RES1   0.0000
     5 N4       1.7949   0.8976   9.4986   N.pl3     1 RES1   0.0000
     6 N5       3.5274   2.2341   9.4198   N.2       1 RES1   0.0000
     7 N6       3.6765   4.8324   8.6018   N.2       1 RES1   0.0000
     8 N7       5.6660   2.6540   4.9075   N.pl3     1 RES1   0.0000
     9 N8       5.4567   3.0525   7.0573   N.2       1 RES1   0.0000
    10 N9       6.8340   4.8925   8.6069   N.2       1 RES1   0.0000
    11 C1       8.1120   1.4250  11.5183   C.2       1 RES1   0.0000
    12 C2       7.6638   1.2146   9.3685   C.2       1 RES1   0.0000
    13 C3       7.7937   0.6885   7.9678   C.3       1 RES1   0.0000
    14 C4       7.0327   2.2101  11.1681   C.2       1 RES1   0.0000
    15 C5       6.2631   3.1282  11.9398   C.2       1 RES1   0.0000
    16 C6       4.6086   4.7600  12.1699   C.3       1 RES1   0.0000
    17 C7       3.1953   4.2838  12.3462   C.3       1 RES1   0.0000
    18 C8       3.1842   3.0332  13.2680   C.3       1 RES1   0.0000
    19 C9       1.7838   2.5930  13.6219   C.3       1 RES1   0.0000
    20 C10      1.3802   2.0259   9.0258   C.2       1 RES1   0.0000
    21 C11      3.1112   1.0059   9.7812   C.2       1 RES1   0.0000
    22 C12      3.9758  -0.0475  10.3540   C.3       1 RES1   0.0000
    23 C13      2.4072   2.8539   8.9133   C.2       1 RES1   0.0000
    24 C14      2.5739   4.2372   8.4605   C.2       1 RES1   0.0000
    25 C15      3.6883   6.2349   8.0703   C.3       1 RES1   0.0000
    26 C16      3.6264   7.1960   9.1359   C.3       1 RES1   0.0000
    27 C17      2.2932   7.3799   9.6674   C.3       1 RES1   0.0000
    28 C18      2.7304   8.3574  10.9055   C.3       1 RES1   0.0000
    29 C19      6.5986   3.6379   5.1989   C.2       1 RES1   0.0000
    30 C20      5.0395   2.2878   6.0718   C.2       1 RES1   0.0000
    31 C21      4.0311   1.2180   6.1819   C.3       1 RES1   0.0000
    32 C22      6.4476   3.9075   6.5183   C.2       1 RES1   0.0000
    33 C23      7.0876   4.8857   7.3162   C.2       1 RES1   0.0000
    34 C24      7.5259   5.8723   9.4635   C.3       1 RES1   0.0000
    35 C25      8.4875   5.5064  10.3865   C.3       1 RES1   0.0000
    36 C26      9.4526   4.8582   9.7662   C.3       1 RES1   0.0000
    37 C27     10.6468   4.8279  10.6304   C.3       1 RES1   0.0000
    38 H1       9.2125   0.1784  10.3127   H         1 RES1   0.0000
    39 H2       1.2845   0.1404   9.6774   H         1 RES1   0.0000
    40 H3       5.5124   2.2663   4.0758   H         1 RES1   0.0000
    41 H4       8.4958   1.3410  12.3612   H         1 RES1   0.0000
    42 H5       7.5612   1.3850   7.3500   H         1 RES1   0.0000
    43 H6       8.7012   0.4148   7.8114   H         1 RES1   0.0000
    44 H7       7.2078  -0.0608   7.8415   H         1 RES1   0.0000
    45 H8       6.3992   3.2065  12.8565   H         1 RES1   0.0000
    46 H9       5.0408   4.8185  13.0366   H         1 RES1   0.0000
    47 H10      4.6317   5.6298  11.7409   H         1 RES1   0.0000
    48 H11      2.6575   4.9807  12.7539   H         1 RES1   0.0000
    49 H12      2.8380   4.0723  11.4695   H         1 RES1   0.0000
    50 H13      3.6486   2.3086  12.8177   H         1 RES1   0.0000
    51 H14      3.6228   3.2249  14.1109   H         1 RES1   0.0000
    52 H15      1.3313   2.4914  12.7815   H         1 RES1   0.0000
    53 H16      1.7522   1.7639  14.1034   H         1 RES1   0.0000
    54 H17      1.3516   3.2786  14.1359   H         1 RES1   0.0000
    55 H18      0.5097   2.2077   8.7519   H         1 RES1   0.0000
    56 H19      4.8934   0.2334  10.3352   H         1 RES1   0.0000
    57 H20      3.7084  -0.2083  11.2619   H         1 RES1   0.0000
    58 H21      3.8797  -0.8559   9.8450   H         1 RES1   0.0000
    59 H22      1.8499   4.6759   8.0766   H         1 RES1   0.0000
    60 H23      4.5127   6.3478   7.5713   H         1 RES1   0.0000
    61 H24      2.9316   6.3997   7.4850   H         1 RES1   0.0000
    62 H25      4.2235   6.8762   9.8312   H         1 RES1   0.0000
    63 H26      3.9466   8.0479   8.8032   H         1 RES1   0.0000
    64 H27      1.6459   7.8519   9.1209   H         1 RES1   0.0000
    65 H28      1.8596   6.5816  10.0088   H         1 RES1   0.0000
    66 H29      7.1761   4.0470   4.5961   H         1 RES1   0.0000
    67 H30      4.0436   0.8297   7.0598   H         1 RES1   0.0000
    68 H31      3.1653   1.5950   6.0118   H         1 RES1   0.0000
    69 H32      4.2192   0.5397   5.5303   H         1 RES1   0.0000
    70 H33      7.7289   5.4592   6.9610   H         1 RES1   0.0000
    71 H34      7.7997   6.5832   8.8632   H         1 RES1   0.0000
    72 H35      6.8782   6.2148  10.0989   H         1 RES1   0.0000
    73 H36      8.8369   6.2975  10.8192   H         1 RES1   0.0000
    74 H37      9.0579   4.0065   9.5198   H         1 RES1   0.0000
    75 Cl1      9.4898   1.3082  14.7441   Cl        2 RES2  -1.0000
    76 P1       6.8574   9.7359   7.1949   P.3       3 RES3  -1.0000
    77 F1       7.8287  10.8268   7.7402   F         3 RES3   0.0000
    78 F2       5.7962  10.7530   6.9860   F         3 RES3   0.0000
    79 F3       6.3851   9.3030   8.6519   F         3 RES3   0.0000
    80 F4       5.9766   8.6072   6.6484   F         3 RES3   0.0000
    81 F5       8.0549   8.7114   7.4913   F         3 RES3   0.0000
    82 F6       7.4962  10.0097   5.8092   F         3 RES3   0.0000
@<TRIPOS>BOND
     1     1     3    1
     2     2    11    1
     3     3    12    2
     4     4     1    1
     5     5    20    1
     6     6     1    1
     7     7     1    1
     8     8    29    1
     9     9     1    1
    10    10     1    1
    11    11    14    2
    12    12     2    1
    13    13    12    1
    14    14     3    1
    15    15     4    2
    16    16     4    1
    17    17    16    1
    18    18    17    1
    19    19    18    1
    20    20    23    2
    21    21     5    1
    22    22    21    1
    23    23     6    1
    24    24     7    2
    25    25     7    1
    26    26    25    1
    27    27    26    1
    28    28    27    1
    29    29    32    2
    30    30     8    1
    31    31    30    1
    32    32     9    1
    33    33    10    2
    34    34    10    1
    35    35    34    1
    36    36    35    1
    37    37    36    1
    38    38     2    1
    39    39     5    1
    40    40     8    1
    41    41    11    1
    42    42    13    1
    43    43    13    1
    44    44    13    1
    45    45    15    1
    46    46    16    1
    47    47    16    1
    48    48    17    1
    49    49    17    1
    50    50    18    1
    51    51    18    1
    52    52    19    1
    53    53    19    1
    54    54    19    1
    55    55    20    1
    56    56    22    1
    57    57    22    1
    58    58    22    1
    59    59    24    1
    60    60    25    1
    61    61    25    1
    62    62    26    1
    63    63    26    1
    64    64    27    1
    65    65    27    1
    66    66    29    1
    67    67    31    1
    68    68    31    1
    69    69    31    1
    70    70    33    1
    71    71    34    1
    72    72    34    1
    73    73    35    1
    74    74    36    1
    75     6    21    2
    76     9    30    2
    77    14    15    1
    78    23    24    1
    79    32    33    1
    80    76    77    1
    81    78    76    1
    82    79    76    1
    83    80    76    1
    84    81    76    1
    85    82    76    1
@<TRIPOS>SUBSTRUCTURE
     1 RES1        1 GROUP             0 ****  ****    0  
     2 RES2       75 GROUP             0 ****  ****    0  
     3 RES3       76 GROUP             0 ****  ****    0  
@<TRIPOS>CRYSIN
   11.2110   13.2060   13.3150   86.9340   69.9300   81.7000     2     1
