@<TRIPOS>MOLECULE
RANTAD
    92   100     2     0     0
SMALL
USER_CHARGES
****
Generated from the CSD

@<TRIPOS>ATOM
     1 Fe1      5.1813   6.6297   6.2423   Fe        1 RES1   2.0000
     2 N1       6.0501   8.3282   6.9489   N.pl3     1 RES1   0.0000
     3 H1       5.7224   9.0761   6.5669   H         1 RES1   0.0000
     4 H2       6.0582   8.4065   7.8453   H         1 RES1   0.0000
     5 C1       7.4834   8.4370   6.7217   C.ar      1 RES1   0.0000
     6 C2       8.2121   9.4951   7.2311   C.ar      1 RES1   0.0000
     7 H3       7.7852  10.1474   7.7741   H         1 RES1   0.0000
     8 C3       9.5570   9.6051   6.9514   C.ar      1 RES1   0.0000
     9 H4      10.0607  10.3238   7.3135   H         1 RES1   0.0000
    10 C4      10.1685   8.6756   6.1511   C.ar      1 RES1   0.0000
    11 H5      11.0927   8.7698   5.9539   H         1 RES1   0.0000
    12 C5       9.4811   7.6175   5.6318   C.ar      1 RES1   0.0000
    13 H6       9.9165   6.9811   5.0762   H         1 RES1   0.0000
    14 C6       8.1155   7.4902   5.9377   C.ar      1 RES1   0.0000
    15 S1       7.1461   6.1620   5.2637   S.3       1 RES1   0.0000
    16 C7       7.8434   4.7389   6.1849   C.3       1 RES1   0.0000
    17 H7       7.3749   3.9075   5.9164   H         1 RES1   0.0000
    18 H8       8.8023   4.6368   5.9639   H         1 RES1   0.0000
    19 C8       7.6842   4.9550   7.6780   C.3       1 RES1   0.0000
    20 H9       8.3385   5.6313   7.9839   H         1 RES1   0.0000
    21 H10      7.8721   4.1078   8.1549   H         1 RES1   0.0000
    22 P1       5.9833   5.5220   8.0843   P.3       1 RES1   0.0000
    23 C9       5.0220   4.0203   8.4883   C.ar      1 RES1   0.0000
    24 C10      5.4737   2.7487   8.1387   C.ar      1 RES1   0.0000
    25 H11      6.3377   2.6426   7.7579   H         1 RES1   0.0000
    26 C11      4.6681   1.6375   8.3422   C.ar      1 RES1   0.0000
    27 H12      4.9880   0.7743   8.1100   H         1 RES1   0.0000
    28 C12      3.4069   1.7781   8.8778   C.ar      1 RES1   0.0000
    29 H13      2.8527   1.0157   9.0014   H         1 RES1   0.0000
    30 C13      2.9543   3.0338   9.2348   C.ar      1 RES1   0.0000
    31 H14      2.0900   3.1305   9.6181   H         1 RES1   0.0000
    32 C14      3.7471   4.1475   9.0401   C.ar      1 RES1   0.0000
    33 H15      3.4224   5.0067   9.2835   H         1 RES1   0.0000
    34 C15      6.1934   6.3963   9.6818   C.ar      1 RES1   0.0000
    35 C16      7.3563   6.2916  10.4296   C.ar      1 RES1   0.0000
    36 H16      8.0846   5.7811  10.0988   H         1 RES1   0.0000
    37 C17      7.4626   6.9280  11.6606   C.ar      1 RES1   0.0000
    38 H17      8.2570   6.8273  12.1737   H         1 RES1   0.0000
    39 C18      6.4405   7.6958  12.1412   C.ar      1 RES1   0.0000
    40 H18      6.5328   8.1439  12.9740   H         1 RES1   0.0000
    41 C19      5.2683   7.8177  11.4121   C.ar      1 RES1   0.0000
    42 H19      4.5502   8.3415  11.7467   H         1 RES1   0.0000
    43 C20      5.1467   7.1667  10.1812   C.ar      1 RES1   0.0000
    44 H20      4.3436   7.2516   9.6818   H         1 RES1   0.0000
    45 N1B      4.3124   4.9312   5.5357   N.pl3     1 RES1   0.0000
    46 H1B      4.6402   4.1833   5.9177   H         1 RES1   0.0000
    47 H2B      4.3043   4.8529   4.6393   H         1 RES1   0.0000
    48 C1B      2.8792   4.8224   5.7629   C.ar      1 RES1   0.0000
    49 C2B      2.1504   3.7643   5.2535   C.ar      1 RES1   0.0000
    50 H3B      2.5773   3.1120   4.7104   H         1 RES1   0.0000
    51 C3B      0.8056   3.6543   5.5332   C.ar      1 RES1   0.0000
    52 H4B      0.3019   2.9356   5.1711   H         1 RES1   0.0000
    53 C4B      0.1940   4.5838   6.3334   C.ar      1 RES1   0.0000
    54 H5B     -0.7302   4.4896   6.5307   H         1 RES1   0.0000
    55 C5B      0.8815   5.6419   6.8528   C.ar      1 RES1   0.0000
    56 H6B      0.4460   6.2783   7.4083   H         1 RES1   0.0000
    57 C6B      2.2471   5.7692   6.5469   C.ar      1 RES1   0.0000
    58 S1B      3.2165   7.0974   7.2208   S.3       1 RES1   0.0000
    59 C7B      2.5191   8.5205   6.2997   C.3       1 RES1   0.0000
    60 H7B      2.9876   9.3519   6.5681   H         1 RES1   0.0000
    61 H8B      1.5603   8.6226   6.5207   H         1 RES1   0.0000
    62 C8B      2.6784   8.3044   4.8066   C.3       1 RES1   0.0000
    63 H9B      2.0241   7.6281   4.5007   H         1 RES1   0.0000
    64 H10B     2.4904   9.1516   4.3297   H         1 RES1   0.0000
    65 P1B      4.3792   7.7374   4.4003   P.3       1 RES1   0.0000
    66 C9B      5.3406   9.2391   3.9963   C.ar      1 RES1   0.0000
    67 C10B     4.8889  10.5107   4.3459   C.ar      1 RES1   0.0000
    68 H11B     4.0249  10.6168   4.7267   H         1 RES1   0.0000
    69 C11B     5.6945  11.6219   4.1424   C.ar      1 RES1   0.0000
    70 H12B     5.3746  12.4851   4.3746   H         1 RES1   0.0000
    71 C12B     6.9557  11.4813   3.6068   C.ar      1 RES1   0.0000
    72 H13B     7.5099  12.2437   3.4832   H         1 RES1   0.0000
    73 C13B     7.4082  10.2256   3.2497   C.ar      1 RES1   0.0000
    74 H14B     8.2726  10.1289   2.8665   H         1 RES1   0.0000
    75 C14B     6.6154   9.1119   3.4445   C.ar      1 RES1   0.0000
    76 H15B     6.9402   8.2527   3.2010   H         1 RES1   0.0000
    77 C15B     4.1692   6.8631   2.8028   C.ar      1 RES1   0.0000
    78 C16B     3.0062   6.9678   2.0550   C.ar      1 RES1   0.0000
    79 H16B     2.2780   7.4783   2.3858   H         1 RES1   0.0000
    80 C17B     2.9000   6.3314   0.8240   C.ar      1 RES1   0.0000
    81 H17B     2.1055   6.4321   0.3109   H         1 RES1   0.0000
    82 C18B     3.9221   5.5636   0.3433   C.ar      1 RES1   0.0000
    83 H18B     3.8298   5.1155  -0.4894   H         1 RES1   0.0000
    84 C19B     5.0942   5.4417   1.0724   C.ar      1 RES1   0.0000
    85 H19B     5.8123   4.9179   0.7378   H         1 RES1   0.0000
    86 C20B     5.2159   6.0927   2.3034   C.ar      1 RES1   0.0000
    87 H20B     6.0190   6.0078   2.8028   H         1 RES1   0.0000
    88 B1       4.4201  11.1246   8.5856   B         2 RES2  -1.0000
    89 F1       3.2017  11.7437   8.4982   F         2 RES2   0.0000
    90 F2       5.1317  11.6921   9.6187   F         2 RES2   0.0000
    91 F3       4.2422   9.7642   8.8154   F         2 RES2   0.0000
    92 F4       5.1211  11.2758   7.4009   F         2 RES2   0.0000
@<TRIPOS>BOND
     1     1     2    1
     2     2     3    1
     3     4     2    1
     4     5     2    1
     5     6     5   ar
     6     7     6    1
     7     8     6   ar
     8     9     8    1
     9    10     8   ar
    10    11    10    1
    11    12    10   ar
    12    13    12    1
    13    14     5   ar
    14    15     1    1
    15    16    15    1
    16    17    16    1
    17    18    16    1
    18    19    16    1
    19    20    19    1
    20    21    19    1
    21    22     1    1
    22    23    22    1
    23    24    23   ar
    24    25    24    1
    25    26    24   ar
    26    27    26    1
    27    28    26   ar
    28    29    28    1
    29    30    28   ar
    30    31    30    1
    31    32    23   ar
    32    33    32    1
    33    34    22    1
    34    35    34   ar
    35    36    35    1
    36    37    35   ar
    37    38    37    1
    38    39    37   ar
    39    40    39    1
    40    41    39   ar
    41    42    41    1
    42    43    34   ar
    43    44    43    1
    44    45     1    1
    45    46    45    1
    46    47    45    1
    47    48    45    1
    48    49    48   ar
    49    50    49    1
    50    51    49   ar
    51    52    51    1
    52    53    51   ar
    53    54    53    1
    54    55    53   ar
    55    56    55    1
    56    57    48   ar
    57    58     1    1
    58    59    58    1
    59    60    59    1
    60    61    59    1
    61    62    59    1
    62    63    62    1
    63    64    62    1
    64    65     1    1
    65    66    65    1
    66    67    66   ar
    67    68    67    1
    68    69    67   ar
    69    70    69    1
    70    71    69   ar
    71    72    71    1
    72    73    71   ar
    73    74    73    1
    74    75    66   ar
    75    76    75    1
    76    77    65    1
    77    78    77   ar
    78    79    78    1
    79    80    78   ar
    80    81    80    1
    81    82    80   ar
    82    83    82    1
    83    84    82   ar
    84    85    84    1
    85    86    77   ar
    86    87    86    1
    87    12    14   ar
    88    14    15    1
    89    19    22    1
    90    30    32   ar
    91    41    43   ar
    92    55    57   ar
    93    57    58    1
    94    62    65    1
    95    73    75   ar
    96    84    86   ar
    97    88    89    1
    98    90    88    1
    99    91    88    1
   100    92    88    1
@<TRIPOS>SUBSTRUCTURE
     1 RES1        1 GROUP             0 ****  ****    0  
     2 RES2       88 GROUP             0 ****  ****    0  
@<TRIPOS>CRYSIN
   11.8126   13.2594   12.5685   90.0000   96.6250   90.0000   231     1
