@<TRIPOS>MOLECULE
RAPFAS
   113   117     5     0     0
SMALL
USER_CHARGES
****
Generated from the CSD

@<TRIPOS>ATOM
     1 Fe1      9.5902   8.4153   3.6423   Fe        1 RES1   2.0000
     2 N1       7.7191   8.0940   4.1599   N.ar      1 RES1   0.0000
     3 N2       8.7142   9.0390   1.9772   N.2       1 RES1   0.0000
     4 N3       9.7709   6.6007   2.8731   N.ar      1 RES1   0.0000
     5 N4      11.4478   8.5619   2.9423   N.2       1 RES1   0.0000
     6 N5      10.3194   7.9128   5.4088   N.ar      1 RES1   0.0000
     7 N6       9.5432  10.2039   4.4972   N.2       1 RES1   0.0000
     8 C1       7.2410   7.5596   5.3216   C.ar      1 RES1   0.0000
     9 H1       7.8474   7.3474   6.0209   H         1 RES1   0.0000
    10 C2       5.8950   7.3257   5.4981   C.ar      1 RES1   0.0000
    11 H2       5.5868   6.9508   6.3136   H         1 RES1   0.0000
    12 C3       4.9943   7.6262   4.5062   C.ar      1 RES1   0.0000
    13 H3       4.0671   7.4667   4.6313   H         1 RES1   0.0000
    14 C4       5.4522   8.1591   3.3377   C.ar      1 RES1   0.0000
    15 H4       4.8471   8.3775   2.6385   H         1 RES1   0.0000
    16 C5       6.8284   8.3822   3.1814   C.ar      1 RES1   0.0000
    17 C6       7.4398   8.9244   1.9906   C.2       1 RES1   0.0000
    18 H5       6.9152   9.1846   1.2422   H         1 RES1   0.0000
    19 C7       9.3834   9.5812   0.7886   C.3       1 RES1   0.0000
    20 H6      10.1697  10.1079   1.1081   H         1 RES1   0.0000
    21 C8       9.9206   8.4782  -0.0961   C.ar      1 RES1   0.0000
    22 C9      11.0880   8.7214  -0.8356   C.ar      1 RES1   0.0000
    23 H7      11.5434   9.5518  -0.7484   H         1 RES1   0.0000
    24 C10     11.5849   7.7285  -1.7046   C.ar      1 RES1   0.0000
    25 H8      12.3838   7.8741  -2.1961   H         1 RES1   0.0000
    26 C11     10.8943   6.5465  -1.8253   C.ar      1 RES1   0.0000
    27 H9      11.2251   5.8757  -2.4106   H         1 RES1   0.0000
    28 C12      9.7545   6.3110  -1.1327   C.ar      1 RES1   0.0000
    29 H10      9.3017   5.4823  -1.2332   H         1 RES1   0.0000
    30 C13      9.2513   7.2684  -0.2860   C.ar      1 RES1   0.0000
    31 H11      8.4374   7.1057   0.1765   H         1 RES1   0.0000
    32 C14      8.5255  10.5246  -0.0536   C.3       1 RES1   0.0000
    33 H12      7.8336  10.0087  -0.5183   H         1 RES1   0.0000
    34 H13      9.0903  10.9816  -0.7104   H         1 RES1   0.0000
    35 H14      8.1015  11.1876   0.5295   H         1 RES1   0.0000
    36 C15      8.8500   5.6232   2.8060   C.ar      1 RES1   0.0000
    37 H15      8.0097   5.7627   3.2260   H         1 RES1   0.0000
    38 C16      9.0677   4.4366   2.1581   C.ar      1 RES1   0.0000
    39 H16      8.3909   3.7705   2.1336   H         1 RES1   0.0000
    40 C17     10.2628   4.2244   1.5527   C.ar      1 RES1   0.0000
    41 H17     10.4200   3.4080   1.0947   H         1 RES1   0.0000
    42 C18     11.2591   5.1910   1.5974   C.ar      1 RES1   0.0000
    43 H18     12.1032   5.0485   1.1863   H         1 RES1   0.0000
    44 C19     10.9748   6.3823   2.2698   C.ar      1 RES1   0.0000
    45 C20     11.8755   7.4837   2.3614   C.2       1 RES1   0.0000
    46 H19     12.7561   7.4295   2.0085   H         1 RES1   0.0000
    47 C21     12.3888   9.7144   3.1099   C.3       1 RES1   0.0000
    48 H20     11.8353  10.5463   3.0741   H         1 RES1   0.0000
    49 C22     13.0392   9.6881   4.4570   C.ar      1 RES1   0.0000
    50 C23     13.6719   8.5402   4.9396   C.ar      1 RES1   0.0000
    51 H21     13.6518   7.7424   4.4235   H         1 RES1   0.0000
    52 C24     14.3374   8.5510   6.1728   C.ar      1 RES1   0.0000
    53 H22     14.7589   7.7641   6.4968   H         1 RES1   0.0000
    54 C25     14.3714   9.7191   6.9145   C.ar      1 RES1   0.0000
    55 H23     14.8280   9.7314   7.7479   H         1 RES1   0.0000
    56 C26     13.7487  10.8700   6.4588   C.ar      1 RES1   0.0000
    57 H24     13.7776  11.6709   6.9704   H         1 RES1   0.0000
    58 C27     13.0870  10.8329   5.2457   C.ar      1 RES1   0.0000
    59 H25     12.6479  11.6183   4.9396   H         1 RES1   0.0000
    60 C28     13.4317   9.8337   2.0196   C.3       1 RES1   0.0000
    61 H26     14.1336   9.1645   2.1626   H         1 RES1   0.0000
    62 H27     13.8267  10.7306   2.0397   H         1 RES1   0.0000
    63 H28     13.0115   9.6819   1.1461   H         1 RES1   0.0000
    64 C29     10.6553   6.7030   5.8511   C.ar      1 RES1   0.0000
    65 H29     10.5081   5.9454   5.2971   H         1 RES1   0.0000
    66 C30     11.2239   6.5248   7.1268   C.ar      1 RES1   0.0000
    67 H30     11.4377   5.6511   7.4306   H         1 RES1   0.0000
    68 C31     11.4704   7.6107   7.9333   C.ar      1 RES1   0.0000
    69 H31     11.8894   7.5054   8.7778   H         1 RES1   0.0000
    70 C32     11.0968   8.8407   7.4842   C.ar      1 RES1   0.0000
    71 H32     11.2327   9.6106   8.0249   H         1 RES1   0.0000
    72 C33     10.5257   8.9584   6.2443   C.ar      1 RES1   0.0000
    73 C34     10.0653  10.2241   5.6836   C.2       1 RES1   0.0000
    74 H33     10.1470  11.0358   6.1706   H         1 RES1   0.0000
    75 C35      8.9280  11.4169   3.9633   C.3       1 RES1   0.0000
    76 H34      9.0501  11.3952   2.9714   H         1 RES1   0.0000
    77 C36      7.4297  11.4277   4.2292   C.ar      1 RES1   0.0000
    78 C37      6.9140  11.0699   5.4780   C.ar      1 RES1   0.0000
    79 H35      7.4989  10.7833   6.1706   H         1 RES1   0.0000
    80 C38      5.5478  11.1318   5.7059   C.ar      1 RES1   0.0000
    81 H36      5.2056  10.8871   6.5571   H         1 RES1   0.0000
    82 C39      4.6911  11.5377   4.7341   C.ar      1 RES1   0.0000
    83 H37      3.7551  11.5594   4.9016   H         1 RES1   0.0000
    84 C40      5.1867  11.9172   3.5008   C.ar      1 RES1   0.0000
    85 H38      4.5917  12.2193   2.8239   H         1 RES1   0.0000
    86 C41      6.5542  11.8599   3.2461   C.ar      1 RES1   0.0000
    87 H39      6.8888  12.1171   2.3950   H         1 RES1   0.0000
    88 C42      9.5482  12.7321   4.4682   C.3       1 RES1   0.0000
    89 H40      9.3859  12.8219   5.4289   H         1 RES1   0.0000
    90 H41      9.1406  13.4880   3.9946   H         1 RES1   0.0000
    91 H42     10.5131  12.7228   4.2984   H         1 RES1   0.0000
    92 B1       2.2820   5.1910   2.6742   B         2 RES2  -1.0000
    93 F1       1.2945   5.1291   3.6103   F         2 RES2   0.0000
    94 F2       2.5563   6.5233   2.4039   F         2 RES2   0.0000
    95 F3       1.9046   4.5544   1.5304   F         2 RES2   0.0000
    96 F4       3.4369   4.5807   3.1501   F         2 RES2   0.0000
    97 B2      11.1484  13.1674   0.8691   B         3 RES3  -1.0000
    98 F5       9.7935  13.1999   1.1707   F         3 RES3   0.0000
    99 F6      11.8629  12.7661   1.9749   F         3 RES3   0.0000
   100 F7      11.6101  14.4469   0.5563   F         3 RES3   0.0000
   101 F8      11.4289  12.2766  -0.1698   F         3 RES3   0.0000
   102 O1       6.0044   4.7340   2.3659   O.3       4 RES4   0.0000
   103 H43      5.5025   5.1972   2.8552   H         4 RES4   0.0000
   104 C43      5.8359   5.0795   1.1171   C.3       4 RES4   0.0000
   105 H44      5.5503   6.0167   1.0724   H         4 RES4   0.0000
   106 H45      5.1503   4.5094   0.7104   H         4 RES4   0.0000
   107 H46      6.6800   4.9726   0.6323   H         4 RES4   0.0000
   108 O2       8.6563   0.0465   2.1023   O.3       5 RES5   0.0000
   109 H47      8.8450  -0.7482   1.9057   H         5 RES5   0.0000
   110 C44      8.6098   0.7544   1.0255   C.3       5 RES5   0.0000
   111 H48      7.9267   1.4500   1.1238   H         5 RES5   0.0000
   112 H49      8.3833   0.1781   0.2659   H         5 RES5   0.0000
   113 H50      9.4815   1.1711   0.8713   H         5 RES5   0.0000
@<TRIPOS>BOND
     1     1     2    1
     2     2     8   ar
     3     3     1    1
     4     4     1    1
     5     5     1    1
     6     6     1    1
     7     7     1    1
     8     8     9    1
     9    10     8   ar
    10    11    10    1
    11    12    10   ar
    12    13    12    1
    13    14    12   ar
    14    15    14    1
    15    16     2   ar
    16    17     3    2
    17    18    17    1
    18    19     3    1
    19    20    19    1
    20    21    19    1
    21    22    21   ar
    22    23    22    1
    23    24    22   ar
    24    25    24    1
    25    26    24   ar
    26    27    26    1
    27    28    26   ar
    28    29    28    1
    29    30    21   ar
    30    31    30    1
    31    32    19    1
    32    33    32    1
    33    34    32    1
    34    35    32    1
    35    36     4   ar
    36    37    36    1
    37    38    36   ar
    38    39    38    1
    39    40    38   ar
    40    41    40    1
    41    42    40   ar
    42    43    42    1
    43    44     4   ar
    44    45     5    2
    45    46    45    1
    46    47     5    1
    47    48    47    1
    48    49    47    1
    49    50    49   ar
    50    51    50    1
    51    52    50   ar
    52    53    52    1
    53    54    52   ar
    54    55    54    1
    55    56    54   ar
    56    57    56    1
    57    58    49   ar
    58    59    58    1
    59    60    47    1
    60    61    60    1
    61    62    60    1
    62    63    60    1
    63    64     6   ar
    64    65    64    1
    65    66    64   ar
    66    67    66    1
    67    68    66   ar
    68    69    68    1
    69    70    68   ar
    70    71    70    1
    71    72     6   ar
    72    73     7    2
    73    74    73    1
    74    75     7    1
    75    76    75    1
    76    77    75    1
    77    78    77   ar
    78    79    78    1
    79    80    78   ar
    80    81    80    1
    81    82    80   ar
    82    83    82    1
    83    84    82   ar
    84    85    84    1
    85    86    77   ar
    86    87    86    1
    87    88    75    1
    88    89    88    1
    89    90    88    1
    90    91    88    1
    91    14    16   ar
    92    16    17    1
    93    28    30   ar
    94    42    44   ar
    95    44    45    1
    96    56    58   ar
    97    70    72   ar
    98    72    73    1
    99    84    86   ar
   100    92    93    1
   101    94    92    1
   102    95    92    1
   103    96    92    1
   104    97    98    1
   105    99    97    1
   106   100    97    1
   107   101    97    1
   108   102   103    1
   109   104   102    1
   110   105   104    1
   111   106   104    1
   112   107   104    1
   113   108   109    1
   114   110   108    1
   115   111   110    1
   116   112   110    1
   117   113   110    1
@<TRIPOS>SUBSTRUCTURE
     1 RES1        1 GROUP             0 ****  ****    0  
     2 RES2       92 GROUP             0 ****  ****    0  
     3 RES3       97 GROUP             0 ****  ****    0  
     4 RES4      102 GROUP             0 ****  ****    0  
     5 RES5      108 GROUP             0 ****  ****    0  
@<TRIPOS>CRYSIN
   12.5800   15.4910   22.3410   90.0000   90.0000   90.0000    19     1
