@<TRIPOS>MOLECULE
RAPHAU
   103   107     5     0     0
SMALL
USER_CHARGES
****
Generated from the CSD

@<TRIPOS>ATOM
     1 Fe1      2.8098   8.1232   3.4133   Fe        1 RES1   2.0000
     2 N1       2.5298   6.3960   2.4972   N.ar      1 RES1   0.0000
     3 N2       0.9077   8.3825   2.8599   N.2       1 RES1   0.0000
     4 N3       2.1647   7.5003   5.1723   N.ar      1 RES1   0.0000
     5 N4       2.9763   9.8184   4.3898   N.2       1 RES1   0.0000
     6 N5       4.6896   7.6808   3.8120   N.ar      1 RES1   0.0000
     7 N6       3.6310   8.8575   1.7631   N.2       1 RES1   0.0000
     8 C1       3.4095   5.4058   2.2858   C.ar      1 RES1   0.0000
     9 H1       4.2650   5.4660   2.6946   H         1 RES1   0.0000
    10 C2       3.1321   4.3031   1.5034   C.ar      1 RES1   0.0000
    11 H2       3.7916   3.6337   1.3627   H         1 RES1   0.0000
    12 C3       1.8885   4.1828   0.9297   C.ar      1 RES1   0.0000
    13 H3       1.6792   3.4286   0.3934   H         1 RES1   0.0000
    14 C4       0.9370   5.1807   1.1451   C.ar      1 RES1   0.0000
    15 H4       0.0694   5.1143   0.7671   H         1 RES1   0.0000
    16 C5       1.2910   6.2711   1.9254   C.ar      1 RES1   0.0000
    17 C6       0.4210   7.3877   2.1825   C.2       1 RES1   0.0000
    18 H5      -0.4758   7.3954   1.8704   H         1 RES1   0.0000
    19 C7       0.0365   9.5346   3.1979   C.3       1 RES1   0.0000
    20 H6       0.6011  10.3582   3.1562   H         1 RES1   0.0000
    21 C8      -0.5086   9.4236   4.6068   C.ar      1 RES1   0.0000
    22 C9      -1.1864   8.2869   5.0420   C.ar      1 RES1   0.0000
    23 H7      -1.2667   7.5373   4.4639   H         1 RES1   0.0000
    24 C10     -1.7425   8.2360   6.3035   C.ar      1 RES1   0.0000
    25 H8      -2.1878   7.4448   6.5849   H         1 RES1   0.0000
    26 C11     -1.6634   9.3048   7.1563   C.ar      1 RES1   0.0000
    27 H9      -2.0637   9.2663   8.0179   H         1 RES1   0.0000
    28 C12     -0.9893  10.4477   6.7453   C.ar      1 RES1   0.0000
    29 H10     -0.9199  11.1972   7.3256   H         1 RES1   0.0000
    30 C13     -0.4210  10.4878   5.4903   C.ar      1 RES1   0.0000
    31 H11      0.0462  11.2697   5.2222   H         1 RES1   0.0000
    32 C14     -1.1462   9.7382   2.2375   C.3       1 RES1   0.0000
    33 H12     -0.8165   9.7737   1.3143   H         1 RES1   0.0000
    34 H13     -1.6026  10.5772   2.4528   H         1 RES1   0.0000
    35 H14     -1.7753   8.9917   2.3298   H         1 RES1   0.0000
    36 C15      1.7741   6.2742   5.5563   C.ar      1 RES1   0.0000
    37 H15      1.8350   5.5631   4.9299   H         1 RES1   0.0000
    38 C16      1.2935   5.9996   6.8069   C.ar      1 RES1   0.0000
    39 H16      1.0306   5.1159   7.0376   H         1 RES1   0.0000
    40 C17      1.1937   7.0083   7.7256   C.ar      1 RES1   0.0000
    41 H17      0.8469   6.8386   8.5937   H         1 RES1   0.0000
    42 C18      1.6099   8.2961   7.3651   C.ar      1 RES1   0.0000
    43 H18      1.5660   9.0149   7.9849   H         1 RES1   0.0000
    44 C19      2.0795   8.4905   6.1035   C.ar      1 RES1   0.0000
    45 C20      2.5675   9.7567   5.6090   C.2       1 RES1   0.0000
    46 H19      2.5857  10.5248   6.1695   H         1 RES1   0.0000
    47 C21      3.6273  11.0661   3.9254   C.3       1 RES1   0.0000
    48 H20      3.5373  11.0877   2.9298   H         1 RES1   0.0000
    49 C22      5.1411  11.0368   4.2375   C.ar      1 RES1   0.0000
    50 C23      5.6266  10.6775   5.4640   C.ar      1 RES1   0.0000
    51 H21      5.0267  10.3937   6.1431   H         1 RES1   0.0000
    52 C24      6.9955  10.7253   5.7233   C.ar      1 RES1   0.0000
    53 H22      7.3143  10.4754   6.5827   H         1 RES1   0.0000
    54 C25      7.8838  11.1232   4.7694   C.ar      1 RES1   0.0000
    55 H23      8.8171  11.1433   4.9453   H         1 RES1   0.0000
    56 C26      7.3837  11.4949   3.5386   C.ar      1 RES1   0.0000
    57 H24      7.9836  11.7772   2.8573   H         1 RES1   0.0000
    58 C27      6.0342  11.4641   3.2793   C.ar      1 RES1   0.0000
    59 H25      5.7142  11.7417   2.4287   H         1 RES1   0.0000
    60 C28      2.9982  12.3463   4.4529   C.3       1 RES1   0.0000
    61 H26      2.0345  12.3339   4.2749   H         1 RES1   0.0000
    62 H27      3.4047  13.1174   4.0090   H         1 RES1   0.0000
    63 H28      3.1491  12.4080   5.4200   H         1 RES1   0.0000
    64 C29      5.1970   7.1024   4.9167   C.ar      1 RES1   0.0000
    65 H29      4.6190   6.8942   5.6420   H         1 RES1   0.0000
    66 C30      6.5307   6.8078   5.0178   C.ar      1 RES1   0.0000
    67 H30      6.8556   6.3744   5.7980   H         1 RES1   0.0000
    68 C31      7.4031   7.1255   4.0155   C.ar      1 RES1   0.0000
    69 H31      8.3291   6.9327   4.0947   H         1 RES1   0.0000
    70 C32      6.8982   7.7394   2.8704   C.ar      1 RES1   0.0000
    71 H32      7.4749   7.9707   2.1517   H         1 RES1   0.0000
    72 C33      5.5426   8.0077   2.8001   C.ar      1 RES1   0.0000
    73 C34      4.8977   8.6709   1.6858   C.2       1 RES1   0.0000
    74 H33      5.3942   8.9578   0.9297   H         1 RES1   0.0000
    75 C35      2.9338   9.6025   0.6835   C.3       1 RES1   0.0000
    76 H34      2.2609  10.1870   1.1385   H         1 RES1   0.0000
    77 C36      2.1453   8.6910  -0.2396   C.ar      1 RES1   0.0000
    78 C37      2.6441   7.4756  -0.6813   C.ar      1 RES1   0.0000
    79 H35      3.4874   7.1656  -0.3736   H         1 RES1   0.0000
    80 C38      1.9043   6.7137  -1.5737   C.ar      1 RES1   0.0000
    81 H36      2.2450   5.8809  -1.8792   H         1 RES1   0.0000
    82 C39      0.6668   7.1594  -2.0309   C.ar      1 RES1   0.0000
    83 H37      0.1570   6.6212  -2.6243   H         1 RES1   0.0000
    84 C40      0.1825   8.3794  -1.6176   C.ar      1 RES1   0.0000
    85 H38     -0.6546   8.6971  -1.9363   H         1 RES1   0.0000
    86 C41      0.9309   9.1367  -0.7363   C.ar      1 RES1   0.0000
    87 H39      0.6035   9.9865  -0.4638   H         1 RES1   0.0000
    88 C42      3.8366  10.5387  -0.1187   C.3       1 RES1   0.0000
    89 H40      4.3416  11.1124   0.4945   H         1 RES1   0.0000
    90 H41      3.2878  11.0955  -0.7099   H         1 RES1   0.0000
    91 H42      4.4596  10.0081  -0.6572   H         1 RES1   0.0000
    92 B1       9.9086   4.6223   2.4638   B         2 RES2  -1.0000
    93 F1       8.6942   4.2229   3.0214   F         2 RES2   0.0000
    94 F2      10.7324   5.0850   3.4953   F         2 RES2   0.0000
    95 F3      10.5170   3.5257   1.8689   F         2 RES2   0.0000
    96 F4       9.7309   5.6079   1.5495   F         2 RES2   0.0000
    97 B2       1.6610  13.3488   0.9297   B         3 RES3  -1.0000
    98 F5       2.9909  13.3750   1.2737   F         3 RES3   0.0000
    99 F6       1.5259  12.9046  -0.3717   F         3 RES3   0.0000
   100 F7       0.9795  12.5190   1.7671   F         3 RES3   0.0000
   101 F8       1.0927  14.6089   0.9825   F         3 RES3   0.0000
   102 O1      -0.2312  17.0210   0.2044   O.3       4 RES4   0.0000
   103 O2       6.1754   4.2707   1.9495   O.3       5 RES5   0.0000
@<TRIPOS>BOND
     1     1     2    1
     2     2     8   ar
     3     3     1    1
     4     4     1    1
     5     5     1    1
     6     6     1    1
     7     7     1    1
     8     8     9    1
     9    10     8   ar
    10    11    10    1
    11    12    10   ar
    12    13    12    1
    13    14    12   ar
    14    15    14    1
    15    16     2   ar
    16    17     3    2
    17    18    17    1
    18    19     3    1
    19    20    19    1
    20    21    19    1
    21    22    21   ar
    22    23    22    1
    23    24    22   ar
    24    25    24    1
    25    26    24   ar
    26    27    26    1
    27    28    26   ar
    28    29    28    1
    29    30    21   ar
    30    31    30    1
    31    32    19    1
    32    33    32    1
    33    34    32    1
    34    35    32    1
    35    36     4   ar
    36    37    36    1
    37    38    36   ar
    38    39    38    1
    39    40    38   ar
    40    41    40    1
    41    42    40   ar
    42    43    42    1
    43    44     4   ar
    44    45     5    2
    45    46    45    1
    46    47     5    1
    47    48    47    1
    48    49    47    1
    49    50    49   ar
    50    51    50    1
    51    52    50   ar
    52    53    52    1
    53    54    52   ar
    54    55    54    1
    55    56    54   ar
    56    57    56    1
    57    58    49   ar
    58    59    58    1
    59    60    47    1
    60    61    60    1
    61    62    60    1
    62    63    60    1
    63    64     6   ar
    64    65    64    1
    65    66    64   ar
    66    67    66    1
    67    68    66   ar
    68    69    68    1
    69    70    68   ar
    70    71    70    1
    71    72     6   ar
    72    73     7    2
    73    74    73    1
    74    75     7    1
    75    76    75    1
    76    77    75    1
    77    78    77   ar
    78    79    78    1
    79    80    78   ar
    80    81    80    1
    81    82    80   ar
    82    83    82    1
    83    84    82   ar
    84    85    84    1
    85    86    77   ar
    86    87    86    1
    87    88    75    1
    88    89    88    1
    89    90    88    1
    90    91    88    1
    91    14    16   ar
    92    16    17    1
    93    28    30   ar
    94    42    44   ar
    95    44    45    1
    96    56    58   ar
    97    70    72   ar
    98    72    73    1
    99    84    86   ar
   100    92    93    1
   101    94    92    1
   102    95    92    1
   103    96    92    1
   104    97    98    1
   105    99    97    1
   106   100    97    1
   107   101    97    1
@<TRIPOS>SUBSTRUCTURE
     1 RES1        1 GROUP             0 ****  ****    0  
     2 RES2       92 GROUP             0 ****  ****    0  
     3 RES3       97 GROUP             0 ****  ****    0  
     4 RES4      102 GROUP             0 ****  ****    0  
     5 RES5      103 GROUP             0 ****  ****    0  
@<TRIPOS>CRYSIN
   12.1682   15.4232   21.9789   90.0000   90.0000   90.0000    19     1
