@<TRIPOS>MOLECULE
RAPPEE
    99   102    10     0     0
SMALL
USER_CHARGES
****
Generated from the CSD

@<TRIPOS>ATOM
     1 C1       1.2084   4.7138  15.7937   C.ar      1 RES1   0.0000
     2 H1       0.7858   5.3721  15.2902   H         1 RES1   0.0000
     3 C2       0.7538   4.4650  17.0848   C.ar      1 RES1   0.0000
     4 H2       0.0304   4.9431  17.4228   H         1 RES1   0.0000
     5 C3       1.3613   3.5280  17.8473   C.ar      1 RES1   0.0000
     6 H3       1.0533   3.3530  18.7070   H         1 RES1   0.0000
     7 C4       2.4639   2.8205  17.3331   C.ar      1 RES1   0.0000
     8 C5       3.2072   1.8216  18.0449   C.ar      1 RES1   0.0000
     9 H4       2.9710   1.6178  18.9208   H         1 RES1   0.0000
    10 C6       4.2366   1.1749  17.4734   C.ar      1 RES1   0.0000
    11 H5       4.7076   0.5421  17.9672   H         1 RES1   0.0000
    12 C7       4.6265   1.4381  16.1200   C.ar      1 RES1   0.0000
    13 C8       5.6990   0.8076  15.4542   C.ar      1 RES1   0.0000
    14 H6       6.2039   0.1558  15.8847   H         1 RES1   0.0000
    15 C9       5.9820   1.1647  14.1772   C.ar      1 RES1   0.0000
    16 H7       6.6927   0.7641  13.7305   H         1 RES1   0.0000
    17 C10      5.2122   2.1335  13.5291   C.ar      1 RES1   0.0000
    18 H8       5.4216   2.3563  12.6517   H         1 RES1   0.0000
    19 C11      3.9137   2.4062  15.4085   C.ar      1 RES1   0.0000
    20 C12      2.8416   3.1046  16.0224   C.ar      1 RES1   0.0000
    21 C13      0.5796   5.6203  12.3182   C.ar      1 RES1   0.0000
    22 H9       0.2025   4.8001  12.0922   H         1 RES1   0.0000
    23 C14     -0.1357   6.7794  12.0460   C.ar      1 RES1   0.0000
    24 H10     -0.9714   6.7209  11.6414   H         1 RES1   0.0000
    25 C15      0.3723   7.9988  12.3648   C.ar      1 RES1   0.0000
    26 H11     -0.1135   8.7741  12.1991   H         1 RES1   0.0000
    27 C16      1.6475   8.0643  12.9478   C.ar      1 RES1   0.0000
    28 C17      2.3150   9.2853  13.2988   C.ar      1 RES1   0.0000
    29 H12      1.8732  10.0953  13.1877   H         1 RES1   0.0000
    30 C18      3.5623   9.2793  13.7833   C.ar      1 RES1   0.0000
    31 H13      3.9781  10.0889  13.9776   H         1 RES1   0.0000
    32 C19      4.2747   8.0555  14.0097   C.ar      1 RES1   0.0000
    33 C20      5.5692   7.9704  14.5565   C.ar      1 RES1   0.0000
    34 H14      6.0452   8.7421  14.7642   H         1 RES1   0.0000
    35 C21      6.1112   6.7414  14.7754   C.ar      1 RES1   0.0000
    36 H15      6.9624   6.6719  15.1433   H         1 RES1   0.0000
    37 C22      5.4048   5.5938  14.4531   C.ar      1 RES1   0.0000
    38 H16      5.8045   4.7680  14.6039   H         1 RES1   0.0000
    39 C23      3.6277   6.8537  13.7191   C.ar      1 RES1   0.0000
    40 C24      2.3139   6.8622  13.1672   C.ar      1 RES1   0.0000
    41 C25      4.7113   4.6703  11.0301   C.ar      1 RES1   0.0000
    42 H17      5.1695   5.3038  11.5345   H         1 RES1   0.0000
    43 C26      5.1203   4.4379   9.7212   C.ar      1 RES1   0.0000
    44 H18      5.8410   4.9068   9.3652   H         1 RES1   0.0000
    45 C27      4.4623   3.5233   8.9669   C.ar      1 RES1   0.0000
    46 H19      4.7426   3.3530   8.0960   H         1 RES1   0.0000
    47 C28      3.3598   2.8342   9.4953   C.ar      1 RES1   0.0000
    48 C29      2.5554   1.8788   8.7897   C.ar      1 RES1   0.0000
    49 H20      2.7716   1.6690   7.9090   H         1 RES1   0.0000
    50 C30      1.4981   1.2761   9.3650   C.ar      1 RES1   0.0000
    51 H21      0.9845   0.6787   8.8709   H         1 RES1   0.0000
    52 C31      1.1543   1.5433  10.7237   C.ar      1 RES1   0.0000
    53 C32      0.0851   0.9502  11.4036   C.ar      1 RES1   0.0000
    54 H22     -0.4641   0.3372  10.9700   H         1 RES1   0.0000
    55 C33     -0.1447   1.2761  12.7036   C.ar      1 RES1   0.0000
    56 H23     -0.8581   0.8900  13.1610   H         1 RES1   0.0000
    57 C34      0.6861   2.1866  13.3516   C.ar      1 RES1   0.0000
    58 H24      0.5163   2.3883  14.2432   H         1 RES1   0.0000
    59 C35      1.9373   2.4581  11.4425   C.ar      1 RES1   0.0000
    60 C36      3.0228   3.1214  10.8197   C.ar      1 RES1   0.0000
    61 N1       2.2248   4.0477  15.2522   N.ar      1 RES1   0.0000
    62 N2       3.6930   4.0259  11.5918   N.ar      1 RES1   0.0000
    63 N3       1.7145   2.7812  12.7472   N.ar      1 RES1   0.0000
    64 N4       4.1738   5.6218  13.9344   N.ar      1 RES1   0.0000
    65 N5       4.1886   2.7496  14.1198   N.ar      1 RES1   0.0000
    66 N6       1.7821   5.6337  12.8887   N.ar      1 RES1   0.0000
    67 Fe1      2.9694   4.1451  13.4212   Fe        1 RES1   2.0000
    68 C37      7.7892   1.8131  10.6168   C.2       2 RES2   0.0000
    69 C38      8.1131   3.1618  11.0584   C.2       2 RES2   0.0000
    70 C39      8.9326   3.3607   9.8947   C.2       2 RES2   0.0000
    71 C40      8.5876   2.0306   9.4111   C.2       2 RES2   0.0000
    72 O1       7.1541   0.8465  11.0694   O.2       2 RES2   0.0000
    73 O2       8.8502   1.3374   8.4116   O.2       2 RES2   0.0000
    74 O3       9.6790   4.2889   9.4791   O.3       2 RES2  -1.0000
    75 O4       7.8014   3.8699  12.0620   O.3       2 RES2  -1.0000
    76 O5       8.6966  -0.7327  14.9823   O.3       3 RES3   0.0000
    77 H25      8.4326  -1.2955  15.5508   H         3 RES3   0.0000
    78 H26      9.1320  -1.1824  14.4219   H         3 RES3   0.0000
    79 O6       9.9883  -1.7649  12.8092   O.3       4 RES4   0.0000
    80 H27      9.6160  -1.8056  12.0305   H         4 RES4   0.0000
    81 H28     10.2789  -2.5953  12.9439   H         4 RES4   0.0000
    82 O7      10.6345   1.4349   6.3380   O.3       5 RES5   0.0000
    83 H29     11.1698   0.8324   6.2039   H         5 RES5   0.0000
    84 H30     10.1700   1.3403   7.0139   H         5 RES5   0.0000
    85 O8      10.9281   4.1568   7.0643   O.3       6 RES6   0.0000
    86 H31     10.5887   4.1470   7.8388   H         6 RES6   0.0000
    87 H32     10.8979   3.3957   6.7600   H         6 RES6   0.0000
    88 O9       8.2446   6.5769   8.8124   O.3       7 RES7   0.0000
    89 H39      8.8632   6.0188   9.1013   H         7 RES7   0.0000
    90 H40      8.7064   7.1286   8.3498   H         7 RES7   0.0000
    91 O10      7.2381   6.4761  11.4086   O.3       8 RES8   0.0000
    92 H33      7.5630   5.7648  11.7098   H         8 RES8   0.0000
    93 H34      7.4207   6.5801  10.5826   H         8 RES8   0.0000
    94 O11      8.7732   3.9692  14.6007   O.3       9 RES9   0.0000
    95 H35      8.5220   3.9784  13.7739   H         9 RES9   0.0000
    96 H36      9.0907   4.7040  14.7592   H         9 RES9   0.0000
    97 O12     -1.5520   1.7160  16.0960   O.3      10 RES10   0.0000
    98 H37     -1.7587   1.0437  15.6593   H        10 RES10   0.0000
    99 H38     -2.1989   2.2837  15.9048   H        10 RES10   0.0000
@<TRIPOS>BOND
     1     1     2    1
     2     3     1   ar
     3     4     3    1
     4     5     3   ar
     5     6     5    1
     6     7     5   ar
     7     8     7   ar
     8     9     8    1
     9    10     8   ar
    10    11    10    1
    11    12    10   ar
    12    13    12   ar
    13    14    13    1
    14    15    13   ar
    15    16    15    1
    16    17    15   ar
    17    18    17    1
    18    19    12   ar
    19    20     7   ar
    20    21    22    1
    21    23    21   ar
    22    24    23    1
    23    25    23   ar
    24    26    25    1
    25    27    25   ar
    26    28    27   ar
    27    29    28    1
    28    30    28   ar
    29    31    30    1
    30    32    30   ar
    31    33    32   ar
    32    34    33    1
    33    35    33   ar
    34    36    35    1
    35    37    35   ar
    36    38    37    1
    37    39    32   ar
    38    40    27   ar
    39    41    42    1
    40    43    41   ar
    41    44    43    1
    42    45    43   ar
    43    46    45    1
    44    47    45   ar
    45    48    47   ar
    46    49    48    1
    47    50    48   ar
    48    51    50    1
    49    52    50   ar
    50    53    52   ar
    51    54    53    1
    52    55    53   ar
    53    56    55    1
    54    57    55   ar
    55    58    57    1
    56    59    52   ar
    57    60    47   ar
    58    61     1   ar
    59    62    41   ar
    60    63    57   ar
    61    64    37   ar
    62    65    17   ar
    63    66    21   ar
    64    67    61    1
    65    19    20   ar
    66    19    65   ar
    67    20    61   ar
    68    39    40   ar
    69    39    64   ar
    70    40    66   ar
    71    59    60   ar
    72    59    63   ar
    73    60    62   ar
    74    62    67    1
    75    63    67    1
    76    64    67    1
    77    65    67    1
    78    66    67    1
    79    68    69    1
    80    69    70    2
    81    70    71    1
    82    71    68    1
    83    72    68    2
    84    73    71    2
    85    74    70    1
    86    75    69    1
    87    76    77    1
    88    78    76    1
    89    79    80    1
    90    81    79    1
    91    82    83    1
    92    84    82    1
    93    85    86    1
    94    87    85    1
    95    88    89    1
    96    90    88    1
    97    91    92    1
    98    93    91    1
    99    94    95    1
   100    96    94    1
   101    97    98    1
   102    99    97    1
@<TRIPOS>SUBSTRUCTURE
     1 RES1        1 GROUP             0 ****  ****    0  
     2 RES2       68 GROUP             0 ****  ****    0  
     3 RES3       76 GROUP             0 ****  ****    0  
     4 RES4       79 GROUP             0 ****  ****    0  
     5 RES5       82 GROUP             0 ****  ****    0  
     6 RES6       85 GROUP             0 ****  ****    0  
     7 RES7       88 GROUP             0 ****  ****    0  
     8 RES8       91 GROUP             0 ****  ****    0  
     9 RES9       94 GROUP             0 ****  ****    0  
    10 RES10      97 GROUP             0 ****  ****    0  
@<TRIPOS>CRYSIN
   10.9285   21.3431   16.8988   90.0000   98.8040   90.0000    14     1
