@<TRIPOS>MOLECULE
RASTOY
   131   169     5     0     0
SMALL
USER_CHARGES
****
Generated from the CSD

@<TRIPOS>ATOM
     1 Fe1     -1.3922   3.7042   3.8026   Fe        1 RES1   2.0000
     2 N1      -0.3485   2.8979   2.3596   N.ar      1 RES1   0.0000
     3 N2      -2.4188   4.6485   5.1861   N.ar      1 RES1   0.0000
     4 N3      -2.3946   4.4300   2.2903   N.ar      1 RES1   0.0000
     5 N4      -0.3639   5.3697   3.8298   N.ar      1 RES1   0.0000
     6 N5      -2.4257   2.0453   3.8166   N.ar      1 RES1   0.0000
     7 N6      -0.4212   2.7920   5.2422   N.ar      1 RES1   0.0000
     8 C1       0.7311   2.0927   2.4767   C.ar      1 RES1   0.0000
     9 H1       1.0545   1.9072   3.3498   H         1 RES1   0.0000
    10 C2       1.3830   1.5315   1.4240   C.ar      1 RES1   0.0000
    11 H2       2.1469   0.9853   1.5685   H         1 RES1   0.0000
    12 C3       0.9281   1.7620   0.1502   C.ar      1 RES1   0.0000
    13 H3       1.3621   1.3671  -0.5973   H         1 RES1   0.0000
    14 C4      -0.1698   2.5780  -0.0248   C.ar      1 RES1   0.0000
    15 H4      -0.4936   2.7638  -0.8984   H         1 RES1   0.0000
    16 C5      -0.8001   3.1255   1.0857   C.ar      1 RES1   0.0000
    17 C6      -1.9651   4.0125   1.0577   C.ar      1 RES1   0.0000
    18 C7      -2.6249   4.4078  -0.1073   C.ar      1 RES1   0.0000
    19 H5      -2.3312   4.1031  -0.9578   H         1 RES1   0.0000
    20 C8      -3.7206   5.2562   0.0017   C.ar      1 RES1   0.0000
    21 H6      -4.1927   5.5220  -0.7779   H         1 RES1   0.0000
    22 C9      -4.1188   5.7076   1.2227   C.ar      1 RES1   0.0000
    23 H7      -4.8421   6.3169   1.3019   H         1 RES1   0.0000
    24 C10     -3.4559   5.2653   2.3315   C.ar      1 RES1   0.0000
    25 H8      -3.7600   5.5629   3.1811   H         1 RES1   0.0000
    26 C11     -3.4622   4.1498   5.8940   C.ar      1 RES1   0.0000
    27 H9      -3.7975   3.2866   5.6846   H         1 RES1   0.0000
    28 C12     -4.0490   4.8799   6.9170   C.ar      1 RES1   0.0000
    29 H10     -4.7836   4.5185   7.3989   H         1 RES1   0.0000
    30 C13     -3.5623   6.1417   7.2339   C.ar      1 RES1   0.0000
    31 H11     -3.9519   6.6509   7.9352   H         1 RES1   0.0000
    32 C14     -2.5057   6.6368   6.5128   C.ar      1 RES1   0.0000
    33 H12     -2.1403   7.4886   6.7225   H         1 RES1   0.0000
    34 C15     -1.9816   5.8975   5.4930   C.ar      1 RES1   0.0000
    35 C16     -0.8282   6.3345   4.6565   C.ar      1 RES1   0.0000
    36 C17     -0.3035   7.6160   4.6515   C.ar      1 RES1   0.0000
    37 H13     -0.6726   8.2901   5.2107   H         1 RES1   0.0000
    38 C18      0.7689   7.9013   3.8166   C.ar      1 RES1   0.0000
    39 H14      1.1463   8.7727   3.8057   H         1 RES1   0.0000
    40 C19      1.2749   6.9325   3.0213   C.ar      1 RES1   0.0000
    41 H15      2.0145   7.1125   2.4525   H         1 RES1   0.0000
    42 C20      0.6953   5.6623   3.0477   C.ar      1 RES1   0.0000
    43 H16      1.0584   4.9807   2.4954   H         1 RES1   0.0000
    44 C21     -3.4616   1.7119   3.0444   C.ar      1 RES1   0.0000
    45 H17     -3.8610   2.3915   2.5140   H         1 RES1   0.0000
    46 C22     -3.9911   0.4306   2.9685   C.ar      1 RES1   0.0000
    47 H18     -4.7407   0.2509   2.4132   H         1 RES1   0.0000
    48 C23     -3.4158  -0.5772   3.7110   C.ar      1 RES1   0.0000
    49 H19     -3.7369  -1.4694   3.6513   H         1 RES1   0.0000
    50 C24     -2.3292  -0.2480   4.5690   C.ar      1 RES1   0.0000
    51 H20     -1.9119  -0.9141   5.1019   H         1 RES1   0.0000
    52 C25     -1.8967   1.0544   4.6070   C.ar      1 RES1   0.0000
    53 C26     -0.8046   1.5108   5.4980   C.ar      1 RES1   0.0000
    54 C27     -0.2407   0.7577   6.5045   C.ar      1 RES1   0.0000
    55 H21     -0.5365  -0.1314   6.6572   H         1 RES1   0.0000
    56 C28      0.7464   1.3012   7.2817   C.ar      1 RES1   0.0000
    57 H22      1.1504   0.7896   7.9743   H         1 RES1   0.0000
    58 C29      1.1497   2.6066   7.0458   C.ar      1 RES1   0.0000
    59 H23      1.8256   3.0036   7.5826   H         1 RES1   0.0000
    60 C30      0.5613   3.3240   6.0260   C.ar      1 RES1   0.0000
    61 H24      0.8478   4.2149   5.8637   H         1 RES1   0.0000
    62 N7      -2.3598  -9.1181   3.2440   N.ar      2 RES2   0.0000
    63 N8      -0.9057 -11.5898   1.0758   N.ar      2 RES2   0.0000
    64 C31     -2.4914  -8.8536   4.5476   C.ar      2 RES2   0.0000
    65 H25     -2.8114  -7.9951   4.7971   H         2 RES2   0.0000
    66 C32     -1.9230 -10.3702   2.8843   C.ar      2 RES2   0.0000
    67 C33     -1.7386 -11.0081   5.1977   C.ar      2 RES2   0.0000
    68 H26     -1.5226 -11.6365   5.8773   H         2 RES2   0.0000
    69 C34     -1.7801 -10.5849   1.4273   C.ar      2 RES2   0.0000
    70 C35     -2.4630  -9.8266   0.5082   C.ar      2 RES2   0.0000
    71 H27     -3.0480  -9.1288   0.7800   H         2 RES2   0.0000
    72 C36     -1.3876 -11.1041  -1.1748   C.ar      2 RES2   0.0000
    73 H28     -1.2060 -11.3101  -2.0838   H         2 RES2   0.0000
    74 C37     -1.6078 -11.3317   3.7984   C.ar      2 RES2   0.0000
    75 H29     -1.3101 -12.1902   3.5205   H         2 RES2   0.0000
    76 C38     -2.2041  -9.7141   5.5095   C.ar      2 RES2   0.0000
    77 H30     -2.3118  -9.4577   6.4183   H         2 RES2   0.0000
    78 C39     -2.2539 -10.1367  -0.8943   C.ar      2 RES2   0.0000
    79 H31     -2.7145  -9.6693  -1.5810   H         2 RES2   0.0000
    80 C40     -0.7556 -11.8053  -0.2063   C.ar      2 RES2   0.0000
    81 H32     -0.1650 -12.4989  -0.4742   H         2 RES2   0.0000
    82 B1       1.2833  -1.7440   4.3067   B         3 RES3   0.0000
    83 H33      0.2988  -1.2973   4.1086   H         3 RES3   0.0000
    84 B2       2.1323  -3.1950   4.3760   B         3 RES3   0.0000
    85 B3       2.5421  -1.8871   3.1170   B         3 RES3   0.0000
    86 H34      2.2719  -1.7259   2.0416   H         3 RES3   0.0000
    87 B4       2.2562  -1.8742   5.7488   B         3 RES3   0.0000
    88 H35      1.7640  -1.7458   6.7458   H         3 RES3   0.0000
    89 B5       2.6327  -0.6799   4.4849   B         3 RES3   0.0000
    90 H36      2.4230   0.4205   4.4760   H         3 RES3   0.0000
    91 B6       3.7246  -3.1088   3.6169   B         3 RES3   0.0000
    92 H37      4.0120  -3.8975   2.8753   H         3 RES3   0.0000
    93 B7       3.5260  -3.0878   5.5046   B         3 RES3   0.0000
    94 H38      3.6637  -3.8631   6.3001   H         3 RES3   0.0000
    95 B8       4.1963  -1.4512   3.7110   B         3 RES3   0.0000
    96 H39      4.8953  -0.8792   3.0487   H         3 RES3   0.0000
    97 B9       3.9554  -1.3290   5.5062   B         3 RES3  -1.0000
    98 H40      4.4496  -0.6624   6.2580   H         3 RES3   0.0000
    99 B10      4.8829  -2.5306   4.6961   B         3 RES3   0.0000
   100 H41      5.9538  -2.8318   4.8256   H         3 RES3   0.0000
   101 B11      1.3196  -4.9036   4.2951   B         3 RES3   0.0000
   102 H42      2.1251  -5.5746   3.8611   H         3 RES3   0.0000
   103 B12      0.4465  -3.4917   4.3644   B         3 RES3   0.0000
   104 B13      0.0368  -4.7846   3.0724   B         3 RES3   0.0000
   105 H43      0.2970  -4.9454   1.9955   H         3 RES3   0.0000
   106 B14     -0.0458  -5.9564   4.4271   B         3 RES3   0.0000
   107 H44      0.1802  -7.0527   4.3939   H         3 RES3   0.0000
   108 B15      0.2962  -4.7834   5.7439   B         3 RES3   0.0000
   109 H45      0.7667  -4.9179   6.7520   H         3 RES3   0.0000
   110 B16     -1.1438  -3.5057   3.5493   B         3 RES3   0.0000
   111 H46     -1.4085  -2.7032   2.8141   H         3 RES3   0.0000
   112 B17     -1.6059  -5.2723   3.6796   B         3 RES3  -1.0000
   113 H47     -2.2872  -5.8897   3.0407   H         3 RES3   0.0000
   114 B18     -1.3740  -5.3082   5.4848   B         3 RES3   0.0000
   115 H48     -1.8571  -5.9581   6.2590   H         3 RES3   0.0000
   116 B19     -1.0051  -3.5661   5.4749   B         3 RES3   0.0000
   117 H49     -1.1819  -2.7844   6.2570   H         3 RES3   0.0000
   118 B20     -2.3373  -4.1516   4.6548   B         3 RES3   0.0000
   119 H50     -3.4182  -3.8787   4.7630   H         3 RES3   0.0000
   120 N9       1.5549   6.2196   7.4880   N.1       4 RES4   0.0000
   121 C41      1.6152   7.3304   7.4500   C.1       4 RES4   0.0000
   122 C42      1.6708   8.8168   7.4220   C.3       4 RES4   0.0000
   123 H51      0.8213   9.1687   7.0864   H         4 RES4   0.0000
   124 H52      2.4004   9.1042   6.8341   H         4 RES4   0.0000
   125 H53      1.8302   9.1541   8.3286   H         4 RES4   0.0000
   126 N10     -1.2878   8.5734   9.2172   N.1       5 RES5   0.0000
   127 C43     -1.3323   9.7122   9.1578   C.1       5 RES5   0.0000
   128 C44     -1.3422  11.1636   9.1298   C.3       5 RES5   0.0000
   129 H54     -1.3035  11.4724   8.2005   H         5 RES5   0.0000
   130 H55     -0.5650  11.5044   9.6199   H         5 RES5   0.0000
   131 H56     -2.1638  11.4926   9.5498   H         5 RES5   0.0000
@<TRIPOS>BOND
     1     1     2    1
     2     2     8   ar
     3     3     1    1
     4     4     1    1
     5     5     1    1
     6     6     1    1
     7     7     1    1
     8     8     9    1
     9    10     8   ar
    10    11    10    1
    11    12    10   ar
    12    13    12    1
    13    14    12   ar
    14    15    14    1
    15    16     2   ar
    16    17     4   ar
    17    18    17   ar
    18    19    18    1
    19    20    18   ar
    20    21    20    1
    21    22    20   ar
    22    23    22    1
    23    24     4   ar
    24    25    24    1
    25    26     3   ar
    26    27    26    1
    27    28    26   ar
    28    29    28    1
    29    30    28   ar
    30    31    30    1
    31    32    30   ar
    32    33    32    1
    33    34     3   ar
    34    35     5   ar
    35    36    35   ar
    36    37    36    1
    37    38    36   ar
    38    39    38    1
    39    40    38   ar
    40    41    40    1
    41    42     5   ar
    42    43    42    1
    43    44     6   ar
    44    45    44    1
    45    46    44   ar
    46    47    46    1
    47    48    46   ar
    48    49    48    1
    49    50    48   ar
    50    51    50    1
    51    52     6   ar
    52    53     7   ar
    53    54    53   ar
    54    55    54    1
    55    56    54   ar
    56    57    56    1
    57    58    56   ar
    58    59    58    1
    59    60     7   ar
    60    61    60    1
    61    14    16   ar
    62    16    17    1
    63    22    24   ar
    64    32    34   ar
    65    34    35    1
    66    40    42   ar
    67    50    52   ar
    68    52    53    1
    69    58    60   ar
    70    62    64   ar
    71    63    69   ar
    72    64    65    1
    73    66    62   ar
    74    67    68    1
    75    69    66    1
    76    70    69   ar
    77    71    70    1
    78    72    73    1
    79    74    66   ar
    80    75    74    1
    81    76    64   ar
    82    77    76    1
    83    78    70   ar
    84    79    78    1
    85    80    63   ar
    86    81    80    1
    87    67    74   ar
    88    67    76   ar
    89    72    78   ar
    90    72    80   ar
    91    82    83    1
    92    84    82    1
    93    85    82    1
    94    86    85    1
    95    87    82    1
    96    88    87    1
    97    89    82    1
    98    90    89    1
    99    91    84    1
   100    92    91    1
   101    93    84    1
   102    94    93    1
   103    95    85    1
   104    96    95    1
   105    97    87    1
   106    98    97    1
   107    99    91    1
   108   100    99    1
   109   101    84    1
   110   102   101    1
   111   103    82    1
   112   104   101    1
   113   105   104    1
   114   106   101    1
   115   107   106    1
   116   108   101    1
   117   109   108    1
   118   110   103    1
   119   111   110    1
   120   112   104    1
   121   113   112    1
   122   114   106    1
   123   115   114    1
   124   116   103    1
   125   117   116    1
   126   118   110    1
   127   119   118    1
   128    84    85    1
   129    84    87    1
   130    84   103    1
   131    85    89    1
   132    85    91    1
   133    87    89    1
   134    87    93    1
   135    89    95    1
   136    89    97    1
   137    91    93    1
   138    91    95    1
   139    93    97    1
   140    93    99    1
   141    95    97    1
   142    95    99    1
   143    97    99    1
   144   101   103    1
   145   103   104    1
   146   103   108    1
   147   104   106    1
   148   104   110    1
   149   106   108    1
   150   106   112    1
   151   108   114    1
   152   108   116    1
   153   110   112    1
   154   110   116    1
   155   112   114    1
   156   112   118    1
   157   114   116    1
   158   114   118    1
   159   116   118    1
   160   120   121    3
   161   121   122    1
   162   122   123    1
   163   124   122    1
   164   125   122    1
   165   126   127    3
   166   127   128    1
   167   128   129    1
   168   130   128    1
   169   131   128    1
@<TRIPOS>SUBSTRUCTURE
     1 RES1        1 GROUP             0 ****  ****    0  
     2 RES2       62 GROUP             0 ****  ****    0  
     3 RES3       82 GROUP             0 ****  ****    0  
     4 RES4      120 GROUP             0 ****  ****    0  
     5 RES5      126 GROUP             0 ****  ****    0  
@<TRIPOS>CRYSIN
   11.5300   14.9440   17.0560  103.4040   90.8270  110.4040     2     1
