@<TRIPOS>MOLECULE
RAVFIH
   105   114     5     0     0
SMALL
USER_CHARGES
****
Generated from the CSD

@<TRIPOS>ATOM
     1 Fe1     10.8410   7.4123   5.3056   Fe        1 RES1   2.0000
     2 N1       9.5757   7.4124   6.7381   N.ar      1 RES1   0.0000
     3 N2      12.1052   7.4123   3.8808   N.ar      1 RES1   0.0000
     4 N3      10.5828   9.3588   5.5480   N.2       1 RES1   0.0000
     5 N4      12.5246   7.4123   6.3316   N.2       1 RES1   0.0000
     6 N5       9.6224   7.4123   3.7633   N.2       1 RES1   0.0000
     7 N6      10.9311  10.5018   4.9419   N.pl3     1 RES1   0.0000
     8 H1      11.4997  10.5567   4.2997   H         1 RES1   0.0000
     9 N7       8.2970   7.4123   3.5351   N.pl3     1 RES1   0.0000
    10 H2       7.6980   7.4123   4.1512   H         1 RES1   0.0000
    11 C1       9.1260   8.5761   7.2283   C.ar      1 RES1   0.0000
    12 N8      12.9226   7.4124   7.6207   N.pl3     1 RES1   0.0000
    13 H3      12.3883   7.4124   8.2941   H         1 RES1   0.0000
    14 C2      13.4197   7.4123   4.1596   C.ar      1 RES1   0.0000
    15 C3       9.6889   9.7057   6.4937   C.2       1 RES1   0.0000
    16 C4      13.6531   7.4123   5.6047   C.2       1 RES1   0.0000
    17 C5      11.6601   7.4123   2.5997   C.ar      1 RES1   0.0000
    18 C6      10.2073   7.4123   2.5472   C.2       1 RES1   0.0000
    19 C7       8.2265   8.6087   8.2830   C.ar      1 RES1   0.0000
    20 H4       7.9256   9.4166   8.6287   H         1 RES1   0.0000
    21 C8       7.7936   7.4124   8.8043   C.ar      1 RES1   0.0000
    22 H5       7.2000   7.4124   9.5196   H         1 RES1   0.0000
    23 C9      14.3624   7.4123   3.1411   C.ar      1 RES1   0.0000
    24 H6      15.2721   7.4123   3.3377   H         1 RES1   0.0000
    25 C10      9.4664  11.0785   6.4755   C.2       1 RES1   0.0000
    26 H7       8.8964  11.5677   7.0226   H         1 RES1   0.0000
    27 C11     10.2763  11.5559   5.4696   C.2       1 RES1   0.0000
    28 H8      10.3572  12.4424   5.2031   H         1 RES1   0.0000
    29 C12     12.5860   7.4123   1.5538   C.ar      1 RES1   0.0000
    30 H9      12.2941   7.4123   0.6713   H         1 RES1   0.0000
    31 C13      9.2394   7.4123   1.5559   C.2       1 RES1   0.0000
    32 H10      9.3712   7.4123   0.6358   H         1 RES1   0.0000
    33 C14     13.9241   7.4123   1.8362   C.ar      1 RES1   0.0000
    34 H11     14.5411   7.4123   1.1418   H         1 RES1   0.0000
    35 C15     14.7681   7.4123   6.4349   C.2       1 RES1   0.0000
    36 H12     15.6639   7.4123   6.1840   H         1 RES1   0.0000
    37 C16     14.2520   7.4124   7.7127   C.2       1 RES1   0.0000
    38 H13     14.7444   7.4124   8.5011   H         1 RES1   0.0000
    39 C17      8.0334   7.4123   2.2335   C.2       1 RES1   0.0000
    40 H14      7.1883   7.4123   1.8466   H         1 RES1   0.0000
    41 N3E     10.5828   5.4659   5.5480   N.2       1 RES1   0.0000
    42 N6E     10.9311   4.3229   4.9419   N.pl3     1 RES1   0.0000
    43 H1E     11.4997   4.2680   4.2997   H         1 RES1   0.0000
    44 C1E      9.1260   6.2486   7.2283   C.ar      1 RES1   0.0000
    45 C3E      9.6889   5.1190   6.4937   C.2       1 RES1   0.0000
    46 C7E      8.2265   6.2160   8.2830   C.ar      1 RES1   0.0000
    47 H4E      7.9256   5.4081   8.6287   H         1 RES1   0.0000
    48 C10E     9.4664   3.7462   6.4755   C.2       1 RES1   0.0000
    49 H7E      8.8964   3.2570   7.0226   H         1 RES1   0.0000
    50 C11E    10.2763   3.2688   5.4696   C.2       1 RES1   0.0000
    51 H8E     10.3572   2.3823   5.2031   H         1 RES1   0.0000
    52 P1       3.5374   7.4123   2.5671   P.3       2 RES2  -1.0000
    53 F1       2.7878   7.4123   3.9609   F         2 RES2   0.0000
    54 F2       4.5378   6.3539   3.1934   F         2 RES2   0.0000
    55 F3       2.4985   6.4384   2.0704   F         2 RES2   0.0000
    56 F4       4.2693   7.4123   1.2882   F         2 RES2   0.0000
    57 F2E      4.5378   8.4708   3.1934   F         2 RES2   0.0000
    58 F3E      2.4985   8.3863   2.0704   F         2 RES2   0.0000
    59 P2       6.4715   3.2577  10.4565   P.3       3 RES3  -1.0000
    60 F5       6.4715   1.6885  10.4565   F         3 RES3   0.0000
    61 F6       5.2270   3.2594  11.4404   F         3 RES3   0.0000
    62 F7       6.4715   4.8595  10.4565   F         3 RES3   0.0000
    63 F8       7.4655   3.2481  11.7043   F         3 RES3   0.0000
    64 F6A      7.7159   3.2594   9.4725   F         3 RES3   0.0000
    65 F8A      5.4774   3.2481   9.2086   F         3 RES3   0.0000
    66 N9      11.0774   7.4124   9.8291   N.ar      4 RES4   0.0000
    67 N10      6.5870   7.4124  15.3375   N.ar      4 RES4   0.0000
    68 C18      9.4007   7.4124  12.0751   C.ar      4 RES4   0.0000
    69 C19      8.4447   7.4124  13.2316   C.ar      4 RES4   0.0000
    70 C20      9.8245   6.2279  11.4929   C.ar      4 RES4   0.0000
    71 H15      9.5537   5.4081  11.8367   H         4 RES4   0.0000
    72 C21      7.9657   6.2353  13.7812   C.ar      4 RES4   0.0000
    73 H16      8.2561   5.4155  13.4512   H         4 RES4   0.0000
    74 C22     10.6619   6.2886  10.3875   C.ar      4 RES4   0.0000
    75 H17     10.9489   5.4866  10.0152   H         4 RES4   0.0000
    76 C23      7.0536   6.2827  14.8231   C.ar      4 RES4   0.0000
    77 H18      6.7531   5.4777  15.1807   H         4 RES4   0.0000
    78 C20E     9.8245   8.5968  11.4929   C.ar      4 RES4   0.0000
    79 H15E     9.5537   9.4166  11.8367   H         4 RES4   0.0000
    80 C21E     7.9657   8.5894  13.7812   C.ar      4 RES4   0.0000
    81 H16E     8.2561   9.4092  13.4512   H         4 RES4   0.0000
    82 C22E    10.6619   8.5361  10.3875   C.ar      4 RES4   0.0000
    83 H17E    10.9489   9.3381  10.0152   H         4 RES4   0.0000
    84 C23E     7.0536   8.5420  14.8231   C.ar      4 RES4   0.0000
    85 H18E     6.7531   9.3470  15.1807   H         4 RES4   0.0000
    86 N11      7.5064   3.3622  18.0152   N.ar      5 RES5   0.0000
    87 C24      5.8973   3.5372  20.3046   C.ar      5 RES5   0.0000
    88 C25      5.3639   3.5624  19.0245   C.ar      5 RES5   0.0000
    89 H19      4.4438   3.6365  18.9053   H         5 RES5   0.0000
    90 C26      7.2585   3.3756  20.3922   C.ar      5 RES5   0.0000
    91 H20      7.6767   3.3237  21.2224   H         5 RES5   0.0000
    92 C27      6.2008   3.4764  17.9245   C.ar      5 RES5   0.0000
    93 H21      5.8187   3.4986  17.0775   H         5 RES5   0.0000
    94 C28      7.9985   3.2940  19.2273   C.ar      5 RES5   0.0000
    95 H22      8.9178   3.1799  19.3089   H         5 RES5   0.0000
    96 N11A     3.4265   3.3622  23.8106   N.ar      5 RES5   0.0000
    97 C24A     5.0357   3.5372  21.5213   C.ar      5 RES5   0.0000
    98 C25A     5.5691   3.5624  22.8014   C.ar      5 RES5   0.0000
    99 H19A     6.4892   3.6365  22.9206   H         5 RES5   0.0000
   100 C26A     3.6744   3.3756  21.4337   C.ar      5 RES5   0.0000
   101 H20A     3.2563   3.3237  20.6034   H         5 RES5   0.0000
   102 C27A     4.7322   3.4764  23.9014   C.ar      5 RES5   0.0000
   103 H21A     5.1143   3.4986  24.7484   H         5 RES5   0.0000
   104 C28A     2.9344   3.2940  22.5985   C.ar      5 RES5   0.0000
   105 H22A     2.0152   3.1799  22.5170   H         5 RES5   0.0000
@<TRIPOS>BOND
     1     1     2    1
     2     2    11   ar
     3     3     1    1
     4     4     1    1
     5     5     1    1
     6     6     1    1
     7     7     4    1
     8     8     7    1
     9     9     6    1
    10    10     9    1
    11    11    15    1
    12    12     5    1
    13    13    12    1
    14    14     3   ar
    15    15     4    2
    16    16     5    2
    17    17     3   ar
    18    18     6    2
    19    19    11   ar
    20    20    19    1
    21    21    19   ar
    22    22    21    1
    23    23    14   ar
    24    24    23    1
    25    25    15    1
    26    26    25    1
    27    27     7    1
    28    28    27    1
    29    29    17   ar
    30    30    29    1
    31    31    18    1
    32    32    31    1
    33    33    23   ar
    34    34    33    1
    35    35    16    1
    36    36    35    1
    37    37    12    1
    38    38    37    1
    39    39     9    1
    40    40    39    1
    41    41     1    1
    42    42    41    1
    43    43    42    1
    44    44     2   ar
    45    45    41    2
    46    46    21   ar
    47    47    46    1
    48    48    45    1
    49    49    48    1
    50    50    42    1
    51    51    50    1
    52    14    16    1
    53    17    18    1
    54    25    27    2
    55    29    33   ar
    56    31    39    2
    57    35    37    2
    58    44    45    1
    59    44    46   ar
    60    48    50    2
    61    52    53    1
    62    54    52    1
    63    55    52    1
    64    56    52    1
    65    57    52    1
    66    58    52    1
    67    59    60    1
    68    61    59    1
    69    62    59    1
    70    63    59    1
    71    64    59    1
    72    65    59    1
    73    66    74   ar
    74    67    76   ar
    75    68    69    1
    76    69    72   ar
    77    70    68   ar
    78    71    70    1
    79    72    73    1
    80    74    70   ar
    81    75    74    1
    82    76    72   ar
    83    77    76    1
    84    78    68   ar
    85    79    78    1
    86    80    69   ar
    87    81    80    1
    88    82    66   ar
    89    83    82    1
    90    84    67   ar
    91    85    84    1
    92    78    82   ar
    93    80    84   ar
    94    86    92   ar
    95    87    88   ar
    96    88    89    1
    97    90    87   ar
    98    91    90    1
    99    92    88   ar
   100    93    92    1
   101    94    86   ar
   102    95    94    1
   103    96   102   ar
   104    97    87    1
   105    98    97   ar
   106    99    98    1
   107   100    97   ar
   108   101   100    1
   109   102    98   ar
   110   103   102    1
   111   104    96   ar
   112   105   104    1
   113    90    94   ar
   114   100   104   ar
@<TRIPOS>SUBSTRUCTURE
     1 RES1        1 GROUP             0 ****  ****    0  
     2 RES2       52 GROUP             0 ****  ****    0  
     3 RES3       59 GROUP             0 ****  ****    0  
     4 RES4       66 GROUP             0 ****  ****    0  
     5 RES5       86 GROUP             0 ****  ****    0  
@<TRIPOS>CRYSIN
   14.9529   14.8247   21.0093   90.0000   95.4899   90.0000    12     1
