@<TRIPOS>MOLECULE
RAVGUU
    87    95     4     0     0
SMALL
USER_CHARGES
****
Generated from the CSD

@<TRIPOS>ATOM
     1 Fe1      0.1190  12.8217  13.1307   Fe        1 RES1   2.0000
     2 N1      -2.3762  12.8012  15.3739   N.pl3     1 RES1   0.0000
     3 H1      -2.3925  13.6423  15.5531   H         1 RES1   0.0000
     4 N2      -1.4946  12.2050  14.5290   N.2       1 RES1   0.0000
     5 C1      -3.2253  11.8844  15.8958   C.2       1 RES1   0.0000
     6 H2      -3.8893  12.0524  16.5241   H         1 RES1   0.0000
     7 N3       1.7552  12.1049  11.8229   N.2       1 RES1   0.0000
     8 N4      -0.1303  10.6856  12.9199   N.ar      1 RES1   0.0000
     9 C2      -2.9344  10.6497  15.3326   C.2       1 RES1   0.0000
    10 H3      -3.3652   9.8394  15.4842   H         1 RES1   0.0000
    11 C3       1.7011  10.7907  11.4802   C.2       1 RES1   0.0000
    12 C4       2.8285  10.4638  10.6983   C.2       1 RES1   0.0000
    13 H4       3.0277   9.6393  10.3162   H         1 RES1   0.0000
    14 C5      -1.8595  10.8933  14.4936   C.2       1 RES1   0.0000
    15 C6       3.5525  11.5870  10.6215   C.2       1 RES1   0.0000
    16 H5       4.3698  11.6741  10.1863   H         1 RES1   0.0000
    17 N5       2.8944  12.5883  11.2931   N.pl3     1 RES1   0.0000
    18 H6       3.1691  13.3999  11.3640   H         1 RES1   0.0000
    19 C7      -1.2866   8.6700  13.4241   C.ar      1 RES1   0.0000
    20 H7      -1.9395   8.2238  13.9106   H         1 RES1   0.0000
    21 C8       0.5012   8.6200  11.8584   C.ar      1 RES1   0.0000
    22 H8       1.0445   8.1507  11.2695   H         1 RES1   0.0000
    23 C9       0.6625   9.9868  12.0592   C.ar      1 RES1   0.0000
    24 C10     -0.4982   7.9892  12.5713   C.ar      1 RES1   0.0000
    25 H9      -0.6292   7.0750  12.4610   H         1 RES1   0.0000
    26 C11     -1.1215  10.0509  13.5738   C.ar      1 RES1   0.0000
    27 N1D     -2.3762  12.8422  10.8861   N.pl3     1 RES1   0.0000
    28 H1D     -2.3925  12.0011  10.7069   H         1 RES1   0.0000
    29 N2D     -1.4946  13.4384  11.7310   N.2       1 RES1   0.0000
    30 C1D     -3.2253  13.7589  10.3642   C.2       1 RES1   0.0000
    31 H2D     -3.8893  13.5910   9.7359   H         1 RES1   0.0000
    32 N3D      1.7552  13.5384  14.4371   N.2       1 RES1   0.0000
    33 N4D     -0.1303  14.9578  13.3401   N.ar      1 RES1   0.0000
    34 C2D     -2.9344  14.9937  10.9274   C.2       1 RES1   0.0000
    35 H3D     -3.3652  15.8040  10.7758   H         1 RES1   0.0000
    36 C3D      1.7011  14.8526  14.7798   C.2       1 RES1   0.0000
    37 C4D      2.8285  15.1796  15.5617   C.2       1 RES1   0.0000
    38 H4D      3.0277  16.0040  15.9438   H         1 RES1   0.0000
    39 C5D     -1.8595  14.7501  11.7664   C.2       1 RES1   0.0000
    40 C6D      3.5525  14.0564  15.6385   C.2       1 RES1   0.0000
    41 H5D      4.3698  13.9692  16.0737   H         1 RES1   0.0000
    42 N5D      2.8944  13.0550  14.9669   N.pl3     1 RES1   0.0000
    43 H6D      3.1691  12.2434  14.8960   H         1 RES1   0.0000
    44 C7D     -1.2866  16.9733  12.8359   C.ar      1 RES1   0.0000
    45 H7D     -1.9395  17.4195  12.3494   H         1 RES1   0.0000
    46 C8D      0.5012  17.0233  14.4016   C.ar      1 RES1   0.0000
    47 H8D      1.0445  17.4926  14.9905   H         1 RES1   0.0000
    48 C9D      0.6625  15.6566  14.2008   C.ar      1 RES1   0.0000
    49 C10D    -0.4982  17.6542  13.6887   C.ar      1 RES1   0.0000
    50 H9D     -0.6292  18.5684  13.7990   H         1 RES1   0.0000
    51 C11D    -1.1215  15.5924  12.6862   C.ar      1 RES1   0.0000
    52 S1       1.1659  10.3638  15.8407   S.3       2 RES2   0.0000
    53 S2       2.1927   8.6880  15.4015   S.3       2 RES2   0.0000
    54 N6       3.1557  10.6253  17.6822   N.ar      2 RES2   0.0000
    55 C12      3.7975  11.2985  18.7162   C.ar      2 RES2   0.0000
    56 H10      4.5904  10.9638  19.0667   H         2 RES2   0.0000
    57 C13      3.2520  12.4716  19.2243   C.ar      2 RES2   0.0000
    58 H11      3.6821  12.9217  19.9156   H         2 RES2   0.0000
    59 C14      2.0661  12.9717  18.7004   C.ar      2 RES2   0.0000
    60 H12      1.7019  13.7564  19.0411   H         2 RES2   0.0000
    61 C15      1.4243  12.2986  17.6684   C.ar      2 RES2   0.0000
    62 H13      0.6314  12.6332  17.3178   H         2 RES2   0.0000
    63 C16      1.9698  11.1254  17.1583   C.ar      2 RES2   0.0000
    64 C17      3.5059   9.1675  14.3734   C.ar      2 RES2   0.0000
    65 C18      4.1847   8.2097  13.6309   C.ar      2 RES2   0.0000
    66 H14      3.8827   7.3302  13.6191   H         2 RES2   0.0000
    67 C19      5.3180   8.5649  12.9081   C.ar      2 RES2   0.0000
    68 H15      5.7725   7.9238  12.4118   H         2 RES2   0.0000
    69 C20      5.7703   9.8791  12.9258   C.ar      2 RES2   0.0000
    70 H16      6.5291  10.1163  12.4433   H         2 RES2   0.0000
    71 C21      5.0915  10.8369  13.6683   C.ar      2 RES2   0.0000
    72 H17      5.3935  11.7165  13.6821   H         2 RES2   0.0000
    73 N7       3.9582  10.4817  14.3911   N.ar      2 RES2   0.0000
    74 P1      -7.3234  12.9589   9.8475   P.3       3 RES3  -1.0000
    75 F1      -5.9554  12.1460   9.9263   F         3 RES3   0.0000
    76 F2      -6.8282  13.9782  10.9110   F         3 RES3   0.0000
    77 F3      -7.8060  12.0024   8.8391   F         3 RES3   0.0000
    78 F1C     -8.7114  13.7371   9.7687   F         3 RES3   0.0000
    79 F2C     -6.6882  13.8974   8.7840   F         3 RES3   0.0000
    80 F3C     -7.9104  12.0626  10.8559   F         3 RES3   0.0000
    81 P2       3.5673   6.1788   9.8475   P.3       4 RES4  -1.0000
    82 F4       2.7715   4.8004   9.8475   F         4 RES4   0.0000
    83 F5       4.3727   7.5738   9.8475   F         4 RES4   0.0000
    84 F6       2.2200   6.9711   9.6368   F         4 RES4   0.0000
    85 F7       3.3808   6.2839  11.3896   F         4 RES4   0.0000
    86 F6C      4.9272   5.4082  10.0582   F         4 RES4   0.0000
    87 F7C      3.7516   6.0698   8.3054   F         4 RES4   0.0000
@<TRIPOS>BOND
     1     1     4    1
     2     2     3    1
     3     4     2    1
     4     5     2    1
     5     6     5    1
     6     7     1    1
     7     8     1    1
     8     9     5    2
     9    10     9    1
    10    11     7    2
    11    12    11    1
    12    13    12    1
    13    14     4    2
    14    15    12    2
    15    16    15    1
    16    17     7    1
    17    18    17    1
    18    19    20    1
    19    21    22    1
    20    23     8   ar
    21    24    19   ar
    22    25    24    1
    23    26     8   ar
    24    27    28    1
    25    29     1    1
    26    30    27    1
    27    31    30    1
    28    32     1    1
    29    33     1    1
    30    34    30    2
    31    35    34    1
    32    36    32    2
    33    37    36    1
    34    38    37    1
    35    39    29    2
    36    40    37    2
    37    41    40    1
    38    42    32    1
    39    43    42    1
    40    44    45    1
    41    46    47    1
    42    48    33   ar
    43    49    44   ar
    44    50    49    1
    45    51    33   ar
    46     9    14    1
    47    11    23    1
    48    14    26    1
    49    15    17    1
    50    19    26   ar
    51    21    23   ar
    52    21    24   ar
    53    27    29    1
    54    34    39    1
    55    36    48    1
    56    39    51    1
    57    40    42    1
    58    44    51   ar
    59    46    48   ar
    60    46    49   ar
    61    52    53    1
    62    53    64    1
    63    54    55   ar
    64    55    56    1
    65    57    55   ar
    66    58    57    1
    67    59    57   ar
    68    60    59    1
    69    61    59   ar
    70    62    61    1
    71    63    52    1
    72    64    65   ar
    73    65    66    1
    74    67    65   ar
    75    68    67    1
    76    69    67   ar
    77    70    69    1
    78    71    69   ar
    79    72    71    1
    80    73    64   ar
    81    54    63   ar
    82    61    63   ar
    83    71    73   ar
    84    74    75    1
    85    76    74    1
    86    77    74    1
    87    78    74    1
    88    79    74    1
    89    80    74    1
    90    81    82    1
    91    83    81    1
    92    84    81    1
    93    85    81    1
    94    86    81    1
    95    87    81    1
@<TRIPOS>SUBSTRUCTURE
     1 RES1        1 GROUP             0 ****  ****    0  
     2 RES2       52 GROUP             0 ****  ****    0  
     3 RES3       74 GROUP             0 ****  ****    0  
     4 RES4       81 GROUP             0 ****  ****    0  
@<TRIPOS>CRYSIN
   14.8052   14.8052   19.6950   90.0000   90.0000  120.0000   154     1
