@<TRIPOS>MOLECULE
RAVQOY01
   105   114     5     0     0
SMALL
USER_CHARGES
****
Generated from the CSD

@<TRIPOS>ATOM
     1 Fe1      3.4324   9.0364   5.4533   Fe        1 RES1   2.0000
     2 N1       2.7460   8.2546   3.7099   N.ar      1 RES1   0.0000
     3 N2       1.9396   7.7348   6.0625   N.2       1 RES1   0.0000
     4 N3       4.2610   9.9399   7.0535   N.ar      1 RES1   0.0000
     5 N4       4.6431   9.9196   4.0125   N.2       1 RES1   0.0000
     6 N5       2.3027  10.7875   5.6708   N.2       1 RES1   0.0000
     7 N6       1.3536   7.3447   7.2114   N.pl3     1 RES1   0.0000
     8 H1       1.5686   7.6334   7.9926   H         1 RES1   0.0000
     9 N7       4.9368   7.7267   6.0009   N.2       1 RES1   0.0000
    10 N8       1.2966  11.4141   5.0374   N.pl3     1 RES1   0.0000
    11 H2       0.8341  11.0676   4.3993   H         1 RES1   0.0000
    12 N9       5.6511  10.8226   3.9659   N.pl3     1 RES1   0.0000
    13 H3       6.0244  11.1740   4.6571   H         1 RES1   0.0000
    14 C1       1.7620   7.3255   3.7208   C.ar      1 RES1   0.0000
    15 C2       3.3110   8.6226   2.5402   C.ar      1 RES1   0.0000
    16 N10      5.5167   6.6193   5.5109   N.pl3     1 RES1   0.0000
    17 H4       5.2448   6.1890   4.8187   H         1 RES1   0.0000
    18 C3       4.3610   9.6166   2.7353   C.2       1 RES1   0.0000
    19 C4       1.3013   7.0596   5.0845   C.2       1 RES1   0.0000
    20 C5       2.7569  11.6523   6.5837   C.2       1 RES1   0.0000
    21 C6       5.2833   9.3465   7.6986   C.ar      1 RES1   0.0000
    22 C7       3.8606  11.1757   7.4091   C.ar      1 RES1   0.0000
    23 C8       1.3021   6.7463   2.5566   C.ar      1 RES1   0.0000
    24 H5       0.6188   6.1160   2.5797   H         1 RES1   0.0000
    25 C9       2.8954   8.0606   1.3362   C.ar      1 RES1   0.0000
    26 H6       3.2942   8.3127   0.5352   H         1 RES1   0.0000
    27 C10      0.3792   6.4352   6.9681   C.2       1 RES1   0.0000
    28 H7      -0.1517   6.0199   7.6081   H         1 RES1   0.0000
    29 C11      0.3130   6.2359   5.6247   C.2       1 RES1   0.0000
    30 H8      -0.2663   5.6719   5.1660   H         1 RES1   0.0000
    31 C12      5.6654   8.0901   7.0699   C.2       1 RES1   0.0000
    32 C13      1.8749   7.1172   1.3550   C.ar      1 RES1   0.0000
    33 H9       1.5783   6.7357   0.5592   H         1 RES1   0.0000
    34 C14      5.9867  11.0922   2.7086   C.2       1 RES1   0.0000
    35 H10      6.6525  11.6817   2.4377   H         1 RES1   0.0000
    36 C15      5.1948  10.3631   1.8873   C.2       1 RES1   0.0000
    37 H11      5.2022  10.3583   0.9589   H         1 RES1   0.0000
    38 C16      4.4763  11.8619   8.4550   C.ar      1 RES1   0.0000
    39 H12      4.2139  12.7258   8.6785   H         1 RES1   0.0000
    40 C17      5.9022   9.9516   8.7803   C.ar      1 RES1   0.0000
    41 H13      6.5790   9.5165   9.2464   H         1 RES1   0.0000
    42 C18      5.4901  11.2213   9.1525   C.ar      1 RES1   0.0000
    43 H14      5.8945  11.6461   9.8733   H         1 RES1   0.0000
    44 C19      2.0437  12.8468   6.5247   C.2       1 RES1   0.0000
    45 H15      2.1691  13.6096   7.0424   H         1 RES1   0.0000
    46 C20      1.1078  12.6477   5.5242   C.2       1 RES1   0.0000
    47 H16      0.4645  13.2583   5.2425   H         1 RES1   0.0000
    48 C21      6.5768   6.2793   6.2495   C.2       1 RES1   0.0000
    49 H17      7.1301   5.5475   6.0987   H         1 RES1   0.0000
    50 C22      6.7107   7.1940   7.2696   C.2       1 RES1   0.0000
    51 H18      7.3547   7.2097   7.9402   H         1 RES1   0.0000
    52 N11      5.2079   9.2938  12.5985   N.2       2 RES2   0.0000
    53 N12      2.6227   8.1258   9.5144   N.ar      2 RES2   0.0000
    54 N13      5.4261  10.5277  12.6370   N.2       2 RES2   0.0000
    55 C23      4.2922   8.9358  11.5553   C.ar      2 RES2   0.0000
    56 N14      8.0437  11.7139  15.6815   N.ar      2 RES2   0.0000
    57 C24      2.4443   9.2977  10.1136   C.ar      2 RES2   0.0000
    58 H19      1.7412   9.8367   9.8318   H         2 RES2   0.0000
    59 C25      3.2584   9.7559  11.1424   C.ar      2 RES2   0.0000
    60 H20      3.1141  10.5845  11.5400   H         2 RES2   0.0000
    61 C26      4.4609   7.6957  10.9808   C.ar      2 RES2   0.0000
    62 H21      5.1205   7.1133  11.2822   H         2 RES2   0.0000
    63 C27      6.3627  10.8808  13.6588   C.ar      2 RES2   0.0000
    64 C28      3.6202   7.3483   9.9476   C.ar      2 RES2   0.0000
    65 H22      3.7536   6.5290   9.5282   H         2 RES2   0.0000
    66 C29      7.2990  10.0042  14.1547   C.ar      2 RES2   0.0000
    67 H23      7.3758   9.1390  13.8204   H         2 RES2   0.0000
    68 C30      7.1423  12.5427  15.1180   C.ar      2 RES2   0.0000
    69 H24      7.1036  13.4166  15.4325   H         2 RES2   0.0000
    70 C31      6.2939  12.1929  14.1284   C.ar      2 RES2   0.0000
    71 H25      5.6871  12.8021  13.7746   H         2 RES2   0.0000
    72 C32      8.1295  10.4649  15.1791   C.ar      2 RES2   0.0000
    73 H26      8.7685   9.8868  15.5286   H         2 RES2   0.0000
    74 N15      2.4766   2.6485   0.6660   N.2       3 RES3   0.0000
    75 N16      3.0669   2.5705  -0.4231   N.2       3 RES3   0.0000
    76 N17      4.3388   5.0922   3.5321   N.ar      3 RES3   0.0000
    77 N18      1.0904   0.2308  -3.2752   N.ar      3 RES3   0.0000
    78 C33      2.3766   1.7353  -1.3521   C.ar      3 RES3   0.0000
    79 C34      3.1450   3.4971   1.6186   C.ar      3 RES3   0.0000
    80 C35      1.5854   0.6669  -0.9786   C.ar      3 RES3   0.0000
    81 H27      1.4672   0.4487  -0.0830   H         3 RES3   0.0000
    82 C36      2.7523   3.4138   2.9183   C.ar      3 RES3   0.0000
    83 H28      2.0768   2.8287   3.1761   H         3 RES3   0.0000
    84 C37      2.5603   2.0273  -2.6955   C.ar      3 RES3   0.0000
    85 H29      3.1257   2.7138  -2.9664   H         3 RES3   0.0000
    86 C38      3.3848   4.2230   3.8510   C.ar      3 RES3   0.0000
    87 H30      3.1298   4.1547   4.7444   H         3 RES3   0.0000
    88 C39      1.8761   1.2630  -3.6129   C.ar      3 RES3   0.0000
    89 H31      1.9628   1.4732  -4.5151   H         3 RES3   0.0000
    90 C40      4.6868   5.1709   2.2521   C.ar      3 RES3   0.0000
    91 H32      5.3540   5.7739   2.0140   H         3 RES3   0.0000
    92 C41      0.9747  -0.0695  -1.9790   C.ar      3 RES3   0.0000
    93 H33      0.4606  -0.8057  -1.7366   H         3 RES3   0.0000
    94 C42      4.1172   4.4109   1.2582   C.ar      3 RES3   0.0000
    95 H34      4.3774   4.5097   0.3713   H         3 RES3   0.0000
    96 F1       7.3630   3.1825   1.8519   F         4 RES4   0.0000
    97 F2       9.4569   3.4025   2.5841   F         4 RES4   0.0000
    98 B1       8.2257   3.9000   2.5609   B         4 RES4  -1.0000
    99 F3       7.7846   4.1538   3.7833   F         4 RES4   0.0000
   100 F4       8.1888   5.0876   1.9681   F         4 RES4   0.0000
   101 F5       9.8732   8.8116  11.7759   F         5 RES5   0.0000
   102 F6       9.1547   8.3072   9.7053   F         5 RES5   0.0000
   103 B2       8.7855   8.7562  10.9589   B         5 RES5  -1.0000
   104 F7       8.1930   9.9972  10.8886   F         5 RES5   0.0000
   105 F8       7.8759   7.8743  11.5072   F         5 RES5   0.0000
@<TRIPOS>BOND
     1     1     2    1
     2     2    14   ar
     3     3     1    1
     4     4     1    1
     5     5     1    1
     6     6     1    1
     7     7     3    1
     8     8     7    1
     9     9     1    1
    10    10     6    1
    11    11    10    1
    12    12     5    1
    13    13    12    1
    14    14    19    1
    15    15     2   ar
    16    16     9    1
    17    17    16    1
    18    18     5    2
    19    19     3    2
    20    20     6    2
    21    21     4   ar
    22    22     4   ar
    23    23    14   ar
    24    24    23    1
    25    25    15   ar
    26    26    25    1
    27    27     7    1
    28    28    27    1
    29    29    19    1
    30    30    29    1
    31    31     9    2
    32    32    23   ar
    33    33    32    1
    34    34    12    1
    35    35    34    1
    36    36    18    1
    37    37    36    1
    38    38    22   ar
    39    39    38    1
    40    40    21   ar
    41    41    40    1
    42    42    38   ar
    43    43    42    1
    44    44    20    1
    45    45    44    1
    46    46    10    1
    47    47    46    1
    48    48    16    1
    49    49    48    1
    50    50    31    1
    51    51    50    1
    52    15    18    1
    53    20    22    1
    54    21    31    1
    55    25    32   ar
    56    27    29    2
    57    34    36    2
    58    40    42   ar
    59    44    46    2
    60    48    50    2
    61    52    54    2
    62    53    57   ar
    63    54    63    1
    64    55    52    1
    65    56    68   ar
    66    57    58    1
    67    59    55   ar
    68    60    59    1
    69    61    55   ar
    70    62    61    1
    71    63    66   ar
    72    64    53   ar
    73    65    64    1
    74    66    67    1
    75    68    69    1
    76    70    63   ar
    77    71    70    1
    78    72    56   ar
    79    73    72    1
    80    57    59   ar
    81    61    64   ar
    82    66    72   ar
    83    68    70   ar
    84    74    75    2
    85    75    78    1
    86    76    86   ar
    87    77    88   ar
    88    78    80   ar
    89    79    74    1
    90    80    81    1
    91    82    79   ar
    92    83    82    1
    93    84    78   ar
    94    85    84    1
    95    86    82   ar
    96    87    86    1
    97    88    84   ar
    98    89    88    1
    99    90    76   ar
   100    91    90    1
   101    92    77   ar
   102    93    92    1
   103    94    79   ar
   104    95    94    1
   105    80    92   ar
   106    90    94   ar
   107    96    98    1
   108    97    98    1
   109    98    99    1
   110   100    98    1
   111   101   103    1
   112   102   103    1
   113   103   104    1
   114   105   103    1
@<TRIPOS>SUBSTRUCTURE
     1 RES1        1 GROUP             0 ****  ****    0  
     2 RES2       52 GROUP             0 ****  ****    0  
     3 RES3       74 GROUP             0 ****  ****    0  
     4 RES4       96 GROUP             0 ****  ****    0  
     5 RES5      101 GROUP             0 ****  ****    0  
@<TRIPOS>CRYSIN
    9.9373   10.2410   22.3677   81.9200   80.0610   85.8980     2     1
