@<TRIPOS>MOLECULE
RAVQOY
   105   114     5     0     0
SMALL
USER_CHARGES
****
Generated from the CSD

@<TRIPOS>ATOM
     1 Fe1      2.9429   9.2465   5.3894   Fe        1 RES1   2.0000
     2 N1       2.2999   8.3399   3.5676   N.ar      1 RES1   0.0000
     3 N2       1.3721   7.8556   5.9445   N.2       1 RES1   0.0000
     4 N3       3.8684  10.2236   7.0177   N.ar      1 RES1   0.0000
     5 N4       4.1872  10.1246   3.7981   N.2       1 RES1   0.0000
     6 N5       1.8052  11.1048   5.6962   N.2       1 RES1   0.0000
     7 N6       0.7277   7.4630   7.0533   N.pl3     1 RES1   0.0000
     8 H1       0.8928   7.7663   7.8409   H         1 RES1   0.0000
     9 N7       4.5799   7.9252   5.9896   N.2       1 RES1   0.0000
    10 N8       0.8098  11.7988   5.1117   N.pl3     1 RES1   0.0000
    11 H2       0.3135  11.4898   4.4817   H         1 RES1   0.0000
    12 N9       5.1790  11.0185   3.6721   N.pl3     1 RES1   0.0000
    13 H3       5.5201  11.4610   4.3250   H         1 RES1   0.0000
    14 C1       1.3353   7.4055   3.5907   C.ar      1 RES1   0.0000
    15 C2       2.9020   8.6545   2.4059   C.ar      1 RES1   0.0000
    16 N10      5.2028   6.8337   5.5292   N.pl3     1 RES1   0.0000
    17 H4       4.9254   6.3577   4.8681   H         1 RES1   0.0000
    18 C3       3.9422   9.6765   2.5652   C.2       1 RES1   0.0000
    19 C4       0.8136   7.1611   4.9385   C.2       1 RES1   0.0000
    20 C5       2.3250  11.9428   6.6090   C.2       1 RES1   0.0000
    21 C6       4.8890   9.6319   7.6410   C.ar      1 RES1   0.0000
    22 C7       3.4489  11.4338   7.4019   C.ar      1 RES1   0.0000
    23 C8       0.9177   6.7560   2.4409   C.ar      1 RES1   0.0000
    24 H5       0.2431   6.1171   2.4705   H         1 RES1   0.0000
    25 C9       2.5411   8.0358   1.2198   C.ar      1 RES1   0.0000
    26 H6       2.9674   8.2538   0.4228   H         1 RES1   0.0000
    27 C10     -0.2024   6.5415   6.7827   C.2       1 RES1   0.0000
    28 H7      -0.7602   6.1254   7.3987   H         1 RES1   0.0000
    29 C11     -0.1859   6.3210   5.4285   C.2       1 RES1   0.0000
    30 H8      -0.7231   5.7383   4.9432   H         1 RES1   0.0000
    31 C12      5.3027   8.3688   7.0274   C.2       1 RES1   0.0000
    32 C13      1.5334   7.0862   1.2464   C.ar      1 RES1   0.0000
    33 H9       1.2692   6.6679   0.4593   H         1 RES1   0.0000
    34 C14      5.5660  11.1316   2.3997   C.2       1 RES1   0.0000
    35 H10      6.2418  11.6859   2.0820   H         1 RES1   0.0000
    36 C15      4.7997  10.2930   1.6506   C.2       1 RES1   0.0000
    37 H11      4.8371  10.1596   0.7319   H         1 RES1   0.0000
    38 C16      4.0633  12.1168   8.4483   C.ar      1 RES1   0.0000
    39 H12      3.7866  12.9694   8.6951   H         1 RES1   0.0000
    40 C17      5.5220  10.2419   8.7209   C.ar      1 RES1   0.0000
    41 H13      6.2166   9.8168   9.1716   H         1 RES1   0.0000
    42 C18      5.0949  11.4866   9.1051   C.ar      1 RES1   0.0000
    43 H14      5.5082  11.9124   9.8220   H         1 RES1   0.0000
    44 C19      1.6540  13.1604   6.5938   C.2       1 RES1   0.0000
    45 H15      1.8224  13.9073   7.1197   H         1 RES1   0.0000
    46 C20      0.6872  13.0188   5.6279   C.2       1 RES1   0.0000
    47 H16      0.0606  13.6596   5.3811   H         1 RES1   0.0000
    48 C21      6.3098   6.5814   6.2311   C.2       1 RES1   0.0000
    49 H17      6.9040   5.8786   6.0915   H         1 RES1   0.0000
    50 C22      6.4098   7.5554   7.2012   C.2       1 RES1   0.0000
    51 H18      7.0808   7.6469   7.8387   H         1 RES1   0.0000
    52 N11      4.6660   9.3880  12.4306   N.2       2 RES2   0.0000
    53 N12      2.0142   8.3618   9.3457   N.ar      2 RES2   0.0000
    54 N13      4.8955  10.6018  12.5383   N.2       2 RES2   0.0000
    55 C23      3.7281   9.0854  11.3844   C.ar      2 RES2   0.0000
    56 N14      7.6395  11.5686  15.5851   N.ar      2 RES2   0.0000
    57 C24      1.8754   9.5192   9.9744   C.ar      2 RES2   0.0000
    58 H19      1.1793  10.0802   9.7168   H         2 RES2   0.0000
    59 C25      2.7173   9.9385  11.0025   C.ar      2 RES2   0.0000
    60 H20      2.6004  10.7646  11.4147   H         2 RES2   0.0000
    61 C26      3.8554   7.8687  10.7815   C.ar      2 RES2   0.0000
    62 H21      4.5059   7.2649  11.0562   H         2 RES2   0.0000
    63 C27      5.8600  10.8815  13.5697   C.ar      2 RES2   0.0000
    64 C28      2.9900   7.5571   9.7469   C.ar      2 RES2   0.0000
    65 H22      3.0974   6.7429   9.3133   H         2 RES2   0.0000
    66 C29      6.8189   9.9843  13.9904   C.ar      2 RES2   0.0000
    67 H23      6.8907   9.1369  13.6147   H         2 RES2   0.0000
    68 C30      6.7518  12.4137  15.1494   C.ar      2 RES2   0.0000
    69 H24      6.7329  13.2548  15.5487   H         2 RES2   0.0000
    70 C31      5.8068  12.1621  14.1170   C.ar      2 RES2   0.0000
    71 H25      5.1981  12.8039  13.8294   H         2 RES2   0.0000
    72 C32      7.6700  10.4009  14.9970   C.ar      2 RES2   0.0000
    73 H26      8.3197   9.7993  15.2804   H         2 RES2   0.0000
    74 N15      2.4306   2.6662   0.6590   N.2       3 RES3   0.0000
    75 N16      3.0304   2.6097  -0.4078   N.2       3 RES3   0.0000
    76 N17      4.1050   5.1847   3.5588   N.ar      3 RES3   0.0000
    77 N18      1.2203   0.1560  -3.2840   N.ar      3 RES3   0.0000
    78 C33      2.3821   1.7351  -1.3522   C.ar      3 RES3   0.0000
    79 C34      3.0550   3.5395   1.6012   C.ar      3 RES3   0.0000
    80 C35      1.6363   0.6438  -0.9852   C.ar      3 RES3   0.0000
    81 H27      1.5081   0.4261  -0.0901   H         3 RES3   0.0000
    82 C36      2.5574   3.5207   2.8762   C.ar      3 RES3   0.0000
    83 H28      1.8563   2.9523   3.1016   H         3 RES3   0.0000
    84 C37      2.5963   2.0201  -2.6852   C.ar      3 RES3   0.0000
    85 H29      3.1423   2.7227  -2.9556   H         3 RES3   0.0000
    86 C38      3.1128   4.3564   3.8185   C.ar      3 RES3   0.0000
    87 H30      2.7701   4.3364   4.6835   H         3 RES3   0.0000
    88 C39      1.9466   1.1899  -3.6017   C.ar      3 RES3   0.0000
    89 H31      2.0391   1.3898  -4.5053   H         3 RES3   0.0000
    90 C40      4.5528   5.2154   2.3117   C.ar      3 RES3   0.0000
    91 H32      5.2361   5.8122   2.1035   H         3 RES3   0.0000
    92 C41      1.0796  -0.1247  -1.9983   C.ar      3 RES3   0.0000
    93 H33      0.5832  -0.8743  -1.7601   H         3 RES3   0.0000
    94 C42      4.0607   4.4111   1.3050   C.ar      3 RES3   0.0000
    95 H34      4.4060   4.4616   0.4422   H         3 RES3   0.0000
    96 F1       7.2676   3.0955   2.0198   F         4 RES4   0.0000
    97 F2       9.3853   3.4910   2.5843   F         4 RES4   0.0000
    98 B1       8.1321   3.9237   2.5843   B         4 RES4  -1.0000
    99 F3       7.7242   4.3218   3.7777   F         4 RES4   0.0000
   100 F4       8.0204   5.0464   1.8888   F         4 RES4   0.0000
   101 F5       9.5005   8.6859  11.5750   F         5 RES5   0.0000
   102 F6       8.8836   8.1788   9.4893   F         5 RES5   0.0000
   103 B2       8.5509   8.8057  10.6097   B         5 RES5  -1.0000
   104 F7       8.1979  10.0467  10.4616   F         5 RES5   0.0000
   105 F8       7.4290   8.2126  11.0390   F         5 RES5   0.0000
@<TRIPOS>BOND
     1     1     2    1
     2     2    14   ar
     3     3     1    1
     4     4     1    1
     5     5     1    1
     6     6     1    1
     7     7     3    1
     8     8     7    1
     9     9     1    1
    10    10     6    1
    11    11    10    1
    12    12     5    1
    13    13    12    1
    14    14    19    1
    15    15     2   ar
    16    16     9    1
    17    17    16    1
    18    18     5    2
    19    19     3    2
    20    20     6    2
    21    21     4   ar
    22    22     4   ar
    23    23    14   ar
    24    24    23    1
    25    25    15   ar
    26    26    25    1
    27    27     7    1
    28    28    27    1
    29    29    19    1
    30    30    29    1
    31    31     9    2
    32    32    23   ar
    33    33    32    1
    34    34    12    1
    35    35    34    1
    36    36    18    1
    37    37    36    1
    38    38    22   ar
    39    39    38    1
    40    40    21   ar
    41    41    40    1
    42    42    38   ar
    43    43    42    1
    44    44    20    1
    45    45    44    1
    46    46    10    1
    47    47    46    1
    48    48    16    1
    49    49    48    1
    50    50    31    1
    51    51    50    1
    52    15    18    1
    53    20    22    1
    54    21    31    1
    55    25    32   ar
    56    27    29    2
    57    34    36    2
    58    40    42   ar
    59    44    46    2
    60    48    50    2
    61    52    54    2
    62    53    57   ar
    63    54    63    1
    64    55    52    1
    65    56    68   ar
    66    57    58    1
    67    59    55   ar
    68    60    59    1
    69    61    55   ar
    70    62    61    1
    71    63    66   ar
    72    64    53   ar
    73    65    64    1
    74    66    67    1
    75    68    69    1
    76    70    63   ar
    77    71    70    1
    78    72    56   ar
    79    73    72    1
    80    57    59   ar
    81    61    64   ar
    82    66    72   ar
    83    68    70   ar
    84    74    75    2
    85    75    78    1
    86    76    86   ar
    87    77    88   ar
    88    78    80   ar
    89    79    74    1
    90    80    81    1
    91    82    79   ar
    92    83    82    1
    93    84    78   ar
    94    85    84    1
    95    86    82   ar
    96    87    86    1
    97    88    84   ar
    98    89    88    1
    99    90    76   ar
   100    91    90    1
   101    92    77   ar
   102    93    92    1
   103    94    79   ar
   104    95    94    1
   105    80    92   ar
   106    90    94   ar
   107    96    98    1
   108    97    98    1
   109    98    99    1
   110   100    98    1
   111   101   103    1
   112   102   103    1
   113   103   104    1
   114   105   103    1
@<TRIPOS>SUBSTRUCTURE
     1 RES1        1 GROUP             0 ****  ****    0  
     2 RES2       52 GROUP             0 ****  ****    0  
     3 RES3       74 GROUP             0 ****  ****    0  
     4 RES4       96 GROUP             0 ****  ****    0  
     5 RES5      101 GROUP             0 ****  ****    0  
@<TRIPOS>CRYSIN
   10.2090   10.4618   21.8559   82.2840   82.0510   87.3740     2     1
