@<TRIPOS>MOLECULE
RAXMOS
    88    91     1     0     0
SMALL
NO_CHARGES
****
Generated from the CSD

@<TRIPOS>ATOM
     1 Sn1     -3.4467   5.1369   7.7042   Sn        1 RES1   0.0000
     2 Fe1     -1.2951   4.9746   9.0953   Fe        1 RES1   0.0000
     3 P1      -1.8214   2.8385   9.7187   P.3       1 RES1   0.0000
     4 Si1     -0.9165   7.1199   8.3069   Si        1 RES1   0.0000
     5 O1      -0.2127   4.0242   6.5679   O.2       1 RES1   0.0000
     6 O2       1.2274   5.1297  10.5464   O.2       1 RES1   0.0000
     7 O3      -2.9755   6.3409  11.0634   O.2       1 RES1   0.0000
     8 O4      -4.0615   3.1559   7.6391   O.3       1 RES1   0.0000
     9 O5      -2.3554   7.7182   7.9178   O.3       1 RES1   0.0000
    10 O6      -0.1464   7.2366   6.8909   O.3       1 RES1   0.0000
    11 O7      -0.0885   8.1268   9.2202   O.3       1 RES1   0.0000
    12 C1      -0.6406   4.4146   7.5751   C.1       1 RES1   0.0000
    13 C2       0.2414   5.0713  10.0200   C.1       1 RES1   0.0000
    14 C3      -2.3199   5.7955  10.2925   C.1       1 RES1   0.0000
    15 C4      -2.3806   1.7604   8.4132   C.2       1 RES1   0.0000
    16 C5      -3.3204   2.0431   7.5452   C.2       1 RES1   0.0000
    17 C6      -2.5886   8.9586   7.3068   C.3       1 RES1   0.0000
    18 C7       1.2105   7.2877   6.5823   C.3       1 RES1   0.0000
    19 C8      -0.4133   8.6139  10.4896   C.3       1 RES1   0.0000
    20 C9      -5.2255   5.9487   8.3863   C.3       1 RES1   0.0000
    21 C10     -6.2498   4.9564   8.8807   C.3       1 RES1   0.0000
    22 C11     -7.5994   5.4872   9.0953   C.3       1 RES1   0.0000
    23 C12     -8.3212   4.3088   9.3420   C.3       1 RES1   0.0000
    24 C13     -3.1691   5.4306   5.6318   C.3       1 RES1   0.0000
    25 C14     -4.3614   5.5693   4.8206   C.3       1 RES1   0.0000
    26 C15     -4.2371   5.6204   3.3417   C.3       1 RES1   0.0000
    27 C16     -3.3341   6.6036   2.8835   C.3       1 RES1   0.0000
    28 C17     -3.7673   1.1638   6.4007   C.ar      1 RES1   0.0000
    29 C18     -3.0464   0.0602   6.0828   C.ar      1 RES1   0.0000
    30 C19     -3.4619  -0.7972   5.0312   C.ar      1 RES1   0.0000
    31 C20     -4.6355  -0.5053   4.4047   C.ar      1 RES1   0.0000
    32 C21     -5.3216   0.6002   4.6989   C.ar      1 RES1   0.0000
    33 C22     -4.9021   1.4575   5.7134   C.ar      1 RES1   0.0000
    34 C23     -3.0594   2.6980  11.0366   C.ar      1 RES1   0.0000
    35 C24     -4.2146   1.9738  10.9313   C.ar      1 RES1   0.0000
    36 C25     -5.1425   1.8972  11.9954   C.ar      1 RES1   0.0000
    37 C26     -4.8348   2.5448  13.1677   C.ar      1 RES1   0.0000
    38 C27     -3.7102   3.2671  13.3556   C.ar      1 RES1   0.0000
    39 C28     -2.7914   3.3766  12.2874   C.ar      1 RES1   0.0000
    40 C29     -0.4157   1.8643  10.3493   C.ar      1 RES1   0.0000
    41 C30     -0.4037   1.2113  11.5650   C.ar      1 RES1   0.0000
    42 C31      0.6946   0.4196  11.9541   C.ar      1 RES1   0.0000
    43 C32      1.7746   0.3229  11.0985   C.ar      1 RES1   0.0000
    44 C33      1.8036   0.9741   9.9106   C.ar      1 RES1   0.0000
    45 C34      0.7136   1.7366   9.5061   C.ar      1 RES1   0.0000
    46 H1      -1.9642   0.8975   8.3502   H         1 RES1   0.0000
    47 H2      -3.5349   9.0663   7.1861   H         1 RES1   0.0000
    48 H3      -2.1533   8.9696   6.4513   H         1 RES1   0.0000
    49 H4      -2.2509   9.6774   7.8466   H         1 RES1   0.0000
    50 H5       1.3586   7.3242   5.6349   H         1 RES1   0.0000
    51 H6       1.6646   6.5233   6.9477   H         1 RES1   0.0000
    52 H7       1.5497   8.0867   6.9900   H         1 RES1   0.0000
    53 H8       0.3127   9.1958  10.7270   H         1 RES1   0.0000
    54 H9      -0.4922   7.9170  11.1450   H         1 RES1   0.0000
    55 H10     -1.2299   9.1155  10.4587   H         1 RES1   0.0000
    56 H11     -5.6471   6.4084   7.6556   H         1 RES1   0.0000
    57 H12     -5.0424   6.5726   9.0922   H         1 RES1   0.0000
    58 H13     -6.3330   4.2522   8.2326   H         1 RES1   0.0000
    59 H14     -5.9099   4.5952   9.7032   H         1 RES1   0.0000
    60 H15     -7.8848   6.0180   8.3481   H         1 RES1   0.0000
    61 H16     -7.6006   6.0253   9.8900   H         1 RES1   0.0000
    62 H17     -9.2296   4.5751   9.5071   H         1 RES1   0.0000
    63 H18     -8.0014   3.7889  10.0820   H         1 RES1   0.0000
    64 H19     -8.2836   3.7834   8.5401   H         1 RES1   0.0000
    65 H20     -2.7284   4.6462   5.2933   H         1 RES1   0.0000
    66 H21     -2.6094   6.1968   5.4894   H         1 RES1   0.0000
    67 H22     -4.9719   4.8761   5.0828   H         1 RES1   0.0000
    68 H23     -4.7309   6.4230   5.0539   H         1 RES1   0.0000
    69 H24     -5.0868   5.6514   2.8959   H         1 RES1   0.0000
    70 H25     -3.7887   4.8031   3.1167   H         1 RES1   0.0000
    71 H26     -3.1996   6.5635   1.9340   H         1 RES1   0.0000
    72 H27     -2.4843   6.5726   3.3293   H         1 RES1   0.0000
    73 H28     -3.7824   7.4227   3.1085   H         1 RES1   0.0000
    74 H29     -2.2429  -0.1313   6.5720   H         1 RES1   0.0000
    75 H30     -2.9174  -1.5323   4.7432   H         1 RES1   0.0000
    76 H31     -4.9908  -1.1109   3.7504   H         1 RES1   0.0000
    77 H32     -6.1047   0.8282   4.1942   H         1 RES1   0.0000
    78 H33     -5.4124   2.2383   5.9425   H         1 RES1   0.0000
    79 H34     -4.4052   1.5250  10.1036   H         1 RES1   0.0000
    80 H35     -5.9571   1.3973  11.8973   H         1 RES1   0.0000
    81 H36     -5.4502   2.4700  13.9026   H         1 RES1   0.0000
    82 H37     -3.5344   3.7031  14.1926   H         1 RES1   0.0000
    83 H38     -1.9966   3.9056  12.3762   H         1 RES1   0.0000
    84 H39     -1.1716   1.2824  12.1378   H         1 RES1   0.0000
    85 H40      0.7019  -0.0493  12.7921   H         1 RES1   0.0000
    86 H41      2.5350  -0.1988  11.3658   H         1 RES1   0.0000
    87 H42      2.5806   0.9103   9.3492   H         1 RES1   0.0000
    88 H43      0.7151   2.1726   8.6505   H         1 RES1   0.0000
@<TRIPOS>BOND
     1     1     2    1
     2     2     3    1
     3     3    15    1
     4     4     2    1
     5     5    12    3
     6     6    13    3
     7     7    14    3
     8     8     1    1
     9     9     4    1
    10    10     4    1
    11    11     4    1
    12    12     2    1
    13    13     2    1
    14    14     2    1
    15    15    16    2
    16    16     8    1
    17    17     9    1
    18    18    10    1
    19    19    11    1
    20    20     1    1
    21    21    20    1
    22    22    21    1
    23    23    22    1
    24    24     1    1
    25    25    24    1
    26    26    25    1
    27    27    26    1
    28    28    16    1
    29    29    28   ar
    30    30    29   ar
    31    31    30   ar
    32    32    31   ar
    33    33    28   ar
    34    34     3    1
    35    35    34   ar
    36    36    35   ar
    37    37    36   ar
    38    38    37   ar
    39    39    34   ar
    40    40     3    1
    41    41    40   ar
    42    42    41   ar
    43    43    42   ar
    44    44    43   ar
    45    45    40   ar
    46    46    15    1
    47    47    17    1
    48    48    17    1
    49    49    17    1
    50    50    18    1
    51    51    18    1
    52    52    18    1
    53    53    19    1
    54    54    19    1
    55    55    19    1
    56    56    20    1
    57    57    20    1
    58    58    21    1
    59    59    21    1
    60    60    22    1
    61    61    22    1
    62    62    23    1
    63    63    23    1
    64    64    23    1
    65    65    24    1
    66    66    24    1
    67    67    25    1
    68    68    25    1
    69    69    26    1
    70    70    26    1
    71    71    27    1
    72    72    27    1
    73    73    27    1
    74    74    29    1
    75    75    30    1
    76    76    31    1
    77    77    32    1
    78    78    33    1
    79    79    35    1
    80    80    36    1
    81    81    37    1
    82    82    38    1
    83    83    39    1
    84    84    41    1
    85    85    42    1
    86    86    43    1
    87    87    44    1
    88    88    45    1
    89    32    33   ar
    90    38    39   ar
    91    44    45   ar
@<TRIPOS>SUBSTRUCTURE
     1 RES1        1 GROUP             0 ****  ****    0  
@<TRIPOS>CRYSIN
   20.2710   18.2420   10.6950   90.0000  105.2100   90.0000   231     1
