@<TRIPOS>MOLECULE
RAZPAL
   150   164     3     0     0
SMALL
NO_CHARGES
****
Generated from the CSD

@<TRIPOS>ATOM
     1 Fe1     13.0411  14.9606  17.2935   Fe        1 RES1   0.0000
     2 O1      11.3130  15.6797  17.2467   O.3       1 RES1   0.0000
     3 O2      13.4807  14.6992  15.4353   O.3       1 RES1   0.0000
     4 O3      12.5915  13.1317  17.8895   O.3       1 RES1   0.0000
     5 O4      13.9541  16.9469  16.9423   O.3       1 RES1   0.0000
     6 N1      13.2289  15.6539  19.3752   N.3       1 RES1   0.0000
     7 N2      15.0447  14.2988  17.8046   N.3       1 RES1   0.0000
     8 C1      14.2806  14.8453  20.0562   C.3       1 RES1   0.0000
     9 H1      13.9352  13.9128  20.1651   H         1 RES1   0.0000
    10 C2      14.6641  15.3720  21.4284   C.ar      1 RES1   0.0000
    11 C3      14.9944  16.7151  21.6170   C.ar      1 RES1   0.0000
    12 H2      14.9246  17.3255  20.8916   H         1 RES1   0.0000
    13 C4      15.4258  17.1637  22.8541   C.ar      1 RES1   0.0000
    14 H3      15.6607  18.0768  22.9734   H         1 RES1   0.0000
    15 C5      15.5126  16.2725  23.9252   C.ar      1 RES1   0.0000
    16 H4      15.8016  16.5802  24.7753   H         1 RES1   0.0000
    17 C6      15.1823  14.9678  23.7504   C.ar      1 RES1   0.0000
    18 H5      15.2421  14.3643  24.4820   H         1 RES1   0.0000
    19 C7      14.7567  14.5056  22.5062   C.ar      1 RES1   0.0000
    20 H6      14.5274  13.5911  22.3957   H         1 RES1   0.0000
    21 C8      11.9192  15.5816  20.0569   C.3       1 RES1   0.0000
    22 H7      12.0417  15.8030  21.0138   H         1 RES1   0.0000
    23 H8      11.5775  14.6541  20.0006   H         1 RES1   0.0000
    24 C9      10.8956  16.5255  19.4561   C.ar      1 RES1   0.0000
    25 C10     10.5852  16.4266  18.0572   C.ar      1 RES1   0.0000
    26 C11      9.4548  17.0838  17.5600   C.ar      1 RES1   0.0000
    27 C12      8.6831  17.9204  18.4036   C.ar      1 RES1   0.0000
    28 C13      7.5157  18.5861  17.9604   C.ar      1 RES1   0.0000
    29 H9       7.2367  18.4824  17.0590   H         1 RES1   0.0000
    30 C14      6.7797  19.3756  18.7984   C.ar      1 RES1   0.0000
    31 H10      6.0023  19.8112  18.4720   H         1 RES1   0.0000
    32 C15      7.1655  19.5472  20.1464   C.ar      1 RES1   0.0000
    33 H11      6.6544  20.1049  20.7205   H         1 RES1   0.0000
    34 C16      8.2717  18.9128  20.6187   C.ar      1 RES1   0.0000
    35 H12      8.5180  19.0219  21.5292   H         1 RES1   0.0000
    36 C17      9.0661  18.0900  19.7760   C.ar      1 RES1   0.0000
    37 C18     10.1766  17.3563  20.2617   C.ar      1 RES1   0.0000
    38 H13     10.4258  17.4454  21.1738   H         1 RES1   0.0000
    39 C19      9.0675  16.8264  16.1345   C.ar      1 RES1   0.0000
    40 C20      9.7538  17.3897  15.0629   C.ar      1 RES1   0.0000
    41 C21      9.3466  17.0838  13.7274   C.ar      1 RES1   0.0000
    42 H14      9.7993  17.4914  12.9975   H         1 RES1   0.0000
    43 C22      8.3272  16.2246  13.4810   C.ar      1 RES1   0.0000
    44 H15      8.0596  16.0667  12.5843   H         1 RES1   0.0000
    45 C23      7.6609  15.5632  14.5206   C.ar      1 RES1   0.0000
    46 C24      6.6772  14.5681  14.3017   C.ar      1 RES1   0.0000
    47 H16      6.4380  14.3464  13.4086   H         1 RES1   0.0000
    48 C25      6.0678  13.9228  15.3215   C.ar      1 RES1   0.0000
    49 H17      5.4200  13.2534  15.1371   H         1 RES1   0.0000
    50 C26      6.3910  14.2365  16.6657   C.ar      1 RES1   0.0000
    51 H18      5.9639  13.7809  17.3811   H         1 RES1   0.0000
    52 C27      7.3292  15.2055  16.9206   C.ar      1 RES1   0.0000
    53 H19      7.5257  15.4293  17.8233   H         1 RES1   0.0000
    54 C28      8.0083  15.8769  15.8861   C.ar      1 RES1   0.0000
    55 C29     10.9511  18.2512  15.2020   C.ar      1 RES1   0.0000
    56 C30     12.0445  18.0584  14.3488   C.ar      1 RES1   0.0000
    57 H20     12.0103  17.3595  13.7063   H         1 RES1   0.0000
    58 C31     13.1635  18.8483  14.4124   C.ar      1 RES1   0.0000
    59 H21     13.8811  18.7022  13.8063   H         1 RES1   0.0000
    60 C32     13.2546  19.8675  15.3642   C.ar      1 RES1   0.0000
    61 H22     14.0334  20.4086  15.4282   H         1 RES1   0.0000
    62 C33     12.1783  20.0667  16.2096   C.ar      1 RES1   0.0000
    63 H23     12.2253  20.7603  16.8568   H         1 RES1   0.0000
    64 C34     11.0451  19.2929  16.1423   C.ar      1 RES1   0.0000
    65 H24     10.3218  19.4615  16.7346   H         1 RES1   0.0000
    66 C35     15.4984  14.7997  19.1241   C.3       1 RES1   0.0000
    67 H25     15.8301  15.7350  19.0031   H         1 RES1   0.0000
    68 C36     16.6416  13.9603  19.6756   C.ar      1 RES1   0.0000
    69 C37     17.8774  14.5308  19.9504   C.ar      1 RES1   0.0000
    70 H26     17.9984  15.4673  19.8540   H         1 RES1   0.0000
    71 C38     18.9338  13.7349  20.3646   C.ar      1 RES1   0.0000
    72 H27     19.7709  14.1326  20.5694   H         1 RES1   0.0000
    73 C39     18.7786  12.3838  20.4808   C.ar      1 RES1   0.0000
    74 H28     19.5161  11.8427  20.7383   H         1 RES1   0.0000
    75 C40     17.5528  11.8014  20.2257   C.ar      1 RES1   0.0000
    76 H29     17.4460  10.8617  20.3139   H         1 RES1   0.0000
    77 C41     16.4850  12.5834  19.8445   C.ar      1 RES1   0.0000
    78 H30     15.6365  12.1824  19.6963   H         1 RES1   0.0000
    79 C42     16.0237  14.4984  16.7248   C.3       1 RES1   0.0000
    80 H31     16.9207  14.2245  17.0412   H         1 RES1   0.0000
    81 H32     16.0636  15.4593  16.4924   H         1 RES1   0.0000
    82 C43     15.6650  13.7056  15.4982   C.ar      1 RES1   0.0000
    83 C44     14.3708  13.8824  14.8927   C.ar      1 RES1   0.0000
    84 C45     14.0847  13.2080  13.7076   C.ar      1 RES1   0.0000
    85 C46     15.0129  12.2931  13.1511   C.ar      1 RES1   0.0000
    86 C47     14.7595  11.5858  11.9468   C.ar      1 RES1   0.0000
    87 H33     13.9451  11.7328  11.4823   H         1 RES1   0.0000
    88 C48     15.6692  10.6938  11.4418   C.ar      1 RES1   0.0000
    89 H34     15.4799  10.2403  10.6291   H         1 RES1   0.0000
    90 C49     16.8680  10.4445  12.1050   C.ar      1 RES1   0.0000
    91 H35     17.4873   9.8187  11.7489   H         1 RES1   0.0000
    92 C50     17.1556  11.1060  13.2748   C.ar      1 RES1   0.0000
    93 H36     17.9657  10.9176  13.7352   H         1 RES1   0.0000
    94 C51     16.2587  12.0629  13.8009   C.ar      1 RES1   0.0000
    95 C52     16.5505  12.8140  14.9792   C.ar      1 RES1   0.0000
    96 H37     17.3862  12.6879  15.4126   H         1 RES1   0.0000
    97 C53     12.8062  13.5098  12.9811   C.ar      1 RES1   0.0000
    98 C54     11.7370  12.6324  12.9282   C.ar      1 RES1   0.0000
    99 C55     10.5695  12.9988  12.1850   C.ar      1 RES1   0.0000
   100 H38      9.8335  12.3982  12.1555   H         1 RES1   0.0000
   101 C56     10.4856  14.1713  11.5267   C.ar      1 RES1   0.0000
   102 H39      9.6897  14.3883  11.0557   H         1 RES1   0.0000
   103 C57     11.5633  15.0823  11.5247   C.ar      1 RES1   0.0000
   104 C58     11.5078  16.3219  10.8259   C.ar      1 RES1   0.0000
   105 H40     10.7148  16.5642  10.3625   H         1 RES1   0.0000
   106 C59     12.5812  17.1679  10.8144   C.ar      1 RES1   0.0000
   107 H41     12.5300  17.9929  10.3469   H         1 RES1   0.0000
   108 C60     13.7572  16.8216  11.4911   C.ar      1 RES1   0.0000
   109 H42     14.5061  17.4035  11.4600   H         1 RES1   0.0000
   110 C61     13.8384  15.6439  12.2021   C.ar      1 RES1   0.0000
   111 H43     14.6385  15.4313  12.6665   H         1 RES1   0.0000
   112 C62     12.7450  14.7502  12.2481   C.ar      1 RES1   0.0000
   113 C63     11.7398  11.2975  13.5783   C.ar      1 RES1   0.0000
   114 C64     12.1612  11.1014  14.8918   C.ar      1 RES1   0.0000
   115 H44     12.5186  11.8288  15.3882   H         1 RES1   0.0000
   116 C65     12.0587   9.8422  15.4826   C.ar      1 RES1   0.0000
   117 H45     12.3321   9.7228  16.3836   H         1 RES1   0.0000
   118 C66     11.5661   8.7697  14.7683   C.ar      1 RES1   0.0000
   119 H46     11.4964   7.9165  15.1793   H         1 RES1   0.0000
   120 C67     11.1718   8.9429  13.4552   C.ar      1 RES1   0.0000
   121 H47     10.8472   8.2002  12.9575   H         1 RES1   0.0000
   122 C68     11.2472  10.1903  12.8582   C.ar      1 RES1   0.0000
   123 H48     10.9668  10.3002  11.9577   H         1 RES1   0.0000
   124 C69     11.4594  12.5347  17.9457   C.ar      1 RES1   0.0000
   125 C70     11.1704  11.5782  18.8953   C.ar      1 RES1   0.0000
   126 C71      9.9388  10.8633  18.9626   C.ar      1 RES1   0.0000
   127 C72      9.6598   9.8526  19.9118   C.ar      1 RES1   0.0000
   128 H49     10.3218   9.5869  20.5383   H         1 RES1   0.0000
   129 C73      8.4041   9.2492  19.9184   C.ar      1 RES1   0.0000
   130 H50      8.2147   8.5619  20.5472   H         1 RES1   0.0000
   131 C74      7.3805   9.6628  18.9720   C.ar      1 RES1   0.0000
   132 H51      6.5149   9.2732  19.0031   H         1 RES1   0.0000
   133 C75      7.6567  10.5640  18.0877   C.ar      1 RES1   0.0000
   134 H52      6.9818  10.8177  17.4700   H         1 RES1   0.0000
   135 C76      8.9423  11.2013  18.0008   C.ar      1 RES1   0.0000
   136 C77      9.2128  12.1584  17.0252   C.ar      1 RES1   0.0000
   137 H53      8.5479  12.3622  16.3769   H         1 RES1   0.0000
   138 C78     10.4129  12.8104  16.9834   C.ar      1 RES1   0.0000
   139 H54     10.5653  13.4592  16.3058   H         1 RES1   0.0000
   140 Br1     12.4989  11.2619  20.2342   Br        1 RES1   0.0000
   141 H57     13.4967  16.4444  19.4296   H         1 RES1   0.0000
   142 H58     14.8350  13.5271  17.8722   H         1 RES1   0.0000
   143 H59     13.7672  17.5034  17.3745   H         1 RES1   0.0000
   144 H60     13.8099  17.1837  16.1747   H         1 RES1   0.0000
   145 O5      13.5709  18.7334  19.0379   O.3       2 RES2   0.0000
   146 C79     10.4557   6.5438  18.8902   C.3       3 RES3   0.0000
   147 H55      9.8492   6.7636  19.6407   H         3 RES3   0.0000
   148 H56     10.5425   5.5587  18.8453   H         3 RES3   0.0000
   149 Cl1      9.7619   7.1412  17.3798   Cl        3 RES3   0.0000
   150 Cl2     12.0357   7.2591  19.1806   Cl        3 RES3   0.0000
@<TRIPOS>BOND
     1     1     2    1
     2     2    25    1
     3     3     1    1
     4     4     1    1
     5     5     1    1
     6     6     1    1
     7     7     1    1
     8     8     6    1
     9     9     8    1
    10    10     8    1
    11    11    10   ar
    12    12    11    1
    13    13    11   ar
    14    14    13    1
    15    15    13   ar
    16    16    15    1
    17    17    15   ar
    18    18    17    1
    19    19    10   ar
    20    20    19    1
    21    21     6    1
    22    22    21    1
    23    23    21    1
    24    24    21    1
    25    25    24   ar
    26    26    25   ar
    27    27    26   ar
    28    28    27   ar
    29    29    28    1
    30    30    28   ar
    31    31    30    1
    32    32    30   ar
    33    33    32    1
    34    34    32   ar
    35    35    34    1
    36    36    27   ar
    37    37    24   ar
    38    38    37    1
    39    39    26    1
    40    40    39   ar
    41    41    40   ar
    42    42    41    1
    43    43    41   ar
    44    44    43    1
    45    45    43   ar
    46    46    45   ar
    47    47    46    1
    48    48    46   ar
    49    49    48    1
    50    50    48   ar
    51    51    50    1
    52    52    50   ar
    53    53    52    1
    54    54    39   ar
    55    55    40    1
    56    56    55   ar
    57    57    56    1
    58    58    56   ar
    59    59    58    1
    60    60    58   ar
    61    61    60    1
    62    62    60   ar
    63    63    62    1
    64    64    55   ar
    65    65    64    1
    66    66     7    1
    67    67    66    1
    68    68    66    1
    69    69    68   ar
    70    70    69    1
    71    71    69   ar
    72    72    71    1
    73    73    71   ar
    74    74    73    1
    75    75    73   ar
    76    76    75    1
    77    77    68   ar
    78    78    77    1
    79    79     7    1
    80    80    79    1
    81    81    79    1
    82    82    79    1
    83    83     3    1
    84    84    83   ar
    85    85    84   ar
    86    86    85   ar
    87    87    86    1
    88    88    86   ar
    89    89    88    1
    90    90    88   ar
    91    91    90    1
    92    92    90   ar
    93    93    92    1
    94    94    85   ar
    95    95    82   ar
    96    96    95    1
    97    97    84    1
    98    98    97   ar
    99    99    98   ar
   100   100    99    1
   101   101    99   ar
   102   102   101    1
   103   103   101   ar
   104   104   103   ar
   105   105   104    1
   106   106   104   ar
   107   107   106    1
   108   108   106   ar
   109   109   108    1
   110   110   108   ar
   111   111   110    1
   112   112    97   ar
   113   113    98    1
   114   114   113   ar
   115   115   114    1
   116   116   114   ar
   117   117   116    1
   118   118   116   ar
   119   119   118    1
   120   120   118   ar
   121   121   120    1
   122   122   113   ar
   123   123   122    1
   124   124     4    1
   125   125   124   ar
   126   126   125   ar
   127   127   126   ar
   128   128   127    1
   129   129   127   ar
   130   130   129    1
   131   131   129   ar
   132   132   131    1
   133   133   131   ar
   134   134   133    1
   135   135   126   ar
   136   136   135   ar
   137   137   136    1
   138   138   124   ar
   139   139   138    1
   140   140   125    1
   141   141     6    1
   142   142     7    1
   143   143     5    1
   144   144     5    1
   145     8    66    1
   146    17    19   ar
   147    34    36   ar
   148    36    37   ar
   149    45    54   ar
   150    52    54   ar
   151    62    64   ar
   152    75    77   ar
   153    82    83   ar
   154    92    94   ar
   155    94    95   ar
   156   103   112   ar
   157   110   112   ar
   158   120   122   ar
   159   133   135   ar
   160   136   138   ar
   161   146   147    1
   162   148   146    1
   163   149   146    1
   164   150   146    1
@<TRIPOS>SUBSTRUCTURE
     1 RES1        1 GROUP             0 ****  ****    0  
     2 RES2      145 GROUP             0 ****  ****    0  
     3 RES3      146 GROUP             0 ****  ****    0  
@<TRIPOS>CRYSIN
   14.2370   19.9810   22.2180   90.0000   90.0000   90.0000    19     1
