@<TRIPOS>MOLECULE
REBKUI
    78    82     4     0     0
SMALL
USER_CHARGES
****
Generated from the CSD

@<TRIPOS>ATOM
     1 Fe1      3.9846   8.4417  16.1282   Fe        1 RES1   1.0000
     2 S1       3.3131   9.9222  17.6318   S.3       1 RES1   0.0000
     3 S2       1.7244   7.9194  15.6246   S.2       1 RES1   0.0000
     4 S3       6.1238   8.9133  16.4159   S.3       1 RES1   0.0000
     5 S4       4.5094   6.7996  14.4528   S.2       1 RES1   0.0000
     6 N1       3.8282   9.2026  13.4135   N.am      1 RES1   0.0000
     7 N2       2.7949   6.2264  17.4502   N.am      1 RES1   0.0000
     8 N3       3.9214   7.0717  17.5209   N.2       1 RES1   0.0000
     9 N4       4.0381   9.7553  14.6959   N.2       1 RES1   0.0000
    10 N5       0.7761   5.6672  16.8841   N.am      1 RES1   0.0000
    11 N6       3.6649   7.6172  11.9557   N.am      1 RES1   0.0000
    12 C1       4.3992  11.8528  15.8910   C.ar      1 RES1   0.0000
    13 C2       4.0011   7.8626  13.2387   C.2       1 RES1   0.0000
    14 C3       2.4687   5.0854  18.2017   C.2       1 RES1   0.0000
    15 H1       3.0170   4.6400  18.8377   H         1 RES1   0.0000
    16 C4       1.7478   6.5802  16.6502   C.2       1 RES1   0.0000
    17 C5       5.9452   7.5340  18.8468   C.ar      1 RES1   0.0000
    18 C6       3.8533  12.4897  18.1710   C.ar      1 RES1   0.0000
    19 H2       3.4972  12.2730  19.0259   H         1 RES1   0.0000
    20 C7       4.3300  11.0266  14.7086   C.2       1 RES1   0.0000
    21 H3       4.5116  11.4413  13.8733   H         1 RES1   0.0000
    22 C8       4.7173   6.8461  18.5251   C.2       1 RES1   0.0000
    23 H4       4.4601   6.1478  19.1150   H         1 RES1   0.0000
    24 C9       7.8753   8.9555  18.4460   C.ar      1 RES1   0.0000
    25 H5       8.3663   9.5381  17.8773   H         1 RES1   0.0000
    26 C10      3.9071  11.4935  17.1744   C.ar      1 RES1   0.0000
    27 C11      4.3058  13.7768  17.9342   C.ar      1 RES1   0.0000
    28 H6       4.2609  14.4281  18.6239   H         1 RES1   0.0000
    29 C12      4.8299  14.1237  16.6819   C.ar      1 RES1   0.0000
    30 H7       5.1565  15.0017  16.5248   H         1 RES1   0.0000
    31 C13      6.6407   8.4383  18.0007   C.ar      1 RES1   0.0000
    32 C14      4.8674  13.1778  15.6793   C.ar      1 RES1   0.0000
    33 H8       5.2127  13.4181  14.8278   H         1 RES1   0.0000
    34 C15      1.2160   4.7556  17.8314   C.2       1 RES1   0.0000
    35 H9       0.7168   4.0193  18.1645   H         1 RES1   0.0000
    36 C16      3.3762   9.8063  12.2391   C.2       1 RES1   0.0000
    37 H10      3.1774  10.7263  12.1030   H         1 RES1   0.0000
    38 C17      6.4990   7.2183  20.1146   C.ar      1 RES1   0.0000
    39 H11      6.0350   6.6169  20.6872   H         1 RES1   0.0000
    40 C18      3.2805   8.8089  11.3383   C.2       1 RES1   0.0000
    41 H12      2.9990   8.9010  10.4357   H         1 RES1   0.0000
    42 C19      8.3880   8.6345  19.6880   C.ar      1 RES1   0.0000
    43 H13      9.2157   9.0055  19.9684   H         1 RES1   0.0000
    44 C20     -0.4803   5.5996  16.1431   C.3       1 RES1   0.0000
    45 H14     -0.7811   6.5063  15.9268   H         1 RES1   0.0000
    46 H15     -1.1582   5.1522  16.6912   H         1 RES1   0.0000
    47 H16     -0.3438   5.0948  15.3149   H         1 RES1   0.0000
    48 C21      7.6908   7.7612  20.5360   C.ar      1 RES1   0.0000
    49 H17      8.0387   7.5469  21.3942   H         1 RES1   0.0000
    50 C22      3.6054   6.2729  11.3676   C.3       1 RES1   0.0000
    51 H18      4.5063   5.9921  11.1030   H         1 RES1   0.0000
    52 H19      3.0224   6.2871  10.5803   H         1 RES1   0.0000
    53 H20      3.2480   5.6438  12.0278   H         1 RES1   0.0000
    54 F1      11.3010   7.5394   8.1971   F         2 RES2   0.0000
    55 F2       9.3720   7.0786   9.3401   F         2 RES2   0.0000
    56 F3       9.5629   6.4854   7.1670   F         2 RES2   0.0000
    57 F4       9.4096   8.6734   7.7264   F         2 RES2   0.0000
    58 B1       9.9026   7.4461   8.1109   B         2 RES2  -1.0000
    59 O1       1.9944  12.5166  13.6761   O.2       3 RES3   0.0000
    60 C23      1.1041  12.5180  14.5046   C.2       3 RES3   0.0000
    61 C24      0.3347  11.2917  14.8516   C.3       3 RES3   0.0000
    62 H21      0.6163  10.5542  14.2714   H         3 RES3   0.0000
    63 H22     -0.6221  11.4597  14.7248   H         3 RES3   0.0000
    64 H23      0.5042  11.0541  15.7862   H         3 RES3   0.0000
    65 C25      0.7353  13.7578  15.2417   C.3       3 RES3   0.0000
    66 H24      1.4015  14.4547  15.0635   H         3 RES3   0.0000
    67 H25      0.7073  13.5697  16.2041   H         3 RES3   0.0000
    68 H26     -0.1461  14.0655  14.9427   H         3 RES3   0.0000
    69 O2       6.7161   6.7220  11.0925   O.2       4 RES4   0.0000
    70 C26      6.9877   7.9032  11.1159   C.2       4 RES4   0.0000
    71 C27      6.5959   8.8074   9.9779   C.3       4 RES4   0.0000
    72 H27      7.3780   8.9789   9.4119   H         4 RES4   0.0000
    73 H28      6.2589   9.6549  10.3347   H         4 RES4   0.0000
    74 H29      5.8955   8.3766   9.4436   H         4 RES4   0.0000
    75 C28      7.7050   8.5368  12.2595   C.3       4 RES4   0.0000
    76 H30      7.1206   9.1981  12.6872   H         4 RES4   0.0000
    77 H31      8.5150   8.9809  11.9308   H         4 RES4   0.0000
    78 H32      7.9517   7.8481  12.9129   H         4 RES4   0.0000
@<TRIPOS>BOND
     1     1     2    1
     2     2    26    1
     3     3     1    1
     4     4     1    1
     5     5     1    1
     6     6     9    1
     7     7     8    1
     8     8     1    1
     9     9     1    1
    10    10    16   am
    11    11    13   am
    12    12    20    1
    13    13     5    2
    14    14     7    1
    15    15    14    1
    16    16     3    2
    17    17    22    1
    18    18    19    1
    19    20     9    2
    20    21    20    1
    21    22     8    2
    22    23    22    1
    23    24    25    1
    24    26    12   ar
    25    27    18   ar
    26    28    27    1
    27    29    27   ar
    28    30    29    1
    29    31     4    1
    30    32    12   ar
    31    33    32    1
    32    34    10    1
    33    35    34    1
    34    36     6    1
    35    37    36    1
    36    38    17   ar
    37    39    38    1
    38    40    11    1
    39    41    40    1
    40    42    24   ar
    41    43    42    1
    42    44    10    1
    43    45    44    1
    44    46    44    1
    45    47    44    1
    46    48    38   ar
    47    49    48    1
    48    50    11    1
    49    51    50    1
    50    52    50    1
    51    53    50    1
    52     6    13   am
    53     7    16   am
    54    14    34    2
    55    17    31   ar
    56    18    26   ar
    57    24    31   ar
    58    29    32   ar
    59    36    40    2
    60    42    48   ar
    61    54    58    1
    62    55    58    1
    63    56    58    1
    64    57    58    1
    65    59    60    2
    66    60    61    1
    67    61    62    1
    68    63    61    1
    69    64    61    1
    70    65    60    1
    71    66    65    1
    72    67    65    1
    73    68    65    1
    74    69    70    2
    75    70    71    1
    76    71    72    1
    77    73    71    1
    78    74    71    1
    79    75    70    1
    80    76    75    1
    81    77    75    1
    82    78    75    1
@<TRIPOS>SUBSTRUCTURE
     1 RES1        1 GROUP             0 ****  ****    0  
     2 RES2       54 GROUP             0 ****  ****    0  
     3 RES3       59 GROUP             0 ****  ****    0  
     4 RES4       69 GROUP             0 ****  ****    0  
@<TRIPOS>CRYSIN
    8.2261   20.4857   19.8120   90.0000   91.8120   90.0000   231     1
