@<TRIPOS>MOLECULE
REBQAU01
   138   145     5     0     0
SMALL
USER_CHARGES
****
Generated from the CSD

@<TRIPOS>ATOM
     1 Fe1      6.9870   5.3060   3.8476   Fe        1 RES1   2.0000
     2 S1       5.6705   1.0685   2.6291   S.3       1 RES1   0.0000
     3 S2      10.1172   5.1609   0.4859   S.3       1 RES1   0.0000
     4 S3       7.7133   9.7681   4.2306   S.3       1 RES1   0.0000
     5 N1       5.5406   5.6566   5.3769   N.2       1 RES1   0.0000
     6 N2       5.4327   5.8563   2.4996   N.2       1 RES1   0.0000
     7 N3       8.5564   4.4571   4.9493   N.2       1 RES1   0.0000
     8 N4       8.4732   5.2186   2.4142   N.2       1 RES1   0.0000
     9 N5       6.2903   3.4535   3.2516   N.2       1 RES1   0.0000
    10 N6       7.3614   7.2569   4.2875   N.2       1 RES1   0.0000
    11 N7       8.0209   2.5455  10.2183   N.2       1 RES1   0.0000
    12 N8       2.1397   0.9038   7.6827   N.2       1 RES1   0.0000
    13 N9       8.2530   1.3518  10.3859   N.2       1 RES1   0.0000
    14 N10      1.7614   2.0589   7.5185   N.2       1 RES1   0.0000
    15 N11      3.4006  10.9246   1.1719   N.2       1 RES1   0.0000
    16 N12      2.2195  11.1608   1.4882   N.2       1 RES1   0.0000
    17 C1       5.4325   6.8952   5.6640   C.2       1 RES1   0.0000
    18 H1       4.7638   7.1962   6.2522   H         1 RES1   0.0000
    19 C2       8.0818   4.8018   7.3163   C.ar      1 RES1   0.0000
    20 H2       7.8752   5.7024   7.1403   H         1 RES1   0.0000
    21 C3       4.5895   4.7508   5.9301   C.ar      1 RES1   0.0000
    22 C4       5.2462   3.5330   2.3351   C.2       1 RES1   0.0000
    23 C5       8.5049   3.9652   6.2931   C.ar      1 RES1   0.0000
    24 C6       6.3601   7.8227   5.0642   C.2       1 RES1   0.0000
    25 C7       4.7928   4.8589   2.0049   C.2       1 RES1   0.0000
    26 H3       4.0510   4.9913   1.4428   H         1 RES1   0.0000
    27 C8       4.9174   7.1604   2.2383   C.ar      1 RES1   0.0000
    28 C9       8.0050   0.8738  11.7255   C.ar      1 RES1   0.0000
    29 C10      8.8039   2.6381   6.5524   C.ar      1 RES1   0.0000
    30 H4       9.1015   2.0787   5.8570   H         1 RES1   0.0000
    31 C11      4.9964   3.4520   6.2361   C.ar      1 RES1   0.0000
    32 H5       5.8867   3.1929   6.0815   H         1 RES1   0.0000
    33 C12      2.7873   2.9328   7.0000   C.ar      1 RES1   0.0000
    34 C13      8.6670   2.1359   7.8366   C.ar      1 RES1   0.0000
    35 H6       8.8598   1.2332   8.0154   H         1 RES1   0.0000
    36 C14      7.9685   4.2927   8.6005   C.ar      1 RES1   0.0000
    37 H7       7.7005   4.8551   9.3042   H         1 RES1   0.0000
    38 C15      3.0957   8.7213   2.2988   C.ar      1 RES1   0.0000
    39 H8       2.2137   8.9365   2.5412   H         1 RES1   0.0000
    40 C16      3.5987   7.4658   2.5822   C.ar      1 RES1   0.0000
    41 H9       3.0577   6.8232   3.0044   H         1 RES1   0.0000
    42 C17      8.2433   2.9753   8.8511   C.ar      1 RES1   0.0000
    43 C18      6.5995   2.2137   3.4810   C.2       1 RES1   0.0000
    44 H10      7.2857   1.9667   4.0726   H         1 RES1   0.0000
    45 C19      4.1024   2.5476   6.7632   C.ar      1 RES1   0.0000
    46 H11      4.3807   1.6717   6.9617   H         1 RES1   0.0000
    47 C20      1.1255   0.0223   8.1943   C.ar      1 RES1   0.0000
    48 C21      5.7283   8.1228   1.6472   C.ar      1 RES1   0.0000
    49 H12      6.6264   7.9289   1.4472   H         1 RES1   0.0000
    50 C22      8.2858  -0.4471  11.9259   C.ar      1 RES1   0.0000
    51 H13      8.5992  -0.9737  11.2135   H         1 RES1   0.0000
    52 C23      9.6305   4.6122   2.8830   C.2       1 RES1   0.0000
    53 C24      3.2646   5.1178   6.1410   C.ar      1 RES1   0.0000
    54 H14      2.9726   5.9816   5.9144   H         1 RES1   0.0000
    55 C25      8.1537   8.1831   3.8146   C.2       1 RES1   0.0000
    56 H15      8.9058   7.9866   3.2862   H         1 RES1   0.0000
    57 C26      5.2017   9.3693   1.3568   C.ar      1 RES1   0.0000
    58 H16      5.7427  10.0230   0.9504   H         1 RES1   0.0000
    59 C27     -0.1867   0.3877   8.4588   C.ar      1 RES1   0.0000
    60 H17     -0.4839   1.2588   8.2699   H         1 RES1   0.0000
    61 C28      3.8788   9.6608   1.6610   C.ar      1 RES1   0.0000
    62 C29      2.3807   4.2079   6.6854   C.ar      1 RES1   0.0000
    63 H18      1.4898   4.4629   6.8433   H         1 RES1   0.0000
    64 C30      9.6195   4.2115   4.2726   C.2       1 RES1   0.0000
    65 H19     10.3613   3.7875   4.6656   H         1 RES1   0.0000
    66 C31      8.6117   5.5425   1.1701   C.2       1 RES1   0.0000
    67 H20      7.9265   5.9588   0.6799   H         1 RES1   0.0000
    68 C32      7.5038   1.6665  12.7556   C.ar      1 RES1   0.0000
    69 H21      7.2873   2.5703  12.6118   H         1 RES1   0.0000
    70 C33      6.4009   9.1793   5.1282   C.2       1 RES1   0.0000
    71 H22      5.7894   9.7142   5.6030   H         1 RES1   0.0000
    72 C34     10.6121   4.4865   1.9600   C.2       1 RES1   0.0000
    73 H23     11.4476   4.0847   2.1133   H         1 RES1   0.0000
    74 C35      1.6850  12.3341   0.8590   C.ar      1 RES1   0.0000
    75 C36      1.5457  -1.2703   8.4415   C.ar      1 RES1   0.0000
    76 H24      2.4299  -1.5208   8.2458   H         1 RES1   0.0000
    77 C37      7.6399  -0.2436  14.2074   C.ar      1 RES1   0.0000
    78 H25      7.5288  -0.6223  15.0599   H         1 RES1   0.0000
    79 C38      4.8087   2.3276   1.8909   C.2       1 RES1   0.0000
    80 H26      4.1218   2.2078   1.2602   H         1 RES1   0.0000
    81 C39      0.6681  -2.1978   8.9756   C.ar      1 RES1   0.0000
    82 H27      0.9576  -3.0773   9.1396   H         1 RES1   0.0000
    83 C40      7.3326   1.0738  14.0138   C.ar      1 RES1   0.0000
    84 H28      7.0044   1.5861  14.7293   H         1 RES1   0.0000
    85 C41     -1.0619  -0.5504   9.0084   C.ar      1 RES1   0.0000
    86 H29     -1.9483  -0.3091   9.2043   H         1 RES1   0.0000
    87 C42      8.1068  -1.0190  13.1842   C.ar      1 RES1   0.0000
    88 H30      8.3059  -1.9261  13.3276   H         1 RES1   0.0000
    89 C43     -0.6209  -1.8360   9.2642   C.ar      1 RES1   0.0000
    90 H31     -1.2097  -2.4659   9.6374   H         1 RES1   0.0000
    91 C44      2.2718  12.9826  -0.1763   C.ar      1 RES1   0.0000
    92 H32      3.1189  12.7084  -0.4777   H         1 RES1   0.0000
    93 C45      0.4611  12.7858   1.3464   C.ar      1 RES1   0.0000
    94 H33      0.0547  12.3528   2.0752   H         1 RES1   0.0000
    95 C46      0.4173  14.4807  -0.3215   C.ar      1 RES1   0.0000
    96 H34     -0.0233  15.1994  -0.7392   H         1 RES1   0.0000
    97 C47     -0.1504  13.8633   0.7605   C.ar      1 RES1   0.0000
    98 H35     -0.9658  14.1815   1.1047   H         1 RES1   0.0000
    99 C48      1.6302  14.0502  -0.7968   C.ar      1 RES1   0.0000
   100 H36      2.0255  14.4745  -1.5369   H         1 RES1   0.0000
   101 F1       6.6039  13.9372   4.3314   F         2 RES2   0.0000
   102 F2       6.8781  13.0858   6.3259   F         2 RES2   0.0000
   103 F3       4.8890  13.9559   5.7798   F         2 RES2   0.0000
   104 F4       5.5995  12.0353   4.9380   F         2 RES2   0.0000
   105 B1       5.9144  13.1878   5.2595   B         2 RES2  -1.0000
   106 F5       8.2281  10.1552  -0.0588   F         3 RES3   0.0000
   107 F6      10.4343  10.0882  -0.0622   F         3 RES3   0.0000
   108 F7       9.3279   8.8857   1.1235   F         3 RES3   0.0000
   109 F8       9.3131   8.5138  -0.9040   F         3 RES3   0.0000
   110 B2       9.3489   9.4373   0.0691   B         3 RES3  -1.0000
   111 O1       1.8263  10.5619   6.5610   O.3       4 RES4   0.0000
   112 O2       2.7946   8.6229   6.1099   O.2       4 RES4   0.0000
   113 C49      2.1587   9.3241   6.8410   C.2       4 RES4   0.0000
   114 C50      2.2517  11.0846   5.2647   C.3       4 RES4   0.0000
   115 H37      3.2299  11.0843   5.2126   H         4 RES4   0.0000
   116 H38      1.9065  10.5118   4.5477   H         4 RES4   0.0000
   117 C51      1.7518  12.4346   5.0953   C.3       4 RES4   0.0000
   118 H39      2.0507  12.7845   4.2413   H         4 RES4   0.0000
   119 H40      2.0897  12.9958   5.8106   H         4 RES4   0.0000
   120 H41      0.7827  12.4262   5.1204   H         4 RES4   0.0000
   121 C52      1.5909   8.8680   8.1511   C.3       4 RES4   0.0000
   122 H42      1.8453   9.4921   8.8492   H         4 RES4   0.0000
   123 H43      1.9362   7.9869   8.3642   H         4 RES4   0.0000
   124 H44      0.6237   8.8298   8.0889   H         4 RES4   0.0000
   125 O3      13.0131   0.7898   4.2294   O.3       5 RES5   0.0000
   126 O4      12.3947   2.9011   4.4005   O.2       5 RES5   0.0000
   127 C53     13.2124   2.0903   4.1067   C.2       5 RES5   0.0000
   128 C54     11.7121   0.3870   4.7272   C.3       5 RES5   0.0000
   129 H45     11.5519   0.7681   5.6155   H         5 RES5   0.0000
   130 H46     11.0037   0.6935   4.1225   H         5 RES5   0.0000
   131 C55     14.5740   2.4011   3.5830   C.3       5 RES5   0.0000
   132 H47     15.2374   1.9173   4.0997   H         5 RES5   0.0000
   133 H48     14.7396   3.3544   3.6570   H         5 RES5   0.0000
   134 H49     14.6319   2.1345   2.6522   H         5 RES5   0.0000
   135 C56     11.7307  -1.0408   4.7911   C.3       5 RES5   0.0000
   136 H50     11.7352  -1.4059   3.8926   H         5 RES5   0.0000
   137 H51     10.9419  -1.3542   5.2627   H         5 RES5   0.0000
   138 H52     12.5258  -1.3337   5.2634   H         5 RES5   0.0000
@<TRIPOS>BOND
     1     1     5    1
     2     2    43    1
     3     3    66    1
     4     4    55    1
     5     5    17    2
     6     6     1    1
     7     7     1    1
     8     8     1    1
     9     9     1    1
    10    10     1    1
    11    11    13    2
    12    12    14    2
    13    13    28    1
    14    14    33    1
    15    15    16    2
    16    16    74    1
    17    17    18    1
    18    19    20    1
    19    21     5    1
    20    22     9    1
    21    23     7    1
    22    24    10    1
    23    25     6    2
    24    26    25    1
    25    27     6    1
    26    28    50   ar
    27    29    23   ar
    28    30    29    1
    29    31    21   ar
    30    32    31    1
    31    33    45   ar
    32    34    29   ar
    33    35    34    1
    34    36    19   ar
    35    37    36    1
    36    38    39    1
    37    40    27   ar
    38    41    40    1
    39    42    11    1
    40    43     9    2
    41    44    43    1
    42    45    31   ar
    43    46    45    1
    44    47    12    1
    45    48    27   ar
    46    49    48    1
    47    50    51    1
    48    52     8    1
    49    53    21   ar
    50    54    53    1
    51    55    10    2
    52    56    55    1
    53    57    48   ar
    54    58    57    1
    55    59    47   ar
    56    60    59    1
    57    61    15    1
    58    62    33   ar
    59    63    62    1
    60    64     7    2
    61    65    64    1
    62    66     8    2
    63    67    66    1
    64    68    28   ar
    65    69    68    1
    66    70     4    1
    67    71    70    1
    68    72     3    1
    69    73    72    1
    70    74    91   ar
    71    75    47   ar
    72    76    75    1
    73    77    78    1
    74    79     2    1
    75    80    79    1
    76    81    75   ar
    77    82    81    1
    78    83    68   ar
    79    84    83    1
    80    85    59   ar
    81    86    85    1
    82    87    50   ar
    83    88    87    1
    84    89    81   ar
    85    90    89    1
    86    91    92    1
    87    93    74   ar
    88    94    93    1
    89    95    96    1
    90    97    93   ar
    91    98    97    1
    92    99    91   ar
    93   100    99    1
    94    17    24    1
    95    19    23   ar
    96    22    25    1
    97    22    79    2
    98    24    70    2
    99    34    42   ar
   100    36    42   ar
   101    38    40   ar
   102    38    61   ar
   103    52    64    1
   104    52    72    2
   105    53    62   ar
   106    57    61   ar
   107    77    83   ar
   108    77    87   ar
   109    85    89   ar
   110    95    97   ar
   111    95    99   ar
   112   101   105    1
   113   102   105    1
   114   103   105    1
   115   104   105    1
   116   106   110    1
   117   107   110    1
   118   108   110    1
   119   109   110    1
   120   111   113    1
   121   112   113    2
   122   113   121    1
   123   114   111    1
   124   115   114    1
   125   116   114    1
   126   117   114    1
   127   118   117    1
   128   119   117    1
   129   120   117    1
   130   121   122    1
   131   123   121    1
   132   124   121    1
   133   125   127    1
   134   126   127    2
   135   127   131    1
   136   128   125    1
   137   129   128    1
   138   130   128    1
   139   131   132    1
   140   133   131    1
   141   134   131    1
   142   135   128    1
   143   136   135    1
   144   137   135    1
   145   138   135    1
@<TRIPOS>SUBSTRUCTURE
     1 RES1        1 GROUP             0 ****  ****    0  
     2 RES2      101 GROUP             0 ****  ****    0  
     3 RES3      106 GROUP             0 ****  ****    0  
     4 RES4      111 GROUP             0 ****  ****    0  
     5 RES5      125 GROUP             0 ****  ****    0  
@<TRIPOS>CRYSIN
   12.6311   14.0287   18.5265  105.4750  101.8200   97.5040     2     1
