@<TRIPOS>MOLECULE
REBQAU
   138   145     5     0     0
SMALL
USER_CHARGES
****
Generated from the CSD

@<TRIPOS>ATOM
     1 Fe1      6.8313   5.3752   3.8005   Fe        1 RES1   2.0000
     2 S1       5.6558   1.1697   2.6316   S.3       1 RES1   0.0000
     3 S2       9.8458   5.1523   0.4505   S.3       1 RES1   0.0000
     4 S3       7.7588   9.7285   4.2866   S.3       1 RES1   0.0000
     5 N1       5.4313   5.6851   5.2512   N.2       1 RES1   0.0000
     6 N2       5.3937   5.9244   2.4976   N.2       1 RES1   0.0000
     7 N3       8.3146   4.6315   4.9244   N.2       1 RES1   0.0000
     8 N4       8.2363   5.2599   2.4139   N.2       1 RES1   0.0000
     9 N5       6.2046   3.5785   3.2445   N.2       1 RES1   0.0000
    10 N6       7.2550   7.2393   4.2350   N.2       1 RES1   0.0000
    11 N7       7.7203   2.7388  10.1914   N.2       1 RES1   0.0000
    12 N8       1.9955   0.9592   7.5951   N.2       1 RES1   0.0000
    13 N9       7.9081   1.5145  10.3584   N.2       1 RES1   0.0000
    14 N10      1.5980   2.1175   7.3560   N.2       1 RES1   0.0000
    15 N11      3.4343  11.0390   1.2087   N.2       1 RES1   0.0000
    16 N12      2.2468  11.2968   1.5397   N.2       1 RES1   0.0000
    17 C1       5.3232   6.9235   5.5890   C.2       1 RES1   0.0000
    18 H1       4.6433   7.2182   6.1830   H         1 RES1   0.0000
    19 C2       7.8102   5.0077   7.2937   C.ar      1 RES1   0.0000
    20 H2       7.6054   5.9171   7.1087   H         1 RES1   0.0000
    21 C3       4.4637   4.7688   5.7786   C.ar      1 RES1   0.0000
    22 C4       5.1919   3.6173   2.2917   C.2       1 RES1   0.0000
    23 C5       8.2480   4.1630   6.2778   C.ar      1 RES1   0.0000
    24 C6       6.2779   7.8391   5.0281   C.2       1 RES1   0.0000
    25 C7       4.7429   4.9490   1.9544   C.2       1 RES1   0.0000
    26 H3       4.0117   5.0991   1.3668   H         1 RES1   0.0000
    27 C8       4.9009   7.2456   2.2427   C.ar      1 RES1   0.0000
    28 C9       7.6475   1.0314  11.6724   C.ar      1 RES1   0.0000
    29 C10      8.5676   2.8342   6.5595   C.ar      1 RES1   0.0000
    30 H4       8.8939   2.2701   5.8677   H         1 RES1   0.0000
    31 C11      4.8573   3.4791   6.1178   C.ar      1 RES1   0.0000
    32 H5       5.7610   3.2148   5.9888   H         1 RES1   0.0000
    33 C12      2.6231   2.9742   6.8365   C.ar      1 RES1   0.0000
    34 C13      8.4138   2.3347   7.8304   C.ar      1 RES1   0.0000
    35 H6       8.6160   1.4252   8.0165   H         1 RES1   0.0000
    36 C14      7.6752   4.5051   8.5791   C.ar      1 RES1   0.0000
    37 H7       7.3873   5.0769   9.2813   H         1 RES1   0.0000
    38 C15      3.0863   8.8264   2.3151   C.ar      1 RES1   0.0000
    39 H8       2.1942   9.0485   2.5551   H         1 RES1   0.0000
    40 C16      3.5825   7.5670   2.5835   C.ar      1 RES1   0.0000
    41 H9       3.0282   6.9170   2.9998   H         1 RES1   0.0000
    42 C17      7.9590   3.1782   8.8456   C.ar      1 RES1   0.0000
    43 C18      6.5382   2.3495   3.5070   C.2       1 RES1   0.0000
    44 H10      7.2158   2.1236   4.1332   H         1 RES1   0.0000
    45 C19      3.9513   2.5780   6.6394   C.ar      1 RES1   0.0000
    46 H11      4.2271   1.6975   6.8631   H         1 RES1   0.0000
    47 C20      1.0003   0.0716   8.1185   C.ar      1 RES1   0.0000
    48 C21      5.7321   8.2047   1.6644   C.ar      1 RES1   0.0000
    49 H12      6.6371   7.9966   1.4625   H         1 RES1   0.0000
    50 C22      7.8708  -0.3258  11.8505   C.ar      1 RES1   0.0000
    51 H13      8.1636  -0.8589  11.1212   H         1 RES1   0.0000
    52 C23      9.4346   4.7411   2.8950   C.2       1 RES1   0.0000
    53 C24      3.1332   5.1564   5.9608   C.ar      1 RES1   0.0000
    54 H14      2.8532   6.0319   5.7181   H         1 RES1   0.0000
    55 C25      8.1189   8.1349   3.8118   C.2       1 RES1   0.0000
    56 H15      8.8779   7.9109   3.2865   H         1 RES1   0.0000
    57 C26      5.2247   9.4609   1.3881   C.ar      1 RES1   0.0000
    58 H16      5.7832  10.1179   0.9893   H         1 RES1   0.0000
    59 C27     -0.3262   0.4330   8.3664   C.ar      1 RES1   0.0000
    60 H17     -0.6350   1.3068   8.1605   H         1 RES1   0.0000
    61 C28      3.8981   9.7710   1.6909   C.ar      1 RES1   0.0000
    62 C29      2.2252   4.2593   6.4969   C.ar      1 RES1   0.0000
    63 H18      1.3229   4.5250   6.6331   H         1 RES1   0.0000
    64 C30      9.4212   4.4041   4.2945   C.2       1 RES1   0.0000
    65 H19     10.1808   4.0351   4.7300   H         1 RES1   0.0000
    66 C31      8.3336   5.5177   1.1398   C.2       1 RES1   0.0000
    67 H20      7.6157   5.8814   0.6349   H         1 RES1   0.0000
    68 C32      7.1833   1.8164  12.7296   C.ar      1 RES1   0.0000
    69 H21      7.0026   2.7407  12.6026   H         1 RES1   0.0000
    70 C33      6.3877   9.1864   5.1366   C.2       1 RES1   0.0000
    71 H22      5.7881   9.7458   5.6164   H         1 RES1   0.0000
    72 C34     10.4072   4.6111   1.9597   C.2       1 RES1   0.0000
    73 H23     11.2766   4.2662   2.1245   H         1 RES1   0.0000
    74 C35      1.7103  12.4610   0.9051   C.ar      1 RES1   0.0000
    75 C36      1.4430  -1.2121   8.3935   C.ar      1 RES1   0.0000
    76 H24      2.3412  -1.4544   8.2037   H         1 RES1   0.0000
    77 C37      7.2395  -0.1285  14.1484   C.ar      1 RES1   0.0000
    78 H25      7.1163  -0.5232  15.0039   H         1 RES1   0.0000
    79 C38      4.7795   2.4038   1.8474   C.2       1 RES1   0.0000
    80 H26      4.1032   2.2625   1.1955   H         1 RES1   0.0000
    81 C39      0.5796  -2.1399   8.9438   C.ar      1 RES1   0.0000
    82 H27      0.8817  -3.0206   9.1322   H         1 RES1   0.0000
    83 C40      6.9905   1.2228  13.9714   C.ar      1 RES1   0.0000
    84 H28      6.6850   1.7462  14.7030   H         1 RES1   0.0000
    85 C41     -1.1846  -0.5061   8.9171   C.ar      1 RES1   0.0000
    86 H29     -2.0896  -0.2752   9.0890   H         1 RES1   0.0000
    87 C42      7.6659  -0.9028  13.0972   C.ar      1 RES1   0.0000
    88 H30      7.8191  -1.8321  13.2221   H         1 RES1   0.0000
    89 C43     -0.7266  -1.7811   9.2187   C.ar      1 RES1   0.0000
    90 H31     -1.3153  -2.4111   9.6170   H         1 RES1   0.0000
    91 C44      2.2797  13.0631  -0.1858   C.ar      1 RES1   0.0000
    92 H32      3.1182  12.7578  -0.5123   H         1 RES1   0.0000
    93 C45      0.5097  12.9329   1.4122   C.ar      1 RES1   0.0000
    94 H33      0.1174  12.5209   2.1733   H         1 RES1   0.0000
    95 C46      0.4334  14.5840  -0.3217   C.ar      1 RES1   0.0000
    96 H34     -0.0134  15.3004  -0.7574   H         1 RES1   0.0000
    97 C47     -0.1183  14.0129   0.7999   C.ar      1 RES1   0.0000
    98 H35     -0.9293  14.3560   1.1578   H         1 RES1   0.0000
    99 C48      1.6351  14.1215  -0.8188   C.ar      1 RES1   0.0000
   100 H36      2.0193  14.5237  -1.5896   H         1 RES1   0.0000
   101 F1       6.5914  14.0213   4.3096   F         2 RES2   0.0000
   102 F2       6.9496  13.3899   6.4462   F         2 RES2   0.0000
   103 F3       4.8832  14.0052   5.7793   F         2 RES2   0.0000
   104 F4       5.7759  12.0508   5.0828   F         2 RES2   0.0000
   105 B1       6.0249  13.3438   5.3892   B         2 RES2  -1.0000
   106 F5       8.1738  10.0639  -0.0153   F         3 RES3   0.0000
   107 F6      10.4324  10.0504  -0.0458   F         3 RES3   0.0000
   108 F7       9.3294   8.4464   1.0443   F         3 RES3   0.0000
   109 F8       9.2930   8.4979  -1.1623   F         3 RES3   0.0000
   110 B2       9.3166   9.2857  -0.0086   B         3 RES3  -1.0000
   111 O1       1.8697  10.6704   6.5105   O.3       4 RES4   0.0000
   112 O2       2.7543   8.6912   6.0117   O.2       4 RES4   0.0000
   113 C49      2.1412   9.3951   6.7670   C.2       4 RES4   0.0000
   114 C50      2.3423  11.1999   5.2326   C.3       4 RES4   0.0000
   115 H37      2.0134  10.6355   4.4886   H         4 RES4   0.0000
   116 H38      3.3325  11.1994   5.2104   H         4 RES4   0.0000
   117 C51      1.8328  12.5775   5.0881   C.3       4 RES4   0.0000
   118 H39      2.1174  12.9419   4.2234   H         4 RES4   0.0000
   119 H40      2.1893  13.1354   5.8104   H         4 RES4   0.0000
   120 H41      0.8541  12.5703   5.1329   H         4 RES4   0.0000
   121 C52      1.5579   8.9476   8.0588   C.3       4 RES4   0.0000
   122 H42      1.7194   9.6291   8.7446   H         4 RES4   0.0000
   123 H43      1.9758   8.1041   8.3326   H         4 RES4   0.0000
   124 H44      0.5925   8.8138   7.9531   H         4 RES4   0.0000
   125 O3      12.7905   0.9751   4.1331   O.3       5 RES5   0.0000
   126 O4      12.1728   3.1123   4.3067   O.2       5 RES5   0.0000
   127 C53     12.9875   2.2910   3.9993   C.2       5 RES5   0.0000
   128 C54     11.4969   0.5677   4.6667   C.3       5 RES5   0.0000
   129 H45     10.7678   0.8652   4.0663   H         5 RES5   0.0000
   130 H46     11.3523   0.9648   5.5610   H         5 RES5   0.0000
   131 C55     14.3293   2.5884   3.4110   C.3       5 RES5   0.0000
   132 H47     15.0004   1.9986   3.8147   H         5 RES5   0.0000
   133 H48     14.5651   3.5221   3.5896   H         5 RES5   0.0000
   134 H49     14.3023   2.4370   2.4430   H         5 RES5   0.0000
   135 C56     11.5220  -0.9224   4.7562   C.3       5 RES5   0.0000
   136 H50     11.5919  -1.3026   3.8552   H         5 RES5   0.0000
   137 H51     10.6963  -1.2374   5.1799   H         5 RES5   0.0000
   138 H52     12.2924  -1.2047   5.2907   H         5 RES5   0.0000
@<TRIPOS>BOND
     1     1     5    1
     2     2    43    1
     3     3    66    1
     4     4    55    1
     5     5    17    2
     6     6     1    1
     7     7     1    1
     8     8     1    1
     9     9     1    1
    10    10     1    1
    11    11    13    2
    12    12    14    2
    13    13    28    1
    14    14    33    1
    15    15    16    2
    16    16    74    1
    17    17    18    1
    18    19    20    1
    19    21     5    1
    20    22     9    1
    21    23     7    1
    22    24    10    1
    23    25     6    2
    24    26    25    1
    25    27     6    1
    26    28    50   ar
    27    29    23   ar
    28    30    29    1
    29    31    21   ar
    30    32    31    1
    31    33    45   ar
    32    34    29   ar
    33    35    34    1
    34    36    19   ar
    35    37    36    1
    36    38    39    1
    37    40    27   ar
    38    41    40    1
    39    42    11    1
    40    43     9    2
    41    44    43    1
    42    45    31   ar
    43    46    45    1
    44    47    12    1
    45    48    27   ar
    46    49    48    1
    47    50    51    1
    48    52     8    1
    49    53    21   ar
    50    54    53    1
    51    55    10    2
    52    56    55    1
    53    57    48   ar
    54    58    57    1
    55    59    47   ar
    56    60    59    1
    57    61    15    1
    58    62    33   ar
    59    63    62    1
    60    64     7    2
    61    65    64    1
    62    66     8    2
    63    67    66    1
    64    68    28   ar
    65    69    68    1
    66    70     4    1
    67    71    70    1
    68    72     3    1
    69    73    72    1
    70    74    91   ar
    71    75    47   ar
    72    76    75    1
    73    77    78    1
    74    79     2    1
    75    80    79    1
    76    81    75   ar
    77    82    81    1
    78    83    68   ar
    79    84    83    1
    80    85    59   ar
    81    86    85    1
    82    87    50   ar
    83    88    87    1
    84    89    81   ar
    85    90    89    1
    86    91    92    1
    87    93    74   ar
    88    94    93    1
    89    95    96    1
    90    97    93   ar
    91    98    97    1
    92    99    91   ar
    93   100    99    1
    94    17    24    1
    95    19    23   ar
    96    22    25    1
    97    22    79    2
    98    24    70    2
    99    34    42   ar
   100    36    42   ar
   101    38    40   ar
   102    38    61   ar
   103    52    64    1
   104    52    72    2
   105    53    62   ar
   106    57    61   ar
   107    77    83   ar
   108    77    87   ar
   109    85    89   ar
   110    95    97   ar
   111    95    99   ar
   112   101   105    1
   113   102   105    1
   114   103   105    1
   115   104   105    1
   116   106   110    1
   117   107   110    1
   118   108   110    1
   119   109   110    1
   120   111   113    1
   121   112   113    2
   122   113   121    1
   123   114   111    1
   124   115   114    1
   125   116   114    1
   126   117   114    1
   127   118   117    1
   128   119   117    1
   129   120   117    1
   130   121   122    1
   131   123   121    1
   132   124   121    1
   133   125   127    1
   134   126   127    2
   135   127   131    1
   136   128   125    1
   137   129   128    1
   138   130   128    1
   139   131   132    1
   140   133   131    1
   141   134   131    1
   142   135   128    1
   143   136   135    1
   144   137   135    1
   145   138   135    1
@<TRIPOS>SUBSTRUCTURE
     1 RES1        1 GROUP             0 ****  ****    0  
     2 RES2      101 GROUP             0 ****  ****    0  
     3 RES3      106 GROUP             0 ****  ****    0  
     4 RES4      111 GROUP             0 ****  ****    0  
     5 RES5      125 GROUP             0 ****  ****    0  
@<TRIPOS>CRYSIN
   12.4246   13.9971   18.4217  104.6960  102.7110   96.9300     2     1
