@<TRIPOS>MOLECULE
REKFOC
   175   186     1     0     0
SMALL
NO_CHARGES
****
Generated from the CSD

@<TRIPOS>ATOM
     1 Fe1      0.0000   0.0000   0.0000   Fe        1 RES1   0.0000
     2 O1       0.4385  -1.7197  -1.1287   O.3       1 RES1   0.0000
     3 O2      -0.3438   2.8510  -2.2109   O.3       1 RES1   0.0000
     4 O3       0.9765   1.2610  -1.3573   O.2       1 RES1   0.0000
     5 O4       0.6419   2.8510  -5.6500   O.2       1 RES1   0.0000
     6 O5       3.3087  -0.0236  -3.4018   O.2       1 RES1   0.0000
     7 O6      -2.4769   1.6711  -2.2466   O.co2     1 RES1   0.0000
     8 O7      -1.8083  -0.1032  -1.0992   O.co2     1 RES1   0.0000
     9 O8      -2.9075   0.5088  -5.7588   O.2       1 RES1   0.0000
    10 O9      -1.4339  -2.7005  -2.9416   O.2       1 RES1   0.0000
    11 N1       1.9500   1.4233  -4.4777   N.am      1 RES1   0.0000
    12 N2      -2.1858  -1.1047  -4.3518   N.am      1 RES1   0.0000
    13 C1       1.6628  -2.2964  -1.5128   C.3       1 RES1   0.0000
    14 C2       0.7874   2.4070  -1.8160   C.2       1 RES1   0.0000
    15 C3       1.5796   2.7168  -4.8990   C.2       1 RES1   0.0000
    16 C4       3.0555   1.1268  -3.6630   C.2       1 RES1   0.0000
    17 C5       1.7008   4.2300  -0.5473   C.3       1 RES1   0.0000
    18 C6       2.3082   5.0088  -5.4059   C.3       1 RES1   0.0000
    19 C7       5.3291   1.8245  -2.9463   C.3       1 RES1   0.0000
    20 C8       1.9272   3.4262  -1.8470   C.3       1 RES1   0.0000
    21 C9       1.8329   4.3923  -3.0302   C.3       1 RES1   0.0000
    22 C10      2.3835   3.8864  -4.3766   C.3       1 RES1   0.0000
    23 C11      3.8241   3.4321  -4.1621   C.3       1 RES1   0.0000
    24 C12      3.8748   2.2949  -3.1530   C.3       1 RES1   0.0000
    25 C13      3.3087   2.7640  -1.8113   C.3       1 RES1   0.0000
    26 C14     -2.6664   0.5192  -1.7304   C.2       1 RES1   0.0000
    27 C15     -2.3908  -2.0958  -3.3971   C.2       1 RES1   0.0000
    28 C16     -3.2084  -0.2788  -4.8990   C.2       1 RES1   0.0000
    29 C17     -4.7945   0.5870  -0.6110   C.3       1 RES1   0.0000
    30 C18     -3.9640  -3.8451  -2.6540   C.3       1 RES1   0.0000
    31 C19     -5.6008   0.0059  -5.4432   C.3       1 RES1   0.0000
    32 C20     -4.0942  -0.0324  -1.8253   C.3       1 RES1   0.0000
    33 C21     -4.1099  -1.5634  -1.6745   C.3       1 RES1   0.0000
    34 C22     -3.8140  -2.3628  -2.9525   C.3       1 RES1   0.0000
    35 C23     -4.7907  -1.9351  -4.0346   C.3       1 RES1   0.0000
    36 C24     -4.6050  -0.4543  -4.3642   C.3       1 RES1   0.0000
    37 C25     -4.8403   0.3879  -3.1002   C.3       1 RES1   0.0000
    38 C26     -0.0722   0.0929  -4.4248   C.ar      1 RES1   0.0000
    39 C27      1.1663   0.3127  -4.9799   C.ar      1 RES1   0.0000
    40 C28      1.6505  -0.4720  -6.0216   C.ar      1 RES1   0.0000
    41 C29      0.8429  -1.5073  -6.4553   C.ar      1 RES1   0.0000
    42 C30     -0.4144  -1.7699  -5.9205   C.ar      1 RES1   0.0000
    43 C31     -0.8555  -0.9439  -4.8928   C.ar      1 RES1   0.0000
    44 C32      2.9824  -0.2212  -6.6606   C.3       1 RES1   0.0000
    45 C33     -1.2758  -2.8952  -6.4305   C.3       1 RES1   0.0000
    46 H1      -0.0363  -1.9321  -1.6480   H         1 RES1   0.0000
    47 H2      -1.2358   2.2418  -2.0989   H         1 RES1   0.0000
    48 H3       1.6015  -3.2448  -1.4304   H         1 RES1   0.0000
    49 H4       1.8489  -2.0649  -2.4099   H         1 RES1   0.0000
    50 H5       2.3489  -1.9764  -0.9484   H         1 RES1   0.0000
    51 H6       1.7550   3.6430   0.2021   H         1 RES1   0.0000
    52 H7       2.3709   4.8967  -0.4664   H         1 RES1   0.0000
    53 H8       0.8410   4.6312  -0.5753   H         1 RES1   0.0000
    54 H9       2.8047   5.7521  -5.0996   H         1 RES1   0.0000
    55 H10      2.6720   4.7049  -6.2346   H         1 RES1   0.0000
    56 H11      1.4008   5.2654  -5.5349   H         1 RES1   0.0000
    57 H12      5.3386   1.1209  -2.3166   H         1 RES1   0.0000
    58 H13      5.6801   1.5191  -3.7780   H         1 RES1   0.0000
    59 H14      5.8552   2.5516  -2.6275   H         1 RES1   0.0000
    60 H15      0.9181   4.6017  -3.1561   H         1 RES1   0.0000
    61 H16      2.3132   5.1769  -2.7986   H         1 RES1   0.0000
    62 H17      4.1894   3.1415  -4.9908   H         1 RES1   0.0000
    63 H18      4.3354   4.1592  -3.8402   H         1 RES1   0.0000
    64 H19      3.9241   3.3923  -1.4459   H         1 RES1   0.0000
    65 H20      3.2560   2.0059  -1.2438   H         1 RES1   0.0000
    66 H21     -4.1879   0.6047   0.1244   H         1 RES1   0.0000
    67 H22     -5.0600   1.4749  -0.8240   H         1 RES1   0.0000
    68 H23     -5.5569   0.0737  -0.3887   H         1 RES1   0.0000
    69 H24     -4.8838  -4.0707  -2.5964   H         1 RES1   0.0000
    70 H25     -3.5657  -4.3510  -3.3427   H         1 RES1   0.0000
    71 H26     -3.5335  -4.0412  -1.8346   H         1 RES1   0.0000
    72 H27     -5.4393   0.9144  -5.6437   H         1 RES1   0.0000
    73 H28     -5.4833  -0.5162  -6.2190   H         1 RES1   0.0000
    74 H29     -6.4945  -0.1032  -5.1151   H         1 RES1   0.0000
    75 H30     -3.4489  -1.7994  -1.0261   H         1 RES1   0.0000
    76 H31     -4.9758  -1.8141  -1.3682   H         1 RES1   0.0000
    77 H32     -4.6304  -2.4483  -4.8197   H         1 RES1   0.0000
    78 H33     -5.6839  -2.0796  -3.7314   H         1 RES1   0.0000
    79 H34     -5.7746   0.3687  -2.9074   H         1 RES1   0.0000
    80 H35     -4.5848   1.2832  -3.2961   H         1 RES1   0.0000
    81 H36     -0.3893   0.6490  -3.7159   H         1 RES1   0.0000
    82 H37      1.1591  -2.0649  -7.1519   H         1 RES1   0.0000
    83 H38      3.5379  -0.9882  -6.5611   H         1 RES1   0.0000
    84 H39      2.8602  -0.0442  -7.5872   H         1 RES1   0.0000
    85 H40      3.3986   0.5162  -6.2501   H         1 RES1   0.0000
    86 H41     -1.8207  -3.2153  -5.7215   H         1 RES1   0.0000
    87 H42     -1.8309  -2.5811  -7.1363   H         1 RES1   0.0000
    88 H43     -0.7283  -3.5988  -6.7476   H         1 RES1   0.0000
    89 O1B     -0.4385   1.7197   1.1287   O.3       1 RES1   0.0000
    90 C1B     -1.6628   2.2964   1.5128   C.3       1 RES1   0.0000
    91 H3B     -1.6015   3.2448   1.4304   H         1 RES1   0.0000
    92 H4B     -1.8489   2.0649   2.4099   H         1 RES1   0.0000
    93 H5B     -2.3489   1.9764   0.9484   H         1 RES1   0.0000
    94 H1B      0.0363   1.9321   1.6480   H         1 RES1   0.0000
    95 O3B     -0.9765  -1.2610   1.3573   O.2       1 RES1   0.0000
    96 C2B     -0.7874  -2.4070   1.8160   C.2       1 RES1   0.0000
    97 O2B      0.3438  -2.8510   2.2109   O.3       1 RES1   0.0000
    98 H2B      1.2358  -2.2418   2.0989   H         1 RES1   0.0000
    99 C8B     -1.9272  -3.4262   1.8470   C.3       1 RES1   0.0000
   100 C5B     -1.7008  -4.2300   0.5473   C.3       1 RES1   0.0000
   101 H6B     -1.7550  -3.6430  -0.2021   H         1 RES1   0.0000
   102 H7B     -2.3709  -4.8967   0.4664   H         1 RES1   0.0000
   103 H8B     -0.8410  -4.6312   0.5753   H         1 RES1   0.0000
   104 C9B     -1.8329  -4.3923   3.0302   C.3       1 RES1   0.0000
   105 C10B    -2.3835  -3.8864   4.3766   C.3       1 RES1   0.0000
   106 C3B     -1.5796  -2.7168   4.8990   C.2       1 RES1   0.0000
   107 O4B     -0.6419  -2.8510   5.6500   O.2       1 RES1   0.0000
   108 N1B     -1.9500  -1.4233   4.4777   N.am      1 RES1   0.0000
   109 C4B     -3.0555  -1.1268   3.6630   C.2       1 RES1   0.0000
   110 O5B     -3.3087   0.0236   3.4018   O.2       1 RES1   0.0000
   111 C12B    -3.8748  -2.2949   3.1530   C.3       1 RES1   0.0000
   112 C7B     -5.3291  -1.8245   2.9463   C.3       1 RES1   0.0000
   113 H12B    -5.3386  -1.1209   2.3166   H         1 RES1   0.0000
   114 H13B    -5.6801  -1.5191   3.7780   H         1 RES1   0.0000
   115 H14B    -5.8552  -2.5516   2.6275   H         1 RES1   0.0000
   116 C11B    -3.8241  -3.4321   4.1621   C.3       1 RES1   0.0000
   117 C6B     -2.3082  -5.0088   5.4059   C.3       1 RES1   0.0000
   118 H9B     -2.8047  -5.7521   5.0996   H         1 RES1   0.0000
   119 H10B    -2.6720  -4.7049   6.2346   H         1 RES1   0.0000
   120 H11B    -1.4008  -5.2654   5.5349   H         1 RES1   0.0000
   121 H17B    -4.1894  -3.1415   4.9908   H         1 RES1   0.0000
   122 H18B    -4.3354  -4.1592   3.8402   H         1 RES1   0.0000
   123 C13B    -3.3087  -2.7640   1.8113   C.3       1 RES1   0.0000
   124 H19B    -3.9241  -3.3923   1.4459   H         1 RES1   0.0000
   125 H20B    -3.2560  -2.0059   1.2438   H         1 RES1   0.0000
   126 C27B    -1.1663  -0.3127   4.9799   C.ar      1 RES1   0.0000
   127 C26B     0.0722  -0.0929   4.4248   C.ar      1 RES1   0.0000
   128 C31B     0.8555   0.9439   4.8928   C.ar      1 RES1   0.0000
   129 N2B      2.1858   1.1047   4.3518   N.am      1 RES1   0.0000
   130 C15B     2.3908   2.0958   3.3971   C.2       1 RES1   0.0000
   131 O9B      1.4339   2.7005   2.9416   O.2       1 RES1   0.0000
   132 C22B     3.8140   2.3628   2.9525   C.3       1 RES1   0.0000
   133 C18B     3.9640   3.8451   2.6540   C.3       1 RES1   0.0000
   134 H24B     4.8838   4.0707   2.5964   H         1 RES1   0.0000
   135 H25B     3.5657   4.3510   3.3427   H         1 RES1   0.0000
   136 H26B     3.5335   4.0412   1.8346   H         1 RES1   0.0000
   137 C21B     4.1099   1.5634   1.6745   C.3       1 RES1   0.0000
   138 C20B     4.0942   0.0324   1.8253   C.3       1 RES1   0.0000
   139 C14B     2.6664  -0.5192   1.7304   C.2       1 RES1   0.0000
   140 O6B      2.4769  -1.6711   2.2466   O.co2     1 RES1   0.0000
   141 O7B      1.8083   0.1032   1.0992   O.co2     1 RES1   0.0000
   142 C17B     4.7945  -0.5870   0.6110   C.3       1 RES1   0.0000
   143 H21B     4.1879  -0.6047  -0.1244   H         1 RES1   0.0000
   144 H22B     5.0600  -1.4749   0.8240   H         1 RES1   0.0000
   145 H23B     5.5569  -0.0737   0.3887   H         1 RES1   0.0000
   146 C25B     4.8403  -0.3879   3.1002   C.3       1 RES1   0.0000
   147 C24B     4.6050   0.4543   4.3642   C.3       1 RES1   0.0000
   148 C16B     3.2084   0.2788   4.8990   C.2       1 RES1   0.0000
   149 O8B      2.9075  -0.5088   5.7588   O.2       1 RES1   0.0000
   150 C19B     5.6008  -0.0059   5.4432   C.3       1 RES1   0.0000
   151 H27B     5.4393  -0.9144   5.6437   H         1 RES1   0.0000
   152 H28B     5.4833   0.5162   6.2190   H         1 RES1   0.0000
   153 H29B     6.4945   0.1032   5.1151   H         1 RES1   0.0000
   154 C23B     4.7907   1.9351   4.0346   C.3       1 RES1   0.0000
   155 H32B     4.6304   2.4483   4.8197   H         1 RES1   0.0000
   156 H33B     5.6839   2.0796   3.7314   H         1 RES1   0.0000
   157 H34B     5.7746  -0.3687   2.9074   H         1 RES1   0.0000
   158 H35B     4.5848  -1.2832   3.2961   H         1 RES1   0.0000
   159 H30B     3.4489   1.7994   1.0261   H         1 RES1   0.0000
   160 H31B     4.9758   1.8141   1.3682   H         1 RES1   0.0000
   161 C30B     0.4144   1.7699   5.9205   C.ar      1 RES1   0.0000
   162 C29B    -0.8429   1.5073   6.4553   C.ar      1 RES1   0.0000
   163 C28B    -1.6505   0.4720   6.0216   C.ar      1 RES1   0.0000
   164 C32B    -2.9824   0.2212   6.6606   C.3       1 RES1   0.0000
   165 H38B    -3.5379   0.9882   6.5611   H         1 RES1   0.0000
   166 H39B    -2.8602   0.0442   7.5872   H         1 RES1   0.0000
   167 H40B    -3.3986  -0.5162   6.2501   H         1 RES1   0.0000
   168 H37B    -1.1591   2.0649   7.1519   H         1 RES1   0.0000
   169 C33B     1.2758   2.8952   6.4305   C.3       1 RES1   0.0000
   170 H41B     1.8207   3.2153   5.7215   H         1 RES1   0.0000
   171 H42B     1.8309   2.5811   7.1363   H         1 RES1   0.0000
   172 H43B     0.7283   3.5988   6.7476   H         1 RES1   0.0000
   173 H36B     0.3893  -0.6490   3.7159   H         1 RES1   0.0000
   174 H15B    -0.9181  -4.6017   3.1561   H         1 RES1   0.0000
   175 H16B    -2.3132  -5.1769   2.7986   H         1 RES1   0.0000
@<TRIPOS>BOND
     1     1     2    1
     2     2    13    1
     3     3    14    1
     4     4     1    1
     5     5    15    2
     6     6    16    2
     7     7    26    2
     8     8     1    1
     9     9    28    2
    10    10    27    2
    11    11    15   am
    12    12    27   am
    13    13    48    1
    14    14     4    2
    15    15    22    1
    16    16    11   am
    17    17    20    1
    18    18    22    1
    19    19    24    1
    20    20    14    1
    21    21    20    1
    22    22    21    1
    23    23    22    1
    24    24    16    1
    25    25    20    1
    26    26     8    1
    27    27    34    1
    28    28    12   am
    29    29    32    1
    30    30    34    1
    31    31    36    1
    32    32    26    1
    33    33    32    1
    34    34    33    1
    35    35    34    1
    36    36    28    1
    37    37    32    1
    38    38    39   ar
    39    39    11    1
    40    40    39   ar
    41    41    40   ar
    42    42    41   ar
    43    43    12    1
    44    44    40    1
    45    45    42    1
    46    46     2    1
    47    47     3    1
    48    49    13    1
    49    50    13    1
    50    51    17    1
    51    52    17    1
    52    53    17    1
    53    54    18    1
    54    55    18    1
    55    56    18    1
    56    57    19    1
    57    58    19    1
    58    59    19    1
    59    60    21    1
    60    61    21    1
    61    62    23    1
    62    63    23    1
    63    64    25    1
    64    65    25    1
    65    66    29    1
    66    67    29    1
    67    68    29    1
    68    69    30    1
    69    70    30    1
    70    71    30    1
    71    72    31    1
    72    73    31    1
    73    74    31    1
    74    75    33    1
    75    76    33    1
    76    77    35    1
    77    78    35    1
    78    79    37    1
    79    80    37    1
    80    81    38    1
    81    82    41    1
    82    83    44    1
    83    84    44    1
    84    85    44    1
    85    86    45    1
    86    87    45    1
    87    88    45    1
    88    89     1    1
    89    90    89    1
    90    91    90    1
    91    92    90    1
    92    93    90    1
    93    94    89    1
    94    95     1    1
    95    96    95    2
    96    97    96    1
    97    98    97    1
    98    99    96    1
    99   100    99    1
   100   101   100    1
   101   102   100    1
   102   103   100    1
   103   104    99    1
   104   105   104    1
   105   106   105    1
   106   107   106    2
   107   108   106   am
   108   109   108   am
   109   110   109    2
   110   111   109    1
   111   112   111    1
   112   113   112    1
   113   114   112    1
   114   115   112    1
   115   116   105    1
   116   117   105    1
   117   118   117    1
   118   119   117    1
   119   120   117    1
   120   121   116    1
   121   122   116    1
   122   123    99    1
   123   124   123    1
   124   125   123    1
   125   126   108    1
   126   127   126   ar
   127   128   127   ar
   128   129   128    1
   129   130   129   am
   130   131   130    2
   131   132   130    1
   132   133   132    1
   133   134   133    1
   134   135   133    1
   135   136   133    1
   136   137   132    1
   137   138   137    1
   138   139   138    1
   139   140   139    2
   140   141     1    1
   141   142   138    1
   142   143   142    1
   143   144   142    1
   144   145   142    1
   145   146   138    1
   146   147   146    1
   147   148   129   am
   148   149   148    2
   149   150   147    1
   150   151   150    1
   151   152   150    1
   152   153   150    1
   153   154   132    1
   154   155   154    1
   155   156   154    1
   156   157   146    1
   157   158   146    1
   158   159   137    1
   159   160   137    1
   160   161   128   ar
   161   162   161   ar
   162   163   126   ar
   163   164   163    1
   164   165   164    1
   165   166   164    1
   166   167   164    1
   167   168   162    1
   168   169   161    1
   169   170   169    1
   170   171   169    1
   171   172   169    1
   172   173   127    1
   173   174   104    1
   174   175   104    1
   175    23    24    1
   176    24    25    1
   177    35    36    1
   178    36    37    1
   179    38    43   ar
   180    42    43   ar
   181   111   116    1
   182   111   123    1
   183   139   141    1
   184   147   148    1
   185   147   154    1
   186   162   163   ar
@<TRIPOS>SUBSTRUCTURE
     1 RES1        1 GROUP             0 ****  ****    0  
@<TRIPOS>CRYSIN
   14.5090   14.7490   15.5910   90.0000   94.2800   90.0000   231     1
