@<TRIPOS>MOLECULE
RESVET
    88    97     3     0     0
SMALL
USER_CHARGES
****
Generated from the CSD

@<TRIPOS>ATOM
     1 Fe1      8.5450   3.6300  11.0278   Fe        1 RES1   1.0000
     2 O1       9.0762   2.2547  12.1810   O.3       1 RES1   0.0000
     3 O2       7.8519   2.4156   9.7807   O.3       1 RES1   0.0000
     4 N1       8.0457   5.0937   9.7964   N.ar      1 RES1   0.0000
     5 N2      10.2028   3.6500  10.0207   N.2       1 RES1   0.0000
     6 N3       9.1504   5.0177  12.3075   N.ar      1 RES1   0.0000
     7 N4       6.9109   3.7151  12.0784   N.2       1 RES1   0.0000
     8 C1       6.8804   5.7251   9.7037   C.ar      1 RES1   0.0000
     9 H1       6.1897   5.5090  10.3187   H         1 RES1   0.0000
    10 C2       6.6379   6.7074   8.7171   C.ar      1 RES1   0.0000
    11 H2       5.7955   7.1440   8.6782   H         1 RES1   0.0000
    12 C3       7.6233   7.0307   7.8151   C.ar      1 RES1   0.0000
    13 H3       7.4656   7.6884   7.1478   H         1 RES1   0.0000
    14 C4       8.8778   6.3705   7.8922   C.ar      1 RES1   0.0000
    15 C5       9.9584   6.6163   7.0050   C.ar      1 RES1   0.0000
    16 H4       9.8659   7.2536   6.3067   H         1 RES1   0.0000
    17 C6      11.1373   5.9296   7.1584   C.ar      1 RES1   0.0000
    18 H5      11.8626   6.1147   6.5737   H         1 RES1   0.0000
    19 C7      11.2972   4.9516   8.1689   C.ar      1 RES1   0.0000
    20 H6      12.1243   4.4926   8.2593   H         1 RES1   0.0000
    21 C8      10.2498   4.6636   9.0247   C.ar      1 RES1   0.0000
    22 C9       9.0465   5.3951   8.9025   C.ar      1 RES1   0.0000
    23 C10     11.1933   2.8229  10.1932   C.2       1 RES1   0.0000
    24 H7      11.9701   2.9505   9.6629   H         1 RES1   0.0000
    25 C11     11.1993   1.7370  11.1211   C.ar      1 RES1   0.0000
    26 C12     12.3279   0.8773  11.1303   C.ar      1 RES1   0.0000
    27 H8      13.0609   1.0739  10.5574   H         1 RES1   0.0000
    28 C13     12.3947  -0.2287  11.9414   C.ar      1 RES1   0.0000
    29 H9      13.1650  -0.7841  11.9409   H         1 RES1   0.0000
    30 C14     11.2998  -0.5219  12.7723   C.ar      1 RES1   0.0000
    31 H10     11.3157  -1.3080  13.3060   H         1 RES1   0.0000
    32 C15     10.2043   0.3079  12.8269   C.ar      1 RES1   0.0000
    33 H11      9.4885   0.0966  13.4145   H         1 RES1   0.0000
    34 C16     10.1237   1.4751  12.0215   C.ar      1 RES1   0.0000
    35 C17     10.3501   5.5785  12.4105   C.ar      1 RES1   0.0000
    36 H12     11.0490   5.2786  11.8407   H         1 RES1   0.0000
    37 C18     10.6199   6.6072  13.3394   C.ar      1 RES1   0.0000
    38 H13     11.4889   6.9879  13.3911   H         1 RES1   0.0000
    39 C19      9.6218   7.0532  14.1665   C.ar      1 RES1   0.0000
    40 H14      9.7902   7.7627  14.7763   H         1 RES1   0.0000
    41 C20      8.3394   6.4532  14.1099   C.ar      1 RES1   0.0000
    42 C21      7.2642   6.7804  14.9652   C.ar      1 RES1   0.0000
    43 H15      7.3713   7.4543  15.6258   H         1 RES1   0.0000
    44 C22      6.0639   6.1251  14.8444   C.ar      1 RES1   0.0000
    45 H16      5.3491   6.3562  15.4272   H         1 RES1   0.0000
    46 C23      5.8659   5.1180  13.8770   C.ar      1 RES1   0.0000
    47 H17      5.0198   4.6952  13.7950   H         1 RES1   0.0000
    48 C24      6.9096   4.7513  13.0505   C.ar      1 RES1   0.0000
    49 C25      8.1482   5.4263  13.1522   C.ar      1 RES1   0.0000
    50 C26      5.9635   2.8366  12.0275   C.2       1 RES1   0.0000
    51 H18      5.2776   2.8892  12.6819   H         1 RES1   0.0000
    52 C27      5.8747   1.7898  11.0557   C.ar      1 RES1   0.0000
    53 C28      4.7798   0.8957  11.1558   C.ar      1 RES1   0.0000
    54 H19      4.1720   0.9866  11.8808   H         1 RES1   0.0000
    55 C29      4.5769  -0.0975  10.2303   C.ar      1 RES1   0.0000
    56 H20      3.8429  -0.6949  10.3187   H         1 RES1   0.0000
    57 C30      5.4647  -0.2202   9.1542   C.ar      1 RES1   0.0000
    58 H21      5.3241  -0.9011   8.5063   H         1 RES1   0.0000
    59 C31      6.5434   0.6341   9.0205   C.ar      1 RES1   0.0000
    60 H22      7.1257   0.5370   8.2760   H         1 RES1   0.0000
    61 C32      6.7980   1.6521   9.9719   C.ar      1 RES1   0.0000
    62 S1       2.7784   6.1771  11.0116   S.o2      2 RES2   0.0000
    63 O3       2.2139   7.3714  11.6488   O.3       2 RES2  -1.0000
    64 O4       4.1119   5.8642  11.4946   O.2       2 RES2   0.0000
    65 O5       1.8661   5.0421  11.0419   O.2       2 RES2   0.0000
    66 C33      2.9657   6.5823   9.2763   C.ar      2 RES2   0.0000
    67 C34      2.6789   7.8501   8.8508   C.ar      2 RES2   0.0000
    68 H23      2.3935   8.5059   9.4759   H         2 RES2   0.0000
    69 C35      2.8069   8.1888   7.4699   C.ar      2 RES2   0.0000
    70 H24      2.6118   9.0726   7.1795   H         2 RES2   0.0000
    71 C36      3.2057   7.2575   6.5702   C.ar      2 RES2   0.0000
    72 H25      3.2803   7.4952   5.6542   H         2 RES2   0.0000
    73 C37      3.5151   5.9240   6.9791   C.ar      2 RES2   0.0000
    74 C38      3.9292   4.9531   6.0434   C.ar      2 RES2   0.0000
    75 H26      3.9760   5.1745   5.1201   H         2 RES2   0.0000
    76 C39      4.2625   3.6970   6.4571   C.ar      2 RES2   0.0000
    77 H27      4.5413   3.0546   5.8144   H         2 RES2   0.0000
    78 C40      4.2034   3.3320   7.8161   C.ar      2 RES2   0.0000
    79 H28      4.4516   2.4544   8.0841   H         2 RES2   0.0000
    80 C41      3.7829   4.2491   8.7553   C.ar      2 RES2   0.0000
    81 H29      3.7320   4.0003   9.6712   H         2 RES2   0.0000
    82 C42      3.4191   5.5863   8.3524   C.ar      2 RES2   0.0000
    83 O6      11.3850   9.0914  10.9905   O.3       3 RES3   0.0000
    84 H30     12.1774   8.8199  10.9245   H         3 RES3   0.0000
    85 C43     10.5492   8.3134  10.1542   C.3       3 RES3   0.0000
    86 H31     11.0844   7.6234   9.7079   H         3 RES3   0.0000
    87 H32     10.1331   8.8905   9.4809   H         3 RES3   0.0000
    88 H33      9.8523   7.8872  10.6942   H         3 RES3   0.0000
@<TRIPOS>BOND
     1     1     2    1
     2     2    34    1
     3     3     1    1
     4     4     1    1
     5     5     1    1
     6     6     1    1
     7     7     1    1
     8     8     4   ar
     9     9     8    1
    10    10     8   ar
    11    11    10    1
    12    12    10   ar
    13    13    12    1
    14    14    12   ar
    15    15    14   ar
    16    16    15    1
    17    17    15   ar
    18    18    17    1
    19    19    17   ar
    20    20    19    1
    21    21     5    1
    22    22     4   ar
    23    23     5    2
    24    24    23    1
    25    25    23    1
    26    26    25   ar
    27    27    26    1
    28    28    26   ar
    29    29    28    1
    30    30    28   ar
    31    31    30    1
    32    32    30   ar
    33    33    32    1
    34    34    25   ar
    35    35     6   ar
    36    36    35    1
    37    37    35   ar
    38    38    37    1
    39    39    37   ar
    40    40    39    1
    41    41    39   ar
    42    42    41   ar
    43    43    42    1
    44    44    42   ar
    45    45    44    1
    46    46    44   ar
    47    47    46    1
    48    48     7    1
    49    49     6   ar
    50    50     7    2
    51    51    50    1
    52    52    50    1
    53    53    52   ar
    54    54    53    1
    55    55    53   ar
    56    56    55    1
    57    57    55   ar
    58    58    57    1
    59    59    57   ar
    60    60    59    1
    61    61     3    1
    62    14    22   ar
    63    19    21   ar
    64    21    22   ar
    65    32    34   ar
    66    41    49   ar
    67    46    48   ar
    68    48    49   ar
    69    52    61   ar
    70    59    61   ar
    71    62    63    1
    72    64    62    2
    73    65    62    2
    74    66    62    1
    75    67    66   ar
    76    68    67    1
    77    69    67   ar
    78    70    69    1
    79    71    69   ar
    80    72    71    1
    81    73    71   ar
    82    74    73   ar
    83    75    74    1
    84    76    74   ar
    85    77    76    1
    86    78    76   ar
    87    79    78    1
    88    80    78   ar
    89    81    80    1
    90    82    66   ar
    91    73    82   ar
    92    80    82   ar
    93    83    84    1
    94    85    83    1
    95    86    85    1
    96    87    85    1
    97    88    85    1
@<TRIPOS>SUBSTRUCTURE
     1 RES1        1 GROUP             0 ****  ****    0  
     2 RES2       62 GROUP             0 ****  ****    0  
     3 RES3       83 GROUP             0 ****  ****    0  
@<TRIPOS>CRYSIN
   11.2936   18.5800   17.0434   90.0000  101.7070   90.0000    14     1
