@<TRIPOS>MOLECULE
RESVIX
    94   106     2     0     0
SMALL
USER_CHARGES
****
Generated from the CSD

@<TRIPOS>ATOM
     1 Fe1      4.3426   1.3048  22.7158   Fe        1 RES1   1.0000
     2 O1       3.0475   2.5127  22.1094   O.3       1 RES1   0.0000
     3 O2       3.4369  -0.1955  22.0386   O.3       1 RES1   0.0000
     4 N1       5.6963   0.0761  23.4670   N.ar      1 RES1   0.0000
     5 N2       3.5248   1.1153  24.4514   N.2       1 RES1   0.0000
     6 N3       5.4528   2.8341  23.3032   N.ar      1 RES1   0.0000
     7 N4       5.2366   1.5916  21.0263   N.2       1 RES1   0.0000
     8 C1       2.0686   3.0349  22.7918   C.ar      1 RES1   0.0000
     9 C2       1.3111   4.0242  22.0756   C.ar      1 RES1   0.0000
    10 H1       1.5348   4.2328  21.1752   H         1 RES1   0.0000
    11 C3       0.2717   4.6632  22.6842   C.ar      1 RES1   0.0000
    12 H2      -0.2105   5.3232  22.2019   H         1 RES1   0.0000
    13 C4      -0.1110   4.3667  24.0273   C.ar      1 RES1   0.0000
    14 C5      -1.2118   5.0372  24.6133   C.ar      1 RES1   0.0000
    15 H3      -1.6721   5.7050  24.1186   H         1 RES1   0.0000
    16 C6      -1.6179   4.7354  25.8786   C.ar      1 RES1   0.0000
    17 H4      -2.3628   5.1854  26.2590   H         1 RES1   0.0000
    18 C7      -0.9327   3.7565  26.6194   C.ar      1 RES1   0.0000
    19 H5      -1.2126   3.5427  27.5019   H         1 RES1   0.0000
    20 C8       0.1511   3.1057  26.0594   C.ar      1 RES1   0.0000
    21 H6       0.6098   2.4510  26.5722   H         1 RES1   0.0000
    22 C9       0.5957   3.3839  24.7590   C.ar      1 RES1   0.0000
    23 C10      1.7397   2.7134  24.1375   C.ar      1 RES1   0.0000
    24 C11      2.4720   1.7766  24.8634   C.2       1 RES1   0.0000
    25 H7       2.1775   1.5981  25.7494   H         1 RES1   0.0000
    26 C12      4.2592   0.2598  25.3320   C.ar      1 RES1   0.0000
    27 C13      3.9228  -0.0709  26.6271   C.ar      1 RES1   0.0000
    28 H8       3.1454   0.3005  27.0271   H         1 RES1   0.0000
    29 C14      4.7363  -0.9578  27.3545   C.ar      1 RES1   0.0000
    30 H9       4.5031  -1.1822  28.2477   H         1 RES1   0.0000
    31 C15      5.8718  -1.5089  26.7880   C.ar      1 RES1   0.0000
    32 H10      6.4134  -2.0994  27.2981   H         1 RES1   0.0000
    33 C16      6.2283  -1.2019  25.4699   C.ar      1 RES1   0.0000
    34 C17      5.4223  -0.2847  24.7475   C.ar      1 RES1   0.0000
    35 C18      7.3448  -1.7267  24.7972   C.ar      1 RES1   0.0000
    36 H11      7.9232  -2.3329  25.2447   H         1 RES1   0.0000
    37 C19      7.6048  -1.3725  23.5011   C.ar      1 RES1   0.0000
    38 H12      8.3492  -1.7412  23.0397   H         1 RES1   0.0000
    39 C20      6.7547  -0.4553  22.8657   C.ar      1 RES1   0.0000
    40 H13      6.9426  -0.2047  21.9682   H         1 RES1   0.0000
    41 C21      3.1514  -0.4081  20.7698   C.ar      1 RES1   0.0000
    42 C22      2.2220  -1.4630  20.5035   C.ar      1 RES1   0.0000
    43 H14      1.8946  -1.9944  21.2200   H         1 RES1   0.0000
    44 C23      1.7986  -1.7136  19.2270   C.ar      1 RES1   0.0000
    45 H15      1.1787  -2.4182  19.0796   H         1 RES1   0.0000
    46 C24      2.2506  -0.9631  18.1227   C.ar      1 RES1   0.0000
    47 C25      1.7464  -1.1861  16.8273   C.ar      1 RES1   0.0000
    48 H16      1.0966  -1.8671  16.6981   H         1 RES1   0.0000
    49 C26      2.1588  -0.4605  15.7579   C.ar      1 RES1   0.0000
    50 H17      1.7989  -0.6259  14.8957   H         1 RES1   0.0000
    51 C27      3.1274   0.5419  15.9461   C.ar      1 RES1   0.0000
    52 H18      3.4261   1.0510  15.2015   H         1 RES1   0.0000
    53 C28      3.6495   0.7925  17.1942   C.ar      1 RES1   0.0000
    54 H19      4.3022   1.4761  17.2972   H         1 RES1   0.0000
    55 C29      3.2344   0.0538  18.3266   C.ar      1 RES1   0.0000
    56 C30      3.7126   0.3057  19.6685   C.ar      1 RES1   0.0000
    57 C31      4.7870   1.2111  19.8579   C.2       1 RES1   0.0000
    58 H20      5.2093   1.5666  19.0846   H         1 RES1   0.0000
    59 C32      6.3157   2.5153  21.1014   C.ar      1 RES1   0.0000
    60 C33      7.2420   2.8066  20.1406   C.ar      1 RES1   0.0000
    61 H21      7.2576   2.3145  19.3282   H         1 RES1   0.0000
    62 C34      8.1777   3.8431  20.3581   C.ar      1 RES1   0.0000
    63 H22      8.8319   4.0229  19.6936   H         1 RES1   0.0000
    64 C35      8.1643   4.5976  21.5083   C.ar      1 RES1   0.0000
    65 H23      8.7739   5.3179  21.6152   H         1 RES1   0.0000
    66 C36      7.2403   4.2971  22.5231   C.ar      1 RES1   0.0000
    67 C37      6.3460   3.2186  22.3354   C.ar      1 RES1   0.0000
    68 C38      7.1485   4.9952  23.7683   C.ar      1 RES1   0.0000
    69 H24      7.7140   5.7391  23.9396   H         1 RES1   0.0000
    70 C39      6.2544   4.5950  24.7038   C.ar      1 RES1   0.0000
    71 H25      6.1942   5.0595  25.5306   H         1 RES1   0.0000
    72 C40      5.4170   3.4967  24.4529   C.ar      1 RES1   0.0000
    73 H26      4.8064   3.2199  25.1254   H         1 RES1   0.0000
    74 S1       5.5276   4.5105  28.4879   S.o2      2 RES2   0.0000
    75 O3       4.9333   5.0555  29.6945   O.3       2 RES2  -1.0000
    76 O4       4.4981   3.8379  27.7754   O.2       2 RES2   0.0000
    77 O5       6.2087   5.4977  27.7234   O.2       2 RES2   0.0000
    78 C41      6.5943   3.2750  29.1004   C.ar      2 RES2   0.0000
    79 C42      6.1207   1.9353  29.1054   C.ar      2 RES2   0.0000
    80 H27      5.2745   1.7412  28.7201   H         2 RES2   0.0000
    81 C43      6.8803   0.8830  29.6697   C.ar      2 RES2   0.0000
    82 H28      6.5153   0.0066  29.7045   H         2 RES2   0.0000
    83 C44      8.1006   1.1074  30.1520   C.ar      2 RES2   0.0000
    84 H29      8.6085   0.3726  30.4751   H         2 RES2   0.0000
    85 C45      8.6837   2.4431  30.2017   C.ar      2 RES2   0.0000
    86 C46      9.8861   2.7279  30.7386   C.ar      2 RES2   0.0000
    87 H30     10.4328   2.0114  31.0394   H         2 RES2   0.0000
    88 C47     10.3354   3.9665  30.8604   C.ar      2 RES2   0.0000
    89 H31     11.1574   4.1410  31.3029   H         2 RES2   0.0000
    90 C48      9.5862   5.0030  30.3359   C.ar      2 RES2   0.0000
    91 H32      9.9527   5.8769  30.3831   H         2 RES2   0.0000
    92 C49      8.3718   4.8640  29.7617   C.ar      2 RES2   0.0000
    93 H33      7.8969   5.6171  29.4310   H         2 RES2   0.0000
    94 C50      7.8109   3.5164  29.6597   C.ar      2 RES2   0.0000
@<TRIPOS>BOND
     1     1     2    1
     2     2     8    1
     3     3     1    1
     4     4     1    1
     5     5     1    1
     6     6     1    1
     7     7     1    1
     8     8     9   ar
     9     9    10    1
    10    11     9   ar
    11    12    11    1
    12    13    11   ar
    13    14    13   ar
    14    15    14    1
    15    16    14   ar
    16    17    16    1
    17    18    16   ar
    18    19    18    1
    19    20    18   ar
    20    21    20    1
    21    22    13   ar
    22    23     8   ar
    23    24     5    2
    24    25    24    1
    25    26     5    1
    26    27    26   ar
    27    28    27    1
    28    29    27   ar
    29    30    29    1
    30    31    29   ar
    31    32    31    1
    32    33    31   ar
    33    34     4   ar
    34    35    33   ar
    35    36    35    1
    36    37    35   ar
    37    38    37    1
    38    39     4   ar
    39    40    39    1
    40    41     3    1
    41    42    41   ar
    42    43    42    1
    43    44    42   ar
    44    45    44    1
    45    46    44   ar
    46    47    46   ar
    47    48    47    1
    48    49    47   ar
    49    50    49    1
    50    51    49   ar
    51    52    51    1
    52    53    51   ar
    53    54    53    1
    54    55    46   ar
    55    56    41   ar
    56    57     7    2
    57    58    57    1
    58    59     7    1
    59    60    59   ar
    60    61    60    1
    61    62    60   ar
    62    63    62    1
    63    64    62   ar
    64    65    64    1
    65    66    64   ar
    66    67     6   ar
    67    68    66   ar
    68    69    68    1
    69    70    68   ar
    70    71    70    1
    71    72     6   ar
    72    73    72    1
    73    20    22   ar
    74    22    23   ar
    75    23    24    1
    76    26    34   ar
    77    33    34   ar
    78    37    39   ar
    79    53    55   ar
    80    55    56   ar
    81    56    57    1
    82    59    67   ar
    83    66    67   ar
    84    70    72   ar
    85    74    75    1
    86    76    74    2
    87    77    74    2
    88    78    74    1
    89    79    78   ar
    90    80    79    1
    91    81    79   ar
    92    82    81    1
    93    83    81   ar
    94    84    83    1
    95    85    83   ar
    96    86    85   ar
    97    87    86    1
    98    88    86   ar
    99    89    88    1
   100    90    88   ar
   101    91    90    1
   102    92    90   ar
   103    93    92    1
   104    94    78   ar
   105    85    94   ar
   106    92    94   ar
@<TRIPOS>SUBSTRUCTURE
     1 RES1        1 GROUP             0 ****  ****    0  
     2 RES2       74 GROUP             0 ****  ****    0  
@<TRIPOS>CRYSIN
   11.7910   13.1210   25.1530   90.0000   98.7630   90.0000    14     1
