@<TRIPOS>MOLECULE
RESVUJ
   113   125     4     0     0
SMALL
USER_CHARGES
****
Generated from the CSD

@<TRIPOS>ATOM
     1 Fe1      0.3317   2.8575  12.2114   Fe        1 RES1   1.0000
     2 O1       1.6448   3.5331  13.3719   O.3       1 RES1   0.0000
     3 O2      -0.7319   2.2195  13.6231   O.3       1 RES1   0.0000
     4 N1       1.1451   1.1117  12.1023   N.2       1 RES1   0.0000
     5 N2      -0.9608   2.0880  10.9425   N.ar      1 RES1   0.0000
     6 N3      -0.5148   4.5937  12.1976   N.2       1 RES1   0.0000
     7 N4       1.3337   3.5831  10.6781   N.ar      1 RES1   0.0000
     8 C1       2.7047   2.8982  13.8206   C.ar      1 RES1   0.0000
     9 C2       3.5514   3.6574  14.6918   C.ar      1 RES1   0.0000
    10 H1       3.3253   4.5367  14.8921   H         1 RES1   0.0000
    11 C3       4.6736   3.1270  15.2287   C.ar      1 RES1   0.0000
    12 H2       5.1937   3.6457  15.7976   H         1 RES1   0.0000
    13 C4       5.0769   1.7891  14.9469   C.ar      1 RES1   0.0000
    14 C5       6.2498   1.2510  15.5278   C.ar      1 RES1   0.0000
    15 H3       6.7515   1.7718  16.1127   H         1 RES1   0.0000
    16 C6       6.6572  -0.0219  15.2420   C.ar      1 RES1   0.0000
    17 H4       7.4291  -0.3686  15.6293   H         1 RES1   0.0000
    18 C7       5.8965  -0.7980  14.3579   C.ar      1 RES1   0.0000
    19 H5       6.1796  -1.6590  14.1482   H         1 RES1   0.0000
    20 C8       4.7384  -0.3106  13.7917   C.ar      1 RES1   0.0000
    21 H6       4.2479  -0.8504  13.2147   H         1 RES1   0.0000
    22 C9       4.2826   1.0043  14.0764   C.ar      1 RES1   0.0000
    23 C10      3.0620   1.5682  13.5144   C.ar      1 RES1   0.0000
    24 C11      2.2547   0.7445  12.6812   C.2       1 RES1   0.0000
    25 H7       2.5419  -0.1294  12.5376   H         1 RES1   0.0000
    26 C12      0.4511   0.2092  11.2544   C.ar      1 RES1   0.0000
    27 C13      0.7672  -1.1028  10.9791   C.ar      1 RES1   0.0000
    28 H8       1.5043  -1.5003  11.3838   H         1 RES1   0.0000
    29 C14     -0.0338  -1.8409  10.0790   C.ar      1 RES1   0.0000
    30 H9       0.1945  -2.7221   9.8893   H         1 RES1   0.0000
    31 C15     -1.1298  -1.2955   9.4820   C.ar      1 RES1   0.0000
    32 H10     -1.6352  -1.8039   8.8891   H         1 RES1   0.0000
    33 C16     -1.5029   0.0345   9.7585   C.ar      1 RES1   0.0000
    34 C17     -2.6529   0.6735   9.2283   C.ar      1 RES1   0.0000
    35 H11     -3.2219   0.2146   8.6527   H         1 RES1   0.0000
    36 C18     -2.9188   1.9674   9.5742   C.ar      1 RES1   0.0000
    37 H12     -3.6772   2.3927   9.2443   H         1 RES1   0.0000
    38 C19     -2.0481   2.6534  10.4249   C.ar      1 RES1   0.0000
    39 H13     -2.2359   3.5376  10.6386   H         1 RES1   0.0000
    40 C20     -0.6908   0.7813  10.6378   C.ar      1 RES1   0.0000
    41 C21     -1.6505   2.8704  14.2855   C.ar      1 RES1   0.0000
    42 C22     -2.2941   2.1425  15.3368   C.ar      1 RES1   0.0000
    43 H14     -2.0313   1.2677  15.5118   H         1 RES1   0.0000
    44 C23     -3.2806   2.7032  16.0830   C.ar      1 RES1   0.0000
    45 H15     -3.6744   2.2058  16.7618   H         1 RES1   0.0000
    46 C24     -3.7269   4.0369  15.8502   C.ar      1 RES1   0.0000
    47 C25     -4.7711   4.5930  16.6296   C.ar      1 RES1   0.0000
    48 H16     -5.1569   4.0852  17.3053   H         1 RES1   0.0000
    49 C26     -5.2240   5.8694  16.4039   C.ar      1 RES1   0.0000
    50 H17     -5.9198   6.2195  16.9114   H         1 RES1   0.0000
    51 C27     -4.6232   6.6354  15.3983   C.ar      1 RES1   0.0000
    52 H18     -4.9268   7.4991  15.2367   H         1 RES1   0.0000
    53 C28     -3.5878   6.1261  14.6437   C.ar      1 RES1   0.0000
    54 H19     -3.1913   6.6615  13.9960   H         1 RES1   0.0000
    55 C29     -3.1146   4.8093  14.8328   C.ar      1 RES1   0.0000
    56 C30     -2.0465   4.2134  14.0355   C.ar      1 RES1   0.0000
    57 C31     -1.4528   4.9935  13.0137   C.2       1 RES1   0.0000
    58 H20     -1.7561   5.8670  12.9156   H         1 RES1   0.0000
    59 C32     -0.0872   5.4311  11.1314   C.ar      1 RES1   0.0000
    60 C33     -0.5308   6.7007  10.8242   C.ar      1 RES1   0.0000
    61 H21     -1.1846   7.1049  11.3477   H         1 RES1   0.0000
    62 C34      0.0117   7.3860   9.7131   C.ar      1 RES1   0.0000
    63 H22     -0.3021   8.2360   9.5074   H         1 RES1   0.0000
    64 C35      0.9860   6.8289   8.9331   C.ar      1 RES1   0.0000
    65 H23      1.3285   7.3011   8.2093   H         1 RES1   0.0000
    66 C36      1.4755   5.5316   9.2296   C.ar      1 RES1   0.0000
    67 C37      2.5102   4.8886   8.5098   C.ar      1 RES1   0.0000
    68 H24      2.8941   5.3027   7.7699   H         1 RES1   0.0000
    69 C38      2.9413   3.6575   8.9064   C.ar      1 RES1   0.0000
    70 H25      3.6401   3.2397   8.4550   H         1 RES1   0.0000
    71 C39      2.3251   3.0196  10.0015   C.ar      1 RES1   0.0000
    72 H26      2.6218   2.1769  10.2579   H         1 RES1   0.0000
    73 C40      0.9231   4.8435  10.3286   C.ar      1 RES1   0.0000
    74 Cl1     -4.7184   4.8823  11.4209   Cl        2 RES2   0.0000
    75 Cl2     -6.3730   2.4797  11.5580   Cl        2 RES2   0.0000
    76 C41     -5.4355   3.6506  12.4789   C.3       2 RES2   0.0000
    77 H27     -4.7305   3.1899  12.9610   H         2 RES2   0.0000
    78 H28     -6.0101   4.0819  13.1306   H         2 RES2   0.0000
    79 S1       2.1498   6.4785   4.6143   S.o2      3 RES3   0.0000
    80 O3       0.9827   7.3509   4.5797   O.3       3 RES3  -1.0000
    81 O4       1.9224   5.2764   5.4026   O.2       3 RES3   0.0000
    82 O5       2.7100   6.2054   3.3020   O.2       3 RES3   0.0000
    83 C42      3.4039   7.4201   5.4862   C.ar      3 RES3   0.0000
    84 C43      3.2039   8.7905   5.6558   C.ar      3 RES3   0.0000
    85 H29      2.4217   9.1812   5.3380   H         3 RES3   0.0000
    86 C44      4.1521   9.5792   6.2915   C.ar      3 RES3   0.0000
    87 H30      3.9988  10.4915   6.3863   H         3 RES3   0.0000
    88 C45      5.3173   9.0332   6.7830   C.ar      3 RES3   0.0000
    89 C46      6.3455   9.8209   7.4601   C.ar      3 RES3   0.0000
    90 H31      6.2349  10.7404   7.5415   H         3 RES3   0.0000
    91 C47      7.4182   9.2562   7.9542   C.ar      3 RES3   0.0000
    92 H32      8.0371   9.7920   8.3949   H         3 RES3   0.0000
    93 C48      7.6828   7.8639   7.8500   C.ar      3 RES3   0.0000
    94 C49      8.8443   7.2511   8.3762   C.ar      3 RES3   0.0000
    95 H33      9.4784   7.7765   8.8089   H         3 RES3   0.0000
    96 C50      9.0552   5.9067   8.2600   C.ar      3 RES3   0.0000
    97 H34      9.8203   5.5255   8.6246   H         3 RES3   0.0000
    98 C51      8.1380   5.1115   7.6043   C.ar      3 RES3   0.0000
    99 H35      8.2981   4.1979   7.5242   H         3 RES3   0.0000
   100 C52      6.9658   5.6589   7.0581   C.ar      3 RES3   0.0000
   101 C53      5.9967   4.8726   6.3610   C.ar      3 RES3   0.0000
   102 H36      6.1428   3.9598   6.2621   H         3 RES3   0.0000
   103 C54      4.8756   5.4184   5.8401   C.ar      3 RES3   0.0000
   104 H37      4.2784   4.8719   5.3820   H         3 RES3   0.0000
   105 C55      4.5752   6.8195   5.9750   C.ar      3 RES3   0.0000
   106 C56      5.5411   7.6321   6.6481   C.ar      3 RES3   0.0000
   107 C57      6.7242   7.0517   7.1836   C.ar      3 RES3   0.0000
   108 O6      -5.2790  -0.1338   7.4240   O.3       4 RES4   0.0000
   109 H38     -5.9479  -0.4175   7.8060   H         4 RES4   0.0000
   110 C58     -5.4842   1.2457   7.0594   C.3       4 RES4   0.0000
   111 H39     -4.6365   1.6589   6.8831   H         4 RES4   0.0000
   112 H40     -5.9210   1.7049   7.7806   H         4 RES4   0.0000
   113 H41     -6.0326   1.2908   6.2728   H         4 RES4   0.0000
@<TRIPOS>BOND
     1     1     2    1
     2     2     8    1
     3     3     1    1
     4     4     1    1
     5     5     1    1
     6     6     1    1
     7     7     1    1
     8     8     9   ar
     9     9    10    1
    10    11     9   ar
    11    12    11    1
    12    13    11   ar
    13    14    13   ar
    14    15    14    1
    15    16    14   ar
    16    17    16    1
    17    18    16   ar
    18    19    18    1
    19    20    18   ar
    20    21    20    1
    21    22    13   ar
    22    23     8   ar
    23    24     4    2
    24    25    24    1
    25    26     4    1
    26    27    26   ar
    27    28    27    1
    28    29    27   ar
    29    30    29    1
    30    31    29   ar
    31    32    31    1
    32    33    31   ar
    33    34    33   ar
    34    35    34    1
    35    36    34   ar
    36    37    36    1
    37    38     5   ar
    38    39    38    1
    39    40     5   ar
    40    41     3    1
    41    42    41   ar
    42    43    42    1
    43    44    42   ar
    44    45    44    1
    45    46    44   ar
    46    47    46   ar
    47    48    47    1
    48    49    47   ar
    49    50    49    1
    50    51    49   ar
    51    52    51    1
    52    53    51   ar
    53    54    53    1
    54    55    46   ar
    55    56    41   ar
    56    57     6    2
    57    58    57    1
    58    59     6    1
    59    60    59   ar
    60    61    60    1
    61    62    60   ar
    62    63    62    1
    63    64    62   ar
    64    65    64    1
    65    66    64   ar
    66    67    66   ar
    67    68    67    1
    68    69    67   ar
    69    70    69    1
    70    71     7   ar
    71    72    71    1
    72    73     7   ar
    73    20    22   ar
    74    22    23   ar
    75    23    24    1
    76    26    40   ar
    77    33    40   ar
    78    36    38   ar
    79    53    55   ar
    80    55    56   ar
    81    56    57    1
    82    59    73   ar
    83    66    73   ar
    84    69    71   ar
    85    74    76    1
    86    75    76    1
    87    76    77    1
    88    78    76    1
    89    79    80    1
    90    81    79    2
    91    82    79    2
    92    83    79    1
    93    84    83   ar
    94    85    84    1
    95    86    84   ar
    96    87    86    1
    97    88    86   ar
    98    89    88   ar
    99    90    89    1
   100    91    89   ar
   101    92    91    1
   102    93    91   ar
   103    94    93   ar
   104    95    94    1
   105    96    94   ar
   106    97    96    1
   107    98    96   ar
   108    99    98    1
   109   100    98   ar
   110   101   100   ar
   111   102   101    1
   112   103   101   ar
   113   104   103    1
   114   105    83   ar
   115   106    88   ar
   116   107    93   ar
   117   100   107   ar
   118   103   105   ar
   119   105   106   ar
   120   106   107   ar
   121   108   109    1
   122   110   108    1
   123   111   110    1
   124   112   110    1
   125   113   110    1
@<TRIPOS>SUBSTRUCTURE
     1 RES1        1 GROUP             0 ****  ****    0  
     2 RES2       74 GROUP             0 ****  ****    0  
     3 RES3       79 GROUP             0 ****  ****    0  
     4 RES4      108 GROUP             0 ****  ****    0  
@<TRIPOS>CRYSIN
   12.7600   13.5330   15.7930  114.0200  106.0600   99.0900     2     1
