@<TRIPOS>MOLECULE
RESZAT
    85    92     4     0     0
SMALL
USER_CHARGES
****
Generated from the CSD

@<TRIPOS>ATOM
     1 Fe1      6.1046  12.3174   8.5212   Fe        1 RES1   1.0000
     2 O1       7.5049  13.5795   8.5683   O.3       1 RES1   0.0000
     3 O2       4.7320  13.6055   8.4600   O.3       1 RES1   0.0000
     4 N1       5.8668  12.2740  10.4464   N.2       1 RES1   0.0000
     5 N2       4.7168  10.9199   8.5510   N.ar      1 RES1   0.0000
     6 N3       6.3267  12.2387   6.6008   N.2       1 RES1   0.0000
     7 N4       7.4661  10.8803   8.5093   N.ar      1 RES1   0.0000
     8 C1       8.0389  14.1250   9.6516   C.ar      1 RES1   0.0000
     9 C2       9.1228  15.0211   9.4781   C.ar      1 RES1   0.0000
    10 H1       9.4339  15.2086   8.6006   H         1 RES1   0.0000
    11 C3       9.7371  15.6280  10.5541   C.ar      1 RES1   0.0000
    12 H2      10.4721  16.2118  10.4081   H         1 RES1   0.0000
    13 C4       9.2879  15.3912  11.8596   C.ar      1 RES1   0.0000
    14 H3       9.7092  15.8160  12.5979   H         1 RES1   0.0000
    15 C5       8.2311  14.5377  12.0626   C.ar      1 RES1   0.0000
    16 H4       7.9188  14.3826  12.9459   H         1 RES1   0.0000
    17 C6       7.5967  13.8831  10.9742   C.ar      1 RES1   0.0000
    18 C7       6.5226  12.9949  11.3053   C.2       1 RES1   0.0000
    19 H5       6.2719  12.9285  12.2190   H         1 RES1   0.0000
    20 C8       4.8486  11.3738  10.8752   C.ar      1 RES1   0.0000
    21 C9       4.4013  11.1688  12.1591   C.ar      1 RES1   0.0000
    22 H6       4.7981  11.6380  12.8831   H         1 RES1   0.0000
    23 C10      3.3415  10.2529  12.3974   C.ar      1 RES1   0.0000
    24 H7       3.0318  10.1180  13.2848   H         1 RES1   0.0000
    25 C11      2.7591   9.5592  11.3677   C.ar      1 RES1   0.0000
    26 H8       2.0515   8.9511  11.5503   H         1 RES1   0.0000
    27 C12      3.1970   9.7380  10.0460   C.ar      1 RES1   0.0000
    28 C13      4.2494  10.6597   9.8080   C.ar      1 RES1   0.0000
    29 C14      2.6454   9.0869   8.9178   C.ar      1 RES1   0.0000
    30 H9       1.9465   8.4523   9.0308   H         1 RES1   0.0000
    31 C15      3.1154   9.3692   7.6694   C.ar      1 RES1   0.0000
    32 H10      2.7362   8.9443   6.9094   H         1 RES1   0.0000
    33 C16      4.1668  10.2957   7.5108   C.ar      1 RES1   0.0000
    34 H11      4.4917  10.4794   6.6378   H         1 RES1   0.0000
    35 C17      4.1562  14.0893   7.3720   C.ar      1 RES1   0.0000
    36 C18      3.0515  14.9686   7.5382   C.ar      1 RES1   0.0000
    37 H12      2.7556  15.1879   8.4134   H         1 RES1   0.0000
    38 C19      2.4040  15.5076   6.4461   C.ar      1 RES1   0.0000
    39 H13      1.6531  16.0730   6.5854   H         1 RES1   0.0000
    40 C20      2.8210  15.2432   5.1498   C.ar      1 RES1   0.0000
    41 H14      2.3683  15.6305   4.4104   H         1 RES1   0.0000
    42 C21      3.9042  14.4094   4.9479   C.ar      1 RES1   0.0000
    43 H15      4.2035  14.2369   4.0635   H         1 RES1   0.0000
    44 C22      4.5733  13.8067   6.0424   C.ar      1 RES1   0.0000
    45 C23      5.6548  12.9234   5.7245   C.2       1 RES1   0.0000
    46 H16      5.8972  12.8323   4.8109   H         1 RES1   0.0000
    47 C24      7.3153  11.3024   6.1767   C.ar      1 RES1   0.0000
    48 C25      7.7219  11.0451   4.8862   C.ar      1 RES1   0.0000
    49 H17      7.3274  11.5157   4.1616   H         1 RES1   0.0000
    50 C26      8.7197  10.0835   4.6431   C.ar      1 RES1   0.0000
    51 H18      8.9961   9.9201   3.7485   H         1 RES1   0.0000
    52 C27      9.3052   9.3746   5.6645   C.ar      1 RES1   0.0000
    53 H19      9.9783   8.7326   5.4750   H         1 RES1   0.0000
    54 C28      8.8997   9.6062   6.9987   C.ar      1 RES1   0.0000
    55 C29      7.9017  10.5826   7.2424   C.ar      1 RES1   0.0000
    56 C30      9.4104   8.9063   8.1236   C.ar      1 RES1   0.0000
    57 H20     10.0626   8.2255   8.0060   H         1 RES1   0.0000
    58 C31      8.9616   9.2149   9.3731   C.ar      1 RES1   0.0000
    59 H21      9.3029   8.7532  10.1296   H         1 RES1   0.0000
    60 C32      7.9828  10.2261   9.5382   C.ar      1 RES1   0.0000
    61 H22      7.6884  10.4423  10.4149   H         1 RES1   0.0000
    62 S1       2.3304   5.1376   9.3892   S.o2      2 RES2   0.0000
    63 O3       2.3513   3.8551  10.0540   O.2       2 RES2   0.0000
    64 O4       2.3807   5.0282   7.9308   O.3       2 RES2  -1.0000
    65 O5       1.2487   6.0176   9.8258   O.2       2 RES2   0.0000
    66 C33      3.8079   5.9920   9.8740   C.ar      2 RES2   0.0000
    67 C34      4.0086   6.2290  11.2297   C.ar      2 RES2   0.0000
    68 H23      3.3987   5.8808  11.8698   H         2 RES2   0.0000
    69 C35      5.0970   6.9726  11.6410   C.ar      2 RES2   0.0000
    70 H24      5.2306   7.1370  12.5671   H         2 RES2   0.0000
    71 C36      6.0003   7.4825  10.7127   C.ar      2 RES2   0.0000
    72 H25      6.7479   7.9918  11.0014   H         2 RES2   0.0000
    73 C37      5.7971   7.2388   9.3609   C.ar      2 RES2   0.0000
    74 H26      6.4073   7.5892   8.7227   H         2 RES2   0.0000
    75 C38      4.7106   6.4873   8.9338   C.ar      2 RES2   0.0000
    76 H27      4.5829   6.3124   8.0083   H         2 RES2   0.0000
    77 O6       9.5872   6.7850  11.7287   O.3       3 RES3   0.0000
    78 H28     10.2989   6.5694  11.2856   H         3 RES3   0.0000
    79 H29      9.9551   7.3665  12.2555   H         3 RES3   0.0000
    80 O7       8.0018   9.7830  12.7725   O.3       4 RES4   0.0000
    81 C39      7.0990   9.1189  13.6465   C.3       4 RES4   0.0000
    82 H30      7.3092   9.3552  14.5743   H         4 RES4   0.0000
    83 H31      7.1843   8.1499  13.5290   H         4 RES4   0.0000
    84 H32      6.1821   9.3937  13.4389   H         4 RES4   0.0000
    85 H33      8.7024   9.6479  13.0429   H         4 RES4   0.0000
@<TRIPOS>BOND
     1     1     2    1
     2     2     8    1
     3     3     1    1
     4     4     1    1
     5     5     1    1
     6     6     1    1
     7     7     1    1
     8     8     9   ar
     9     9    10    1
    10    11     9   ar
    11    12    11    1
    12    13    11   ar
    13    14    13    1
    14    15    13   ar
    15    16    15    1
    16    17     8   ar
    17    18     4    2
    18    19    18    1
    19    20     4    1
    20    21    20   ar
    21    22    21    1
    22    23    21   ar
    23    24    23    1
    24    25    23   ar
    25    26    25    1
    26    27    25   ar
    27    28     5   ar
    28    29    27   ar
    29    30    29    1
    30    31    29   ar
    31    32    31    1
    32    33     5   ar
    33    34    33    1
    34    35     3    1
    35    36    35   ar
    36    37    36    1
    37    38    36   ar
    38    39    38    1
    39    40    38   ar
    40    41    40    1
    41    42    40   ar
    42    43    42    1
    43    44    35   ar
    44    45     6    2
    45    46    45    1
    46    47     6    1
    47    48    47   ar
    48    49    48    1
    49    50    48   ar
    50    51    50    1
    51    52    50   ar
    52    53    52    1
    53    54    52   ar
    54    55     7   ar
    55    56    54   ar
    56    57    56    1
    57    58    56   ar
    58    59    58    1
    59    60     7   ar
    60    61    60    1
    61    15    17   ar
    62    17    18    1
    63    20    28   ar
    64    27    28   ar
    65    31    33   ar
    66    42    44   ar
    67    44    45    1
    68    47    55   ar
    69    54    55   ar
    70    58    60   ar
    71    62    63    2
    72    64    62    1
    73    65    62    2
    74    66    62    1
    75    67    66   ar
    76    68    67    1
    77    69    67   ar
    78    70    69    1
    79    71    69   ar
    80    72    71    1
    81    73    71   ar
    82    74    73    1
    83    75    66   ar
    84    76    75    1
    85    73    75   ar
    86    77    78    1
    87    79    77    1
    88    80    81    1
    89    81    82    1
    90    83    81    1
    91    84    81    1
    92    85    80    1
@<TRIPOS>SUBSTRUCTURE
     1 RES1        1 GROUP             0 ****  ****    0  
     2 RES2       62 GROUP             0 ****  ****    0  
     3 RES3       77 GROUP             0 ****  ****    0  
     4 RES4       80 GROUP             0 ****  ****    0  
@<TRIPOS>CRYSIN
   10.2890   13.7435   12.1897   90.0000  110.5890   90.0000     7     1
