@<TRIPOS>MOLECULE
REVCUS05
   117   122     7     0     0
SMALL
USER_CHARGES
****
Generated from the CSD

@<TRIPOS>ATOM
     1 C1      -1.6311   9.6711  10.1888   C.3       1 RES1   0.0000
     2 H1      -0.6962   9.4399  10.3724   H         1 RES1   0.0000
     3 H2      -2.0351   8.9770   9.6276   H         1 RES1   0.0000
     4 H3      -2.1232   9.7352  11.0332   H         1 RES1   0.0000
     5 O1      -1.2444  11.8176  10.0577   O.2       1 RES1   0.0000
     6 O2      -2.1542  10.9588   8.4039   O.2       1 RES1   0.0000
     7 N1      -1.6867  10.9362   9.5035   N.pl3     1 RES1   0.0000
     8 C2      -1.4719   3.7774  14.1645   C.2       2 RES2   0.0000
     9 H4      -1.6716   4.4657  13.5402   H         2 RES2   0.0000
    10 C3      -0.4321   3.8340  15.1063   C.2       2 RES2   0.0000
    11 H5       0.1871   4.5422  15.2343   H         2 RES2   0.0000
    12 C4      -0.4929   2.6549  15.8040   C.2       2 RES2   0.0000
    13 H6       0.0777   2.3857  16.5140   H         2 RES2   0.0000
    14 C5      -1.9872   0.6420  15.5462   C.ar      2 RES2   0.0000
    15 C6      -1.4824  -0.2426  16.4574   C.ar      2 RES2   0.0000
    16 H7      -0.7522  -0.0062  17.0175   H         2 RES2   0.0000
    17 C7      -2.0731  -1.5127  16.5416   C.ar      2 RES2   0.0000
    18 C8      -3.1702  -1.8093  15.7261   C.ar      2 RES2   0.0000
    19 H8      -3.6122  -2.6473  15.7885   H         2 RES2   0.0000
    20 C9      -3.5917  -0.8521  14.8303   C.ar      2 RES2   0.0000
    21 C10     -5.4222  -2.0265  13.5542   C.2       2 RES2   0.0000
    22 H9      -5.4448  -2.8800  13.9685   H         2 RES2   0.0000
    23 C11     -6.1740  -1.6189  12.4946   C.2       2 RES2   0.0000
    24 H10     -6.8225  -2.1307  12.0245   H         2 RES2   0.0000
    25 C12     -5.7991  -0.2988  12.2369   C.2       2 RES2   0.0000
    26 H11     -6.1677   0.2380  11.5455   H         2 RES2   0.0000
    27 C13     -1.5679  -2.5439  17.4507   C.2       2 RES2   0.0000
    28 H12     -2.0436  -3.3654  17.4983   H         2 RES2   0.0000
    29 C14     -0.4814  -2.4055  18.2168   C.2       2 RES2   0.0000
    30 H13     -0.0218  -1.5779  18.1451   H         2 RES2   0.0000
    31 C15      0.0814  -3.3790  19.1526   C.ar      2 RES2   0.0000
    32 C16      1.1263  -2.9642  19.9855   C.ar      2 RES2   0.0000
    33 H14      1.4432  -2.0708  19.9214   H         2 RES2   0.0000
    34 C17      1.7090  -3.8216  20.8988   C.ar      2 RES2   0.0000
    35 H15      2.4128  -3.5142  21.4581   H         2 RES2   0.0000
    36 C18      1.2663  -5.1291  20.9971   C.ar      2 RES2   0.0000
    37 H16      1.6709  -5.7262  21.6154   H         2 RES2   0.0000
    38 C19      0.2221  -5.5661  20.1817   C.ar      2 RES2   0.0000
    39 H17     -0.0897  -6.4611  20.2483   H         2 RES2   0.0000
    40 C20     -0.3619  -4.6994  19.2768   C.ar      2 RES2   0.0000
    41 H18     -1.0760  -5.0048  18.7308   H         2 RES2   0.0000
    42 C21     -1.6562   0.3257  11.3747   C.2       2 RES2   0.0000
    43 H19     -1.2273  -0.3417  11.8986   H         2 RES2   0.0000
    44 C22     -1.4047   0.5428  10.0089   C.2       2 RES2   0.0000
    45 H20     -0.7938   0.0678   9.4563   H         2 RES2   0.0000
    46 C23     -2.2146   1.5732   9.6407   C.2       2 RES2   0.0000
    47 H21     -2.2829   1.9582   8.7745   H         2 RES2   0.0000
    48 C24     -3.9554   2.8618  10.9346   C.ar      2 RES2   0.0000
    49 C25     -4.5152   3.6697   9.9645   C.ar      2 RES2   0.0000
    50 H22     -4.1735   3.6784   9.0787   H         2 RES2   0.0000
    51 C26     -5.5988   4.4741  10.3254   C.ar      2 RES2   0.0000
    52 C27     -6.0627   4.4480  11.6486   C.ar      2 RES2   0.0000
    53 H23     -6.7969   4.9844  11.9213   H         2 RES2   0.0000
    54 C28     -5.4229   3.6244  12.5367   C.ar      2 RES2   0.0000
    55 C29     -6.6199   4.0695  14.7116   C.2       2 RES2   0.0000
    56 H24     -7.2461   4.7389  14.4633   H         2 RES2   0.0000
    57 C30     -6.4396   3.5424  15.9621   C.2       2 RES2   0.0000
    58 H25     -6.9170   3.7721  16.7500   H         2 RES2   0.0000
    59 C31     -5.4067   2.5971  15.8505   C.2       2 RES2   0.0000
    60 H26     -5.0685   2.0796  16.5717   H         2 RES2   0.0000
    61 C32     -6.2184   5.2947   9.2761   C.2       2 RES2   0.0000
    62 H27     -5.8258   5.2595   8.4126   H         2 RES2   0.0000
    63 C33     -7.2773   6.0796   9.4268   C.2       2 RES2   0.0000
    64 H28     -7.6688   6.1279  10.2902   H         2 RES2   0.0000
    65 C34     -7.8903   6.8814   8.3542   C.ar      2 RES2   0.0000
    66 C35     -7.6181   6.6820   7.0023   C.ar      2 RES2   0.0000
    67 H29     -7.0118   5.9999   6.7395   H         2 RES2   0.0000
    68 C36     -8.2245   7.4719   6.0385   C.ar      2 RES2   0.0000
    69 H30     -8.0336   7.3239   5.1206   H         2 RES2   0.0000
    70 C37     -9.1014   8.4703   6.4000   C.ar      2 RES2   0.0000
    71 H31     -9.5093   9.0136   5.7360   H         2 RES2   0.0000
    72 C38     -9.3857   8.6752   7.7413   C.ar      2 RES2   0.0000
    73 H32     -9.9841   9.3676   7.9965   H         2 RES2   0.0000
    74 C39     -8.8022   7.8772   8.7156   C.ar      2 RES2   0.0000
    75 H33     -9.0237   8.0087   9.6294   H         2 RES2   0.0000
    76 N2      -2.1403   2.6317  14.2616   N.2       2 RES2   0.0000
    77 N3      -1.5272   1.9464  15.2827   N.pl3     2 RES2   0.0000
    78 N4      -3.0139   0.3497  14.7227   N.ar      2 RES2   0.0000
    79 N5      -4.6368  -0.9789  13.9053   N.pl3     2 RES2   0.0000
    80 N6      -4.8647   0.1081  13.0824   N.2       2 RES2   0.0000
    81 N7      -2.5690   1.1682  11.8397   N.2       2 RES2   0.0000
    82 N8      -2.9073   1.9441  10.7483   N.pl3     2 RES2   0.0000
    83 N9      -4.3833   2.8383  12.2028   N.ar      2 RES2   0.0000
    84 N10     -5.7306   3.4475  13.8958   N.pl3     2 RES2   0.0000
    85 N11     -4.9692   2.5247  14.5939   N.2       2 RES2   0.0000
    86 Fe1     -3.6456   1.6131  13.4532   Fe        2 RES2   2.0000
    87 C40     -3.9466   6.8561  15.4511   C.3       3 RES3   0.0000
    88 H34     -4.3195   7.7390  15.6591   H         3 RES3   0.0000
    89 H35     -4.6161   6.1667  15.6381   H         3 RES3   0.0000
    90 H36     -3.6976   6.8213  14.5035   H         3 RES3   0.0000
    91 N12     -2.7527   6.6208  16.2803   N.pl3     3 RES3   0.0000
    92 O3      -1.9264   7.5037  16.3974   O.2       3 RES3   0.0000
    93 O4      -2.6334   5.5375  16.8241   O.2       3 RES3   0.0000
    94 C41     -0.1982   7.4617  13.9206   C.3       4 RES4   0.0000
    95 H37     -0.9025   6.7866  13.8182   H         4 RES4   0.0000
    96 H38     -0.5890   8.3557  13.8339   H         4 RES4   0.0000
    97 H39      0.2154   7.3694  14.8042   H         4 RES4   0.0000
    98 N13      0.8240   7.2676  12.8775   N.pl3     4 RES4   0.0000
    99 O5       1.1017   8.2230  12.1754   O.2       4 RES4   0.0000
   100 O6       1.3397   6.1615  12.7817   O.2       4 RES4   0.0000
   101 C42     -6.2314   8.6029  11.8252   C.3       5 RES5   0.0000
   102 H40     -6.3747   8.2718  12.7360   H         5 RES5   0.0000
   103 H41     -5.7782   7.9134  11.2955   H         5 RES5   0.0000
   104 H42     -7.0953   8.8157  11.4143   H         5 RES5   0.0000
   105 N14     -5.3954   9.8164  11.8687   N.pl3     5 RES5   0.0000
   106 O7      -4.8626  10.1899  10.8352   O.2       5 RES5   0.0000
   107 O8      -5.2846  10.4112  12.9345   O.2       5 RES5   0.0000
   108 B1      -2.8935   6.8941  11.6591   B         6 RES6  -1.0000
   109 F1      -3.0666   8.0177  12.4577   F         6 RES6   0.0000
   110 F2      -1.5782   6.8087  11.2360   F         6 RES6   0.0000
   111 F3      -3.7386   6.9850  10.5446   F         6 RES6   0.0000
   112 F4      -3.2165   5.7602  12.3984   F         6 RES6   0.0000
   113 B2       0.3449   3.1783   1.6416   B         7 RES7  -1.0000
   114 F5      -0.4143   3.4999   2.7621   F         7 RES7   0.0000
   115 F6      -0.4984   2.8912   0.5617   F         7 RES7   0.0000
   116 F7       1.1045   2.0399   1.9383   F         7 RES7   0.0000
   117 F8       1.1862   4.2320   1.3142   F         7 RES7   0.0000
@<TRIPOS>BOND
     1     1     2    1
     2     3     1    1
     3     4     1    1
     4     5     7    2
     5     6     7    2
     6     7     1    1
     7     8     9    1
     8    10     8    1
     9    11    10    1
    10    12    10    2
    11    13    12    1
    12    14    15   ar
    13    15    16    1
    14    17    15   ar
    15    18    17   ar
    16    19    18    1
    17    20    18   ar
    18    21    22    1
    19    23    21    2
    20    24    23    1
    21    25    23    1
    22    26    25    1
    23    27    17    1
    24    28    27    1
    25    29    27    2
    26    30    29    1
    27    31    29    1
    28    32    31   ar
    29    33    32    1
    30    34    32   ar
    31    35    34    1
    32    36    34   ar
    33    37    36    1
    34    38    36   ar
    35    39    38    1
    36    40    31   ar
    37    41    40    1
    38    42    43    1
    39    44    42    1
    40    45    44    1
    41    46    44    2
    42    47    46    1
    43    48    49   ar
    44    49    50    1
    45    51    49   ar
    46    52    51   ar
    47    53    52    1
    48    54    52   ar
    49    55    56    1
    50    57    55    2
    51    58    57    1
    52    59    57    1
    53    60    59    1
    54    61    51    1
    55    62    61    1
    56    63    61    2
    57    64    63    1
    58    65    63    1
    59    66    65   ar
    60    67    66    1
    61    68    66   ar
    62    69    68    1
    63    70    68   ar
    64    71    70    1
    65    72    70   ar
    66    73    72    1
    67    74    65   ar
    68    75    74    1
    69    76     8    2
    70    77    12    1
    71    78    14   ar
    72    79    20    1
    73    80    25    2
    74    81    42    2
    75    82    46    1
    76    83    48   ar
    77    84    54    1
    78    85    59    2
    79    86    76    1
    80    14    77    1
    81    20    78   ar
    82    21    79    1
    83    38    40   ar
    84    48    82    1
    85    54    83   ar
    86    55    84    1
    87    72    74   ar
    88    76    77    1
    89    78    86    1
    90    79    80    1
    91    80    86    1
    92    81    82    1
    93    81    86    1
    94    83    86    1
    95    84    85    1
    96    85    86    1
    97    87    88    1
    98    89    87    1
    99    90    87    1
   100    91    87    1
   101    92    91    2
   102    93    91    2
   103    94    95    1
   104    96    94    1
   105    97    94    1
   106    98    94    1
   107    99    98    2
   108   100    98    2
   109   101   102    1
   110   103   101    1
   111   104   101    1
   112   105   101    1
   113   106   105    2
   114   107   105    2
   115   108   109    1
   116   110   108    1
   117   111   108    1
   118   112   108    1
   119   113   114    1
   120   115   113    1
   121   116   113    1
   122   117   113    1
@<TRIPOS>SUBSTRUCTURE
     1 RES1        1 GROUP             0 ****  ****    0  
     2 RES2        8 GROUP             0 ****  ****    0  
     3 RES3       87 GROUP             0 ****  ****    0  
     4 RES4       94 GROUP             0 ****  ****    0  
     5 RES5      101 GROUP             0 ****  ****    0  
     6 RES6      108 GROUP             0 ****  ****    0  
     7 RES7      113 GROUP             0 ****  ****    0  
@<TRIPOS>CRYSIN
   10.4920   13.4962   18.1159   94.7820  102.8200  103.6160     2     1
