@<TRIPOS>MOLECULE
REVCUS
   117   122     7     0     0
SMALL
USER_CHARGES
****
Generated from the CSD

@<TRIPOS>ATOM
     1 C1      -2.2431  10.4995  10.6923   C.3       1 RES1   0.0000
     2 H1      -1.4835   9.9046  10.7939   H         1 RES1   0.0000
     3 H2      -3.0506   9.9764  10.5710   H         1 RES1   0.0000
     4 H3      -2.3305  11.0496  11.4877   H         1 RES1   0.0000
     5 O1      -1.0017  12.0249   9.5490   O.2       1 RES1   0.0000
     6 O2      -2.3071  10.8642   8.4486   O.2       1 RES1   0.0000
     7 N1      -2.0512  11.3040   9.5990   N.pl3     1 RES1   0.0000
     8 C2      -1.4520   3.9335  14.6357   C.2       2 RES2   0.0000
     9 H4      -1.5967   4.6265  14.0186   H         2 RES2   0.0000
    10 C3      -0.5040   3.9792  15.6541   C.2       2 RES2   0.0000
    11 H5       0.0865   4.6834  15.8520   H         2 RES2   0.0000
    12 C4      -0.6145   2.7821  16.3086   C.2       2 RES2   0.0000
    13 H6      -0.1082   2.5005  17.0488   H         2 RES2   0.0000
    14 C5      -2.0670   0.7836  15.9269   C.ar      2 RES2   0.0000
    15 C6      -1.5390  -0.0924  16.8365   C.ar      2 RES2   0.0000
    16 H7      -0.8072   0.1547  17.3716   H         2 RES2   0.0000
    17 C7      -2.1093  -1.3633  16.9507   C.ar      2 RES2   0.0000
    18 C8      -3.1938  -1.6934  16.1374   C.ar      2 RES2   0.0000
    19 H8      -3.6059  -2.5364  16.1980   H         2 RES2   0.0000
    20 C9      -3.6421  -0.7422  15.2421   C.ar      2 RES2   0.0000
    21 C10     -5.4110  -2.0551  14.0667   C.2       2 RES2   0.0000
    22 H9      -5.3751  -2.8694  14.5358   H         2 RES2   0.0000
    23 C11     -6.2047  -1.7704  13.0002   C.2       2 RES2   0.0000
    24 H10     -6.8286  -2.3388  12.5864   H         2 RES2   0.0000
    25 C12     -5.8961  -0.4532  12.6542   C.2       2 RES2   0.0000
    26 H11     -6.2923   0.0073  11.9372   H         2 RES2   0.0000
    27 C13     -1.6167  -2.3903  17.8870   C.2       2 RES2   0.0000
    28 H12     -2.0588  -3.2197  17.9049   H         2 RES2   0.0000
    29 C14     -0.5843  -2.2160  18.7039   C.2       2 RES2   0.0000
    30 H13     -0.1584  -1.3789  18.6682   H         2 RES2   0.0000
    31 C15     -0.0406  -3.1866  19.6563   C.ar      2 RES2   0.0000
    32 C16      0.9543  -2.7782  20.5302   C.ar      2 RES2   0.0000
    33 H14      1.2589  -1.8898  20.4981   H         2 RES2   0.0000
    34 C17      1.5029  -3.6436  21.4398   C.ar      2 RES2   0.0000
    35 H15      2.1849  -3.3417  22.0124   H         2 RES2   0.0000
    36 C18      1.0717  -4.9426  21.5254   C.ar      2 RES2   0.0000
    37 H16      1.4468  -5.5297  22.1550   H         2 RES2   0.0000
    38 C19      0.0707  -5.3731  20.6676   C.ar      2 RES2   0.0000
    39 H17     -0.2337  -6.2607  20.7139   H         2 RES2   0.0000
    40 C20     -0.4778  -4.5129  19.7473   C.ar      2 RES2   0.0000
    41 H18     -1.1563  -4.8186  19.1730   H         2 RES2   0.0000
    42 C21     -1.8629   0.7374  11.2594   C.2       2 RES2   0.0000
    43 H19     -1.3542   0.0899  11.7125   H         2 RES2   0.0000
    44 C22     -1.7511   1.0094   9.8950   C.2       2 RES2   0.0000
    45 H20     -1.1741   0.5891   9.2833   H         2 RES2   0.0000
    46 C23     -2.6191   1.9775   9.6293   C.2       2 RES2   0.0000
    47 H21     -2.7738   2.3718   8.7892   H         2 RES2   0.0000
    48 C24     -4.3024   3.1689  11.0829   C.ar      2 RES2   0.0000
    49 C25     -4.8807   3.9747  10.1322   C.ar      2 RES2   0.0000
    50 H22     -4.5631   3.9858   9.2476   H         2 RES2   0.0000
    51 C26     -5.9377   4.7650  10.5139   C.ar      2 RES2   0.0000
    52 C27     -6.3616   4.7497  11.8551   C.ar      2 RES2   0.0000
    53 H23     -7.0705   5.2930  12.1459   H         2 RES2   0.0000
    54 C28     -5.6975   3.9077  12.7273   C.ar      2 RES2   0.0000
    55 C29     -6.9424   4.3720  14.8657   C.2       2 RES2   0.0000
    56 H24     -7.5666   5.0124  14.5786   H         2 RES2   0.0000
    57 C30     -6.8058   3.8974  16.1053   C.2       2 RES2   0.0000
    58 H25     -7.3145   4.1441  16.8562   H         2 RES2   0.0000
    59 C31     -5.7559   2.9610  16.0785   C.2       2 RES2   0.0000
    60 H26     -5.4475   2.4709  16.8187   H         2 RES2   0.0000
    61 C32     -6.5853   5.5769   9.4456   C.2       2 RES2   0.0000
    62 H27     -6.2185   5.5229   8.5824   H         2 RES2   0.0000
    63 C33     -7.5991   6.3423   9.6025   C.2       2 RES2   0.0000
    64 H28     -7.9558   6.4197  10.4693   H         2 RES2   0.0000
    65 C34     -8.2503   7.1136   8.5199   C.ar      2 RES2   0.0000
    66 C35     -7.9767   6.9488   7.1448   C.ar      2 RES2   0.0000
    67 H29     -7.3407   6.3146   6.8684   H         2 RES2   0.0000
    68 C36     -8.6375   7.7145   6.1960   C.ar      2 RES2   0.0000
    69 H30     -8.4540   7.5942   5.2810   H         2 RES2   0.0000
    70 C37     -9.5512   8.6399   6.5902   C.ar      2 RES2   0.0000
    71 H31     -9.9983   9.1633   5.9499   H         2 RES2   0.0000
    72 C38     -9.8197   8.8074   7.9242   C.ar      2 RES2   0.0000
    73 H32    -10.4472   9.4532   8.1935   H         2 RES2   0.0000
    74 C39     -9.1801   8.0406   8.8820   C.ar      2 RES2   0.0000
    75 H33     -9.3886   8.1602   9.7916   H         2 RES2   0.0000
    76 N2      -2.1237   2.7933  14.6446   N.2       2 RES2   0.0000
    77 N3      -1.5892   2.0826  15.6897   N.pl3     2 RES2   0.0000
    78 N4      -3.0901   0.4642  15.1235   N.ar      2 RES2   0.0000
    79 N5      -4.6839  -0.9472  14.3253   N.pl3     2 RES2   0.0000
    80 N6      -4.9813   0.0651  13.4496   N.2       2 RES2   0.0000
    81 N7      -2.7853   1.5148  11.8409   N.2       2 RES2   0.0000
    82 N8      -3.2515   2.2953  10.8100   N.pl3     2 RES2   0.0000
    83 N9      -4.6972   3.1301  12.3706   N.ar      2 RES2   0.0000
    84 N10     -6.0051   3.7520  14.0970   N.pl3     2 RES2   0.0000
    85 N11     -5.2662   2.8751  14.8408   N.2       2 RES2   0.0000
    86 Fe1     -3.7847   1.8257  13.7072   Fe        2 RES2   2.0000
    87 C40     -4.2698   7.1455  15.5328   C.3       3 RES3   0.0000
    88 H34     -4.3712   8.1015  15.4008   H         3 RES3   0.0000
    89 H35     -5.0928   6.7788  15.8895   H         3 RES3   0.0000
    90 H36     -4.0691   6.7232  14.6838   H         3 RES3   0.0000
    91 N12     -3.1940   6.9009  16.4566   N.pl3     3 RES3   0.0000
    92 O3      -2.3358   7.6509  16.6493   O.2       3 RES3   0.0000
    93 O4      -3.2083   5.8465  17.0755   O.2       3 RES3   0.0000
    94 C41     -0.2860   7.7135  14.2290   C.3       4 RES4   0.0000
    95 H37     -0.9168   6.9858  14.3414   H         4 RES4   0.0000
    96 H38     -0.7556   8.5063  13.9240   H         4 RES4   0.0000
    97 H39      0.1473   7.8998  15.0762   H         4 RES4   0.0000
    98 N13      0.7250   7.3340  13.2356   N.pl3     4 RES4   0.0000
    99 O5       1.1357   8.1955  12.5079   O.2       4 RES4   0.0000
   100 O6       1.0686   6.1884  13.2142   O.2       4 RES4   0.0000
   101 C42     -6.3757   8.7858  12.1780   C.3       5 RES5   0.0000
   102 H40     -6.7271   8.5351  13.0465   H         5 RES5   0.0000
   103 H41     -5.7270   8.1240  11.8890   H         5 RES5   0.0000
   104 H42     -7.1009   8.8289  11.5359   H         5 RES5   0.0000
   105 N14     -5.7434  10.0627  12.2707   N.pl3     5 RES5   0.0000
   106 O7      -5.3024  10.5514  11.2577   O.2       5 RES5   0.0000
   107 O8      -5.5662  10.5833  13.2713   O.2       5 RES5   0.0000
   108 B1      -2.9144   7.1076  11.7838   B         6 RES6  -1.0000
   109 F1      -3.0723   8.2336  12.6024   F         6 RES6   0.0000
   110 F2      -1.6680   7.1613  11.2933   F         6 RES6   0.0000
   111 F3      -3.8292   7.1507  10.7975   F         6 RES6   0.0000
   112 F4      -3.0779   6.0407  12.5489   F         6 RES6   0.0000
   113 B2       0.2284   3.2607   1.4768   B         7 RES7  -1.0000
   114 F5      -0.3787   3.5687   2.6716   F         7 RES7   0.0000
   115 F6      -0.7198   3.0071   0.5154   F         7 RES7   0.0000
   116 F7       0.9651   2.1100   1.6569   F         7 RES7   0.0000
   117 F8       1.0231   4.2896   1.0826   F         7 RES7   0.0000
@<TRIPOS>BOND
     1     1     2    1
     2     3     1    1
     3     4     1    1
     4     5     7    2
     5     6     7    2
     6     7     1    1
     7     8     9    1
     8    10     8    1
     9    11    10    1
    10    12    10    2
    11    13    12    1
    12    14    15   ar
    13    15    16    1
    14    17    15   ar
    15    18    17   ar
    16    19    18    1
    17    20    18   ar
    18    21    22    1
    19    23    21    2
    20    24    23    1
    21    25    23    1
    22    26    25    1
    23    27    17    1
    24    28    27    1
    25    29    27    2
    26    30    29    1
    27    31    29    1
    28    32    31   ar
    29    33    32    1
    30    34    32   ar
    31    35    34    1
    32    36    34   ar
    33    37    36    1
    34    38    36   ar
    35    39    38    1
    36    40    31   ar
    37    41    40    1
    38    42    43    1
    39    44    42    1
    40    45    44    1
    41    46    44    2
    42    47    46    1
    43    48    49   ar
    44    49    50    1
    45    51    49   ar
    46    52    51   ar
    47    53    52    1
    48    54    52   ar
    49    55    56    1
    50    57    55    2
    51    58    57    1
    52    59    57    1
    53    60    59    1
    54    61    51    1
    55    62    61    1
    56    63    61    2
    57    64    63    1
    58    65    63    1
    59    66    65   ar
    60    67    66    1
    61    68    66   ar
    62    69    68    1
    63    70    68   ar
    64    71    70    1
    65    72    70   ar
    66    73    72    1
    67    74    65   ar
    68    75    74    1
    69    76     8    2
    70    77    12    1
    71    78    14   ar
    72    79    20    1
    73    80    25    2
    74    81    42    2
    75    82    46    1
    76    83    48   ar
    77    84    54    1
    78    85    59    2
    79    86    76    1
    80    14    77    1
    81    20    78   ar
    82    21    79    1
    83    38    40   ar
    84    48    82    1
    85    54    83   ar
    86    55    84    1
    87    72    74   ar
    88    76    77    1
    89    78    86    1
    90    79    80    1
    91    80    86    1
    92    81    82    1
    93    81    86    1
    94    83    86    1
    95    84    85    1
    96    85    86    1
    97    87    88    1
    98    89    87    1
    99    90    87    1
   100    91    87    1
   101    92    91    2
   102    93    91    2
   103    94    95    1
   104    96    94    1
   105    97    94    1
   106    98    94    1
   107    99    98    2
   108   100    98    2
   109   101   102    1
   110   103   101    1
   111   104   101    1
   112   105   101    1
   113   106   105    2
   114   107   105    2
   115   108   109    1
   116   110   108    1
   117   111   108    1
   118   112   108    1
   119   113   114    1
   120   115   113    1
   121   116   113    1
   122   117   113    1
@<TRIPOS>SUBSTRUCTURE
     1 RES1        1 GROUP             0 ****  ****    0  
     2 RES2        8 GROUP             0 ****  ****    0  
     3 RES3       87 GROUP             0 ****  ****    0  
     4 RES4       94 GROUP             0 ****  ****    0  
     5 RES5      101 GROUP             0 ****  ****    0  
     6 RES6      108 GROUP             0 ****  ****    0  
     7 RES7      113 GROUP             0 ****  ****    0  
@<TRIPOS>CRYSIN
   10.6090   13.7073   18.4848   93.7440  103.3120  104.4080     2     1
