@<TRIPOS>MOLECULE
REVFEF
    99   107     4     0     0
SMALL
USER_CHARGES
****
Generated from the CSD

@<TRIPOS>ATOM
     1 C1       4.1534   4.1115   4.0070   C.2       1 RES1   0.0000
     2 H1       4.2220   4.3411   4.9269   H         1 RES1   0.0000
     3 C2       4.5642   4.9268   2.9436   C.2       1 RES1   0.0000
     4 H2       4.9554   5.7904   3.0061   H         1 RES1   0.0000
     5 C3       4.2910   4.2330   1.8043   C.2       1 RES1   0.0000
     6 H3       4.4553   4.5208   0.9131   H         1 RES1   0.0000
     7 C4       3.1678   2.0276   1.4126   C.ar      1 RES1   0.0000
     8 C5       3.1645   2.0102   0.0354   C.ar      1 RES1   0.0000
     9 H4       3.5909   2.6972  -0.4642   H         1 RES1   0.0000
    10 C6       2.5149   0.9514  -0.6064   C.ar      1 RES1   0.0000
    11 C7       1.8941  -0.0408   0.1737   C.ar      1 RES1   0.0000
    12 H5       1.4105  -0.7537  -0.2262   H         1 RES1   0.0000
    13 C8       2.0157   0.0654   1.5365   C.ar      1 RES1   0.0000
    14 C9       1.0208  -2.1364   2.2162   C.2       1 RES1   0.0000
    15 H6       0.9032  -2.5508   1.3705   H         1 RES1   0.0000
    16 C10      0.7377  -2.6839   3.4382   C.2       1 RES1   0.0000
    17 H7       0.3825  -3.5474   3.6120   H         1 RES1   0.0000
    18 C11      1.0795  -1.7105   4.3716   C.2       1 RES1   0.0000
    19 H8       0.9880  -1.8120   5.3117   H         1 RES1   0.0000
    20 C12      2.5204   0.8869  -2.0690   C.2       1 RES1   0.0000
    21 H9       2.6715   1.6955  -2.5436   H         1 RES1   0.0000
    22 C13      2.3314  -0.2130  -2.7797   C.2       1 RES1   0.0000
    23 H10      2.1367  -1.0083  -2.2972   H         1 RES1   0.0000
    24 C14      2.3924  -0.3261  -4.2416   C.ar      1 RES1   0.0000
    25 C15      2.2444   0.7704  -5.0940   C.ar      1 RES1   0.0000
    26 H11      2.1077   1.6373  -4.7294   H         1 RES1   0.0000
    27 C16      2.2935   0.6007  -6.4696   C.ar      1 RES1   0.0000
    28 H12      2.1649   1.3478  -7.0418   H         1 RES1   0.0000
    29 C17      2.5279  -0.6456  -7.0080   C.ar      1 RES1   0.0000
    30 H13      2.5808  -0.7571  -7.9515   H         1 RES1   0.0000
    31 C18      2.6836  -1.7188  -6.1826   C.ar      1 RES1   0.0000
    32 H14      2.8443  -2.5774  -6.5557   H         1 RES1   0.0000
    33 C19      2.6097  -1.5757  -4.8121   C.ar      1 RES1   0.0000
    34 H15      2.7076  -2.3378  -4.2534   H         1 RES1   0.0000
    35 C20      0.6732   3.2513   5.4434   C.2       1 RES1   0.0000
    36 H16      0.4240   3.6706   4.6281   H         1 RES1   0.0000
    37 C21      0.1838   3.6206   6.7008   C.2       1 RES1   0.0000
    38 H17     -0.4341   4.3145   6.8966   H         1 RES1   0.0000
    39 C22      0.7829   2.7770   7.5826   C.2       1 RES1   0.0000
    40 H18      0.6582   2.7671   8.5237   H         1 RES1   0.0000
    41 C23      2.5242   0.9983   7.2980   C.ar      1 RES1   0.0000
    42 C24      2.7250   0.6651   8.6213   C.ar      1 RES1   0.0000
    43 H19      2.1909   1.0483   9.3086   H         1 RES1   0.0000
    44 C25      3.7343  -0.2511   8.9229   C.ar      1 RES1   0.0000
    45 C26      4.4917  -0.7890   7.8665   C.ar      1 RES1   0.0000
    46 H20      5.2004  -1.3993   8.0342   H         1 RES1   0.0000
    47 C27      4.1754  -0.4030   6.5756   C.ar      1 RES1   0.0000
    48 C28      5.6998  -1.9268   5.2881   C.2       1 RES1   0.0000
    49 H21      6.0396  -2.4825   5.9801   H         1 RES1   0.0000
    50 C29      5.9928  -2.0200   3.9564   C.2       1 RES1   0.0000
    51 H22      6.5742  -2.6423   3.5361   H         1 RES1   0.0000
    52 C30      5.2512  -1.0017   3.3420   C.2       1 RES1   0.0000
    53 H23      5.2511  -0.8270   2.4086   H         1 RES1   0.0000
    54 C31      4.0566  -0.6622  10.2923   C.2       1 RES1   0.0000
    55 H24      4.8371  -1.1880  10.4192   H         1 RES1   0.0000
    56 C32      3.3406  -0.3544  11.3708   C.2       1 RES1   0.0000
    57 H25      2.5520   0.1581  11.2378   H         1 RES1   0.0000
    58 C33      3.6662  -0.7371  12.7469   C.ar      1 RES1   0.0000
    59 C34      3.0834  -0.0316  13.7949   C.ar      1 RES1   0.0000
    60 H26      2.4620   0.6606  13.6008   H         1 RES1   0.0000
    61 C35      3.3907  -0.3145  15.1030   C.ar      1 RES1   0.0000
    62 H27      2.9958   0.1913  15.8035   H         1 RES1   0.0000
    63 C36      4.2723  -1.3344  15.4034   C.ar      1 RES1   0.0000
    64 H28      4.4760  -1.5408  16.3081   H         1 RES1   0.0000
    65 C37      4.8501  -2.0416  14.3840   C.ar      1 RES1   0.0000
    66 H29      5.4562  -2.7438  14.5882   H         1 RES1   0.0000
    67 C38      4.5617  -1.7521  13.0624   C.ar      1 RES1   0.0000
    68 H30      4.9783  -2.2479  12.3670   H         1 RES1   0.0000
    69 N1       3.6488   2.9624   3.5425   N.2       1 RES1   0.0000
    70 N2       3.7415   3.0544   2.1831   N.pl3     1 RES1   0.0000
    71 N3       2.6303   1.0597   2.1586   N.ar      1 RES1   0.0000
    72 N4       1.5000  -0.8923   2.4444   N.pl3     1 RES1   0.0000
    73 N5       1.5514  -0.6143   3.7741   N.2       1 RES1   0.0000
    74 N6       1.5240   2.2461   5.5359   N.2       1 RES1   0.0000
    75 N7       1.5886   1.9544   6.8716   N.pl3     1 RES1   0.0000
    76 N8       3.2146   0.4654   6.2839   N.ar      1 RES1   0.0000
    77 N9       4.8375  -0.8935   5.4369   N.pl3     1 RES1   0.0000
    78 N10      4.5500  -0.3118   4.2300   N.2       1 RES1   0.0000
    79 Fe1      2.8432   1.0834   4.2762   Fe        1 RES1   2.0000
    80 C39      4.1623  12.3428   1.1106   C.3       2 RES2   0.0000
    81 H31      3.8625  12.7505   1.9495   H         2 RES2   0.0000
    82 H32      5.0618  11.9718   1.2288   H         2 RES2   0.0000
    83 H33      3.5436  11.6257   0.8574   H         2 RES2   0.0000
    84 C40      4.1881  13.3445   0.0709   C.2       2 RES2   0.0000
    85 C41      4.4305  12.8969  -1.3689   C.3       2 RES2   0.0000
    86 H34      4.0942  13.5808  -1.9849   H         2 RES2   0.0000
    87 H35      3.9616  12.0516  -1.5309   H         2 RES2   0.0000
    88 H36      5.3920  12.7704  -1.5140   H         2 RES2   0.0000
    89 O1       4.0332  14.5275   0.3494   O.2       2 RES2   0.0000
    90 B1       5.2630   3.6972   7.4536   B         3 RES3  -1.0000
    91 F1       3.9350   4.0350   7.3049   F         3 RES3   0.0000
    92 F2       6.0406   4.6207   6.9692   F         3 RES3   0.0000
    93 F3       5.5564   3.4043   8.7546   F         3 RES3   0.0000
    94 F4       5.4498   2.5824   6.6671   F         3 RES3   0.0000
    95 B2      -0.3101   3.8702   1.5528   B         4 RES4  -1.0000
    96 F5      -0.8266   4.6855   0.6026   F         4 RES4   0.0000
    97 F6      -1.1168   3.8469   2.6160   F         4 RES4   0.0000
    98 F7       0.9451   4.2992   1.8980   F         4 RES4   0.0000
    99 F8      -0.2205   2.6439   1.0077   F         4 RES4   0.0000
@<TRIPOS>BOND
     1     1     2    1
     2     3     1    1
     3     4     3    1
     4     5     3    2
     5     6     5    1
     6     7     8   ar
     7     8     9    1
     8    10     8   ar
     9    11    10   ar
    10    12    11    1
    11    13    11   ar
    12    14    15    1
    13    16    14    2
    14    17    16    1
    15    18    16    1
    16    19    18    1
    17    20    10    1
    18    21    20    1
    19    22    20    2
    20    23    22    1
    21    24    22    1
    22    25    24   ar
    23    26    25    1
    24    27    25   ar
    25    28    27    1
    26    29    27   ar
    27    30    29    1
    28    31    29   ar
    29    32    31    1
    30    33    24   ar
    31    34    33    1
    32    35    36    1
    33    37    35    1
    34    38    37    1
    35    39    37    2
    36    40    39    1
    37    41    42   ar
    38    42    43    1
    39    44    42   ar
    40    45    44   ar
    41    46    45    1
    42    47    45   ar
    43    48    49    1
    44    50    48    2
    45    51    50    1
    46    52    50    1
    47    53    52    1
    48    54    44    1
    49    55    54    1
    50    56    54    2
    51    57    56    1
    52    58    56    1
    53    59    58   ar
    54    60    59    1
    55    61    59   ar
    56    62    61    1
    57    63    61   ar
    58    64    63    1
    59    65    63   ar
    60    66    65    1
    61    67    58   ar
    62    68    67    1
    63    69     1    2
    64    70     5    1
    65    71     7   ar
    66    72    13    1
    67    73    18    2
    68    74    35    2
    69    75    39    1
    70    76    41   ar
    71    77    47    1
    72    78    52    2
    73    79    69    1
    74     7    70    1
    75    13    71   ar
    76    14    72    1
    77    31    33   ar
    78    41    75    1
    79    47    76   ar
    80    48    77    1
    81    65    67   ar
    82    69    70    1
    83    71    79    1
    84    72    73    1
    85    73    79    1
    86    74    75    1
    87    74    79    1
    88    76    79    1
    89    77    78    1
    90    78    79    1
    91    80    81    1
    92    82    80    1
    93    83    80    1
    94    84    80    1
    95    85    84    1
    96    86    85    1
    97    87    85    1
    98    88    85    1
    99    89    84    2
   100    90    91    1
   101    92    90    1
   102    93    90    1
   103    94    90    1
   104    95    96    1
   105    97    95    1
   106    98    95    1
   107    99    95    1
@<TRIPOS>SUBSTRUCTURE
     1 RES1        1 GROUP             0 ****  ****    0  
     2 RES2       80 GROUP             0 ****  ****    0  
     3 RES3       90 GROUP             0 ****  ****    0  
     4 RES4       95 GROUP             0 ****  ****    0  
@<TRIPOS>CRYSIN
   15.0550   16.6390   17.1280   90.0000   99.7889   90.0000    14     1
