@<TRIPOS>MOLECULE
REVFEF02
    99   107     4     0     0
SMALL
USER_CHARGES
****
Generated from the CSD

@<TRIPOS>ATOM
     1 C1       4.7208   3.5631   4.3620   C.2       1 RES1   0.0000
     2 H1       4.9908   3.5912   5.2728   H         1 RES1   0.0000
     3 C2       4.8839   4.6187   3.4513   C.2       1 RES1   0.0000
     4 H2       5.2705   5.4694   3.6248   H         1 RES1   0.0000
     5 C3       4.3779   4.1777   2.2694   C.2       1 RES1   0.0000
     6 H3       4.3450   4.6650   1.4546   H         1 RES1   0.0000
     7 C4       3.2362   2.0038   1.6546   C.ar      1 RES1   0.0000
     8 C5       3.0783   2.0649   0.2777   C.ar      1 RES1   0.0000
     9 H4       3.4265   2.7934  -0.2231   H         1 RES1   0.0000
    10 C6       2.3955   1.0242  -0.3504   C.ar      1 RES1   0.0000
    11 C7       1.8665  -0.0396   0.4248   C.ar      1 RES1   0.0000
    12 H5       1.3579  -0.7384   0.0298   H         1 RES1   0.0000
    13 C8       2.1322  -0.0116   1.7868   C.ar      1 RES1   0.0000
    14 C9       1.1733  -2.2268   2.5422   C.2       1 RES1   0.0000
    15 H6       0.8526  -2.6034   1.7322   H         1 RES1   0.0000
    16 C10      1.1358  -2.8033   3.7967   C.2       1 RES1   0.0000
    17 H7       0.7802  -3.6540   4.0215   H         1 RES1   0.0000
    18 C11      1.7265  -1.8766   4.6777   C.2       1 RES1   0.0000
    19 H8       1.8224  -2.0104   5.6133   H         1 RES1   0.0000
    20 C12      2.2716   1.0176  -1.8132   C.2       1 RES1   0.0000
    21 H9       2.2517   1.8534  -2.2645   H         1 RES1   0.0000
    22 C13      2.1855  -0.1024  -2.5471   C.2       1 RES1   0.0000
    23 H10      2.1693  -0.9234  -2.0678   H         1 RES1   0.0000
    24 C14      2.1135  -0.1966  -4.0116   C.ar      1 RES1   0.0000
    25 C15      1.7713   0.8557  -4.8347   C.ar      1 RES1   0.0000
    26 H11      1.5958   1.7081  -4.4562   H         1 RES1   0.0000
    27 C16      1.6787   0.6855  -6.2100   C.ar      1 RES1   0.0000
    28 H12      1.4063   1.4124  -6.7571   H         1 RES1   0.0000
    29 C17      1.9826  -0.5336  -6.7901   C.ar      1 RES1   0.0000
    30 H13      1.9328  -0.6442  -7.7323   H         1 RES1   0.0000
    31 C18      2.3578  -1.5858  -5.9786   C.ar      1 RES1   0.0000
    32 H14      2.5708  -2.4266  -6.3686   H         1 RES1   0.0000
    33 C19      2.4285  -1.4338  -4.5967   C.ar      1 RES1   0.0000
    34 H15      2.6917  -2.1656  -4.0496   H         1 RES1   0.0000
    35 C20      0.9417   2.7653   5.0199   C.2       1 RES1   0.0000
    36 H16      0.5852   3.0032   4.1719   H         1 RES1   0.0000
    37 C21      0.5204   3.3236   6.2348   C.2       1 RES1   0.0000
    38 H17     -0.1448   3.9893   6.3571   H         1 RES1   0.0000
    39 C22      1.2563   2.7190   7.2034   C.2       1 RES1   0.0000
    40 H18      1.2094   2.8809   8.1389   H         1 RES1   0.0000
    41 C23      3.1155   1.0176   7.0430   C.ar      1 RES1   0.0000
    42 C24      3.4196   0.7318   8.3521   C.ar      1 RES1   0.0000
    43 H19      2.9076   1.1035   9.0596   H         1 RES1   0.0000
    44 C25      4.5109  -0.1272   8.6298   C.ar      1 RES1   0.0000
    45 C26      5.2235  -0.6657   7.5356   C.ar      1 RES1   0.0000
    46 H20      5.9674  -1.2406   7.6761   H         1 RES1   0.0000
    47 C27      4.8203  -0.3419   6.2612   C.ar      1 RES1   0.0000
    48 C28      6.3165  -1.7824   4.8050   C.2       1 RES1   0.0000
    49 H21      6.8234  -2.2697   5.4447   H         1 RES1   0.0000
    50 C29      6.3883  -1.9046   3.4430   C.2       1 RES1   0.0000
    51 H22      6.9590  -2.4828   2.9521   H         1 RES1   0.0000
    52 C30      5.4454  -0.9977   2.9124   C.2       1 RES1   0.0000
    53 H23      5.2788  -0.8689   1.9851   H         1 RES1   0.0000
    54 C31      4.9194  -0.4824   9.9769   C.2       1 RES1   0.0000
    55 H24      5.7173  -0.9911  10.0596   H         1 RES1   0.0000
    56 C32      4.2865  -0.1619  11.1125   C.2       1 RES1   0.0000
    57 H25      3.4899   0.3486  11.0315   H         1 RES1   0.0000
    58 C33      4.7074  -0.5253  12.4728   C.ar      1 RES1   0.0000
    59 C34      4.1435   0.1322  13.5704   C.ar      1 RES1   0.0000
    60 H26      3.4685   0.7847  13.4249   H         1 RES1   0.0000
    61 C35      4.5507  -0.1520  14.8662   C.ar      1 RES1   0.0000
    62 H27      4.1734   0.3238  15.5968   H         1 RES1   0.0000
    63 C36      5.4933  -1.1134  15.0927   C.ar      1 RES1   0.0000
    64 H28      5.7639  -1.3149  15.9819   H         1 RES1   0.0000
    65 C37      6.0579  -1.7973  14.0199   C.ar      1 RES1   0.0000
    66 H29      6.7134  -2.4663  14.1786   H         1 RES1   0.0000
    67 C38      5.6696  -1.5082  12.7175   C.ar      1 RES1   0.0000
    68 H30      6.0588  -1.9790  11.9902   H         1 RES1   0.0000
    69 N1       4.1386   2.5208   3.7785   N.2       1 RES1   0.0000
    70 N2       3.9238   2.9057   2.4744   N.pl3     1 RES1   0.0000
    71 N3       2.7696   0.9796   2.3967   N.ar      1 RES1   0.0000
    72 N4       1.7616  -1.0093   2.7042   N.pl3     1 RES1   0.0000
    73 N5       2.1328  -0.7863   4.0265   N.2       1 RES1   0.0000
    74 N6       1.8949   1.8700   5.1984   N.2       1 RES1   0.0000
    75 N7       2.0782   1.8336   6.5637   N.pl3     1 RES1   0.0000
    76 N8       3.7970   0.4840   6.0050   N.ar      1 RES1   0.0000
    77 N9       5.3765  -0.8276   5.0678   N.pl3     1 RES1   0.0000
    78 N10      4.8195  -0.3486   3.8942   N.2       1 RES1   0.0000
    79 Fe1      3.2521   0.8101   4.2233   Fe        1 RES1   2.0000
    80 C39      4.3916  12.1481   1.0083   C.3       2 RES2   0.0000
    81 H31      4.0041  12.4751   1.8463   H         2 RES2   0.0000
    82 H32      5.3378  11.9350   1.1471   H         2 RES2   0.0000
    83 H33      3.9137  11.3403   0.7223   H         2 RES2   0.0000
    84 C40      4.2674  13.1871  -0.0314   C.2       2 RES2   0.0000
    85 C41      4.5542  12.8105  -1.4810   C.3       2 RES2   0.0000
    86 H34      4.5907  13.6232  -2.0298   H         2 RES2   0.0000
    87 H35      3.8436  12.2241  -1.8132   H         2 RES2   0.0000
    88 H36      5.4151  12.3430  -1.5339   H         2 RES2   0.0000
    89 O1       3.9092  14.3055   0.2529   O.2       2 RES2   0.0000
    90 B1       5.9253   3.6111   7.7835   B         3 RES3  -1.0000
    91 F1       4.5488   3.8060   7.6293   F         3 RES3   0.0000
    92 F2       6.5776   4.7211   7.3951   F         3 RES3   0.0000
    93 F3       6.2228   3.2873   9.0824   F         3 RES3   0.0000
    94 F4       6.2848   2.5522   6.9686   F         3 RES3   0.0000
    95 B2      -0.3348   3.8374   1.2810   B         4 RES4  -1.0000
    96 F5      -1.0179   4.9078   0.7686   F         4 RES4   0.0000
    97 F6      -1.0583   3.2708   2.3132   F         4 RES4   0.0000
    98 F7       0.9096   4.2517   1.7736   F         4 RES4   0.0000
    99 F8      -0.1224   2.8974   0.2826   F         4 RES4   0.0000
@<TRIPOS>BOND
     1     1     2    1
     2     3     1    1
     3     4     3    1
     4     5     3    2
     5     6     5    1
     6     7     8   ar
     7     8     9    1
     8    10     8   ar
     9    11    10   ar
    10    12    11    1
    11    13    11   ar
    12    14    15    1
    13    16    14    2
    14    17    16    1
    15    18    16    1
    16    19    18    1
    17    20    10    1
    18    21    20    1
    19    22    20    2
    20    23    22    1
    21    24    22    1
    22    25    24   ar
    23    26    25    1
    24    27    25   ar
    25    28    27    1
    26    29    27   ar
    27    30    29    1
    28    31    29   ar
    29    32    31    1
    30    33    24   ar
    31    34    33    1
    32    35    36    1
    33    37    35    1
    34    38    37    1
    35    39    37    2
    36    40    39    1
    37    41    42   ar
    38    42    43    1
    39    44    42   ar
    40    45    44   ar
    41    46    45    1
    42    47    45   ar
    43    48    49    1
    44    50    48    2
    45    51    50    1
    46    52    50    1
    47    53    52    1
    48    54    44    1
    49    55    54    1
    50    56    54    2
    51    57    56    1
    52    58    56    1
    53    59    58   ar
    54    60    59    1
    55    61    59   ar
    56    62    61    1
    57    63    61   ar
    58    64    63    1
    59    65    63   ar
    60    66    65    1
    61    67    58   ar
    62    68    67    1
    63    69     1    2
    64    70     5    1
    65    71     7   ar
    66    72    13    1
    67    73    18    2
    68    74    35    2
    69    75    39    1
    70    76    41   ar
    71    77    47    1
    72    78    52    2
    73    79    69    1
    74     7    70    1
    75    13    71   ar
    76    14    72    1
    77    31    33   ar
    78    41    75    1
    79    47    76   ar
    80    48    77    1
    81    65    67   ar
    82    69    70    1
    83    71    79    1
    84    72    73    1
    85    73    79    1
    86    74    75    1
    87    74    79    1
    88    76    79    1
    89    77    78    1
    90    78    79    1
    91    80    81    1
    92    82    80    1
    93    83    80    1
    94    84    80    1
    95    85    84    1
    96    86    85    1
    97    87    85    1
    98    88    85    1
    99    89    84    2
   100    90    91    1
   101    92    90    1
   102    93    90    1
   103    94    90    1
   104    95    96    1
   105    97    95    1
   106    98    95    1
   107    99    95    1
@<TRIPOS>SUBSTRUCTURE
     1 RES1        1 GROUP             0 ****  ****    0  
     2 RES2       80 GROUP             0 ****  ****    0  
     3 RES3       90 GROUP             0 ****  ****    0  
     4 RES4       95 GROUP             0 ****  ****    0  
@<TRIPOS>CRYSIN
   15.2030   16.5190   16.6020   90.0000   95.3730   90.0000    14     1
