@<TRIPOS>MOLECULE
REVFEF01
    99   107     4     0     0
SMALL
USER_CHARGES
****
Generated from the CSD

@<TRIPOS>ATOM
     1 C1       4.0293   4.1494   4.0197   C.2       1 RES1   0.0000
     2 H1       4.0845   4.3798   4.9392   H         1 RES1   0.0000
     3 C2       4.4525   4.9763   2.9684   C.2       1 RES1   0.0000
     4 H2       4.8367   5.8414   3.0366   H         1 RES1   0.0000
     5 C3       4.1950   4.2734   1.8240   C.2       1 RES1   0.0000
     6 H3       4.3655   4.5594   0.9336   H         1 RES1   0.0000
     7 C4       3.0920   2.0551   1.4263   C.ar      1 RES1   0.0000
     8 C5       3.1012   2.0338   0.0495   C.ar      1 RES1   0.0000
     9 H4       3.5234   2.7237  -0.4482   H         1 RES1   0.0000
    10 C6       2.4706   0.9661  -0.5944   C.ar      1 RES1   0.0000
    11 C7       1.8602  -0.0291   0.1786   C.ar      1 RES1   0.0000
    12 H5       1.3929  -0.7499  -0.2258   H         1 RES1   0.0000
    13 C8       1.9629   0.0768   1.5451   C.ar      1 RES1   0.0000
    14 C9       1.0368  -2.1520   2.2202   C.2       1 RES1   0.0000
    15 H6       0.9474  -2.5757   1.3751   H         1 RES1   0.0000
    16 C10      0.7568  -2.7001   3.4424   C.2       1 RES1   0.0000
    17 H7       0.4306  -3.5750   3.6197   H         1 RES1   0.0000
    18 C11      1.0502  -1.7055   4.3709   C.2       1 RES1   0.0000
    19 H8       0.9529  -1.8058   5.3099   H         1 RES1   0.0000
    20 C12      2.4912   0.9039  -2.0592   C.2       1 RES1   0.0000
    21 H9       2.6329   1.7127  -2.5361   H         1 RES1   0.0000
    22 C13      2.3248  -0.2102  -2.7643   C.2       1 RES1   0.0000
    23 H10      2.1390  -1.0043  -2.2783   H         1 RES1   0.0000
    24 C14      2.4008  -0.3271  -4.2247   C.ar      1 RES1   0.0000
    25 C15      2.2313   0.7582  -5.0817   C.ar      1 RES1   0.0000
    26 H11      2.0749   1.6229  -4.7201   H         1 RES1   0.0000
    27 C16      2.2887   0.5920  -6.4492   C.ar      1 RES1   0.0000
    28 H12      2.1570   1.3386  -7.0220   H         1 RES1   0.0000
    29 C17      2.5382  -0.6535  -6.9900   C.ar      1 RES1   0.0000
    30 H13      2.5912  -0.7616  -7.9320   H         1 RES1   0.0000
    31 C18      2.7094  -1.7410  -6.1621   C.ar      1 RES1   0.0000
    32 H14      2.8826  -2.5973  -6.5333   H         1 RES1   0.0000
    33 C19      2.6283  -1.5822  -4.7858   C.ar      1 RES1   0.0000
    34 H15      2.7285  -2.3379  -4.2196   H         1 RES1   0.0000
    35 C20      0.5952   3.2940   5.4530   C.2       1 RES1   0.0000
    36 H16      0.3605   3.7263   4.6409   H         1 RES1   0.0000
    37 C21      0.0941   3.6452   6.7143   C.2       1 RES1   0.0000
    38 H17     -0.5243   4.3382   6.9125   H         1 RES1   0.0000
    39 C22      0.6767   2.7888   7.5943   C.2       1 RES1   0.0000
    40 H18      0.5443   2.7702   8.5353   H         1 RES1   0.0000
    41 C23      2.4168   1.0078   7.3012   C.ar      1 RES1   0.0000
    42 C24      2.6120   0.6671   8.6212   C.ar      1 RES1   0.0000
    43 H19      2.0794   1.0492   9.3087   H         1 RES1   0.0000
    44 C25      3.6199  -0.2607   8.9235   C.ar      1 RES1   0.0000
    45 C26      4.3736  -0.7915   7.8691   C.ar      1 RES1   0.0000
    46 H20      5.0786  -1.4067   8.0348   H         1 RES1   0.0000
    47 C27      4.0663  -0.3987   6.5815   C.ar      1 RES1   0.0000
    48 C28      5.5969  -1.9092   5.2881   C.2       1 RES1   0.0000
    49 H21      5.9312  -2.4709   5.9772   H         1 RES1   0.0000
    50 C29      5.8914  -1.9930   3.9592   C.2       1 RES1   0.0000
    51 H22      6.4668  -2.6189   3.5354   H         1 RES1   0.0000
    52 C30      5.1657  -0.9561   3.3536   C.2       1 RES1   0.0000
    53 H23      5.1809  -0.7666   2.4232   H         1 RES1   0.0000
    54 C31      3.9322  -0.6611  10.2920   C.2       1 RES1   0.0000
    55 H24      4.7231  -1.1689  10.4260   H         1 RES1   0.0000
    56 C32      3.2031  -0.3748  11.3685   C.2       1 RES1   0.0000
    57 H25      2.4023   0.1181  11.2332   H         1 RES1   0.0000
    58 C33      3.5334  -0.7557  12.7463   C.ar      1 RES1   0.0000
    59 C34      2.9408  -0.0599  13.7942   C.ar      1 RES1   0.0000
    60 H26      2.3136   0.6285  13.6059   H         1 RES1   0.0000
    61 C35      3.2545  -0.3558  15.1093   C.ar      1 RES1   0.0000
    62 H27      2.8626   0.1430  15.8151   H         1 RES1   0.0000
    63 C36      4.1367  -1.3801  15.3956   C.ar      1 RES1   0.0000
    64 H28      4.3422  -1.5930  16.2987   H         1 RES1   0.0000
    65 C37      4.7130  -2.0868  14.3728   C.ar      1 RES1   0.0000
    66 H29      5.3191  -2.7902  14.5714   H         1 RES1   0.0000
    67 C38      4.4243  -1.7825  13.0514   C.ar      1 RES1   0.0000
    68 H30      4.8344  -2.2780  12.3521   H         1 RES1   0.0000
    69 N1       3.5418   3.0045   3.5612   N.2       1 RES1   0.0000
    70 N2       3.6508   3.0906   2.2013   N.pl3     1 RES1   0.0000
    71 N3       2.5603   1.0910   2.1716   N.ar      1 RES1   0.0000
    72 N4       1.4653  -0.8884   2.4495   N.pl3     1 RES1   0.0000
    73 N5       1.4834  -0.6011   3.7808   N.2       1 RES1   0.0000
    74 N6       1.4385   2.2780   5.5458   N.2       1 RES1   0.0000
    75 N7       1.4824   1.9649   6.8759   N.pl3     1 RES1   0.0000
    76 N8       3.1066   0.4786   6.2868   N.ar      1 RES1   0.0000
    77 N9       4.7350  -0.8728   5.4413   N.pl3     1 RES1   0.0000
    78 N10      4.4593  -0.2790   4.2363   N.2       1 RES1   0.0000
    79 Fe1      2.7530   1.1141   4.2865   Fe        1 RES1   2.0000
    80 C39      4.1554  12.3313   1.1442   C.3       2 RES2   0.0000
    81 H31      3.7897  12.7138   1.9699   H         2 RES2   0.0000
    82 H32      5.0701  12.0187   1.3060   H         2 RES2   0.0000
    83 H33      3.5974  11.5764   0.8594   H         2 RES2   0.0000
    84 C40      4.1669  13.3639   0.0843   C.2       2 RES2   0.0000
    85 C41      4.4365  12.9150  -1.3313   C.3       2 RES2   0.0000
    86 H34      4.4426  13.6948  -1.9261   H         2 RES2   0.0000
    87 H35      3.7345  12.2931  -1.6177   H         2 RES2   0.0000
    88 H36      5.3069  12.4677  -1.3717   H         2 RES2   0.0000
    89 O1       3.9838  14.5259   0.3522   O.2       2 RES2   0.0000
    90 B1       5.1075   3.6848   7.4288   B         3 RES3  -1.0000
    91 F1       3.7699   4.0054   7.3049   F         3 RES3   0.0000
    92 F2       5.8703   4.6933   6.9696   F         3 RES3   0.0000
    93 F3       5.4150   3.3966   8.7434   F         3 RES3   0.0000
    94 F4       5.3307   2.5642   6.6499   F         3 RES3   0.0000
    95 B2      -0.3758   3.9043   1.5434   B         4 RES4  -1.0000
    96 F5      -0.9037   4.7639   0.6292   F         4 RES4   0.0000
    97 F6      -1.1852   3.8103   2.6165   F         4 RES4   0.0000
    98 F7       0.8804   4.3364   1.9182   F         4 RES4   0.0000
    99 F8      -0.2466   2.6788   0.9479   F         4 RES4   0.0000
@<TRIPOS>BOND
     1     1     2    1
     2     3     1    1
     3     4     3    1
     4     5     3    2
     5     6     5    1
     6     7     8   ar
     7     8     9    1
     8    10     8   ar
     9    11    10   ar
    10    12    11    1
    11    13    11   ar
    12    14    15    1
    13    16    14    2
    14    17    16    1
    15    18    16    1
    16    19    18    1
    17    20    10    1
    18    21    20    1
    19    22    20    2
    20    23    22    1
    21    24    22    1
    22    25    24   ar
    23    26    25    1
    24    27    25   ar
    25    28    27    1
    26    29    27   ar
    27    30    29    1
    28    31    29   ar
    29    32    31    1
    30    33    24   ar
    31    34    33    1
    32    35    36    1
    33    37    35    1
    34    38    37    1
    35    39    37    2
    36    40    39    1
    37    41    42   ar
    38    42    43    1
    39    44    42   ar
    40    45    44   ar
    41    46    45    1
    42    47    45   ar
    43    48    49    1
    44    50    48    2
    45    51    50    1
    46    52    50    1
    47    53    52    1
    48    54    44    1
    49    55    54    1
    50    56    54    2
    51    57    56    1
    52    58    56    1
    53    59    58   ar
    54    60    59    1
    55    61    59   ar
    56    62    61    1
    57    63    61   ar
    58    64    63    1
    59    65    63   ar
    60    66    65    1
    61    67    58   ar
    62    68    67    1
    63    69     1    2
    64    70     5    1
    65    71     7   ar
    66    72    13    1
    67    73    18    2
    68    74    35    2
    69    75    39    1
    70    76    41   ar
    71    77    47    1
    72    78    52    2
    73    79    69    1
    74     7    70    1
    75    13    71   ar
    76    14    72    1
    77    31    33   ar
    78    41    75    1
    79    47    76   ar
    80    48    77    1
    81    65    67   ar
    82    69    70    1
    83    71    79    1
    84    72    73    1
    85    73    79    1
    86    74    75    1
    87    74    79    1
    88    76    79    1
    89    77    78    1
    90    78    79    1
    91    80    81    1
    92    82    80    1
    93    83    80    1
    94    84    80    1
    95    85    84    1
    96    86    85    1
    97    87    85    1
    98    88    85    1
    99    89    84    2
   100    90    91    1
   101    92    90    1
   102    93    90    1
   103    94    90    1
   104    95    96    1
   105    97    95    1
   106    98    95    1
   107    99    95    1
@<TRIPOS>SUBSTRUCTURE
     1 RES1        1 GROUP             0 ****  ****    0  
     2 RES2       80 GROUP             0 ****  ****    0  
     3 RES3       90 GROUP             0 ****  ****    0  
     4 RES4       95 GROUP             0 ****  ****    0  
@<TRIPOS>CRYSIN
   14.8820   16.6280   17.1160   90.0000  100.0870   90.0000    14     1
