@<TRIPOS>MOLECULE
REVFEF03
    99   107     4     0     0
SMALL
USER_CHARGES
****
Generated from the CSD

@<TRIPOS>ATOM
     1 C1       4.7015   3.5944   4.3843   C.2       1 RES1   0.0000
     2 H1       4.9716   3.6242   5.2946   H         1 RES1   0.0000
     3 C2       4.8566   4.6578   3.4724   C.2       1 RES1   0.0000
     4 H2       5.2349   5.5108   3.6462   H         1 RES1   0.0000
     5 C3       4.3476   4.2023   2.2774   C.2       1 RES1   0.0000
     6 H3       4.3086   4.6843   1.4598   H         1 RES1   0.0000
     7 C4       3.2206   2.0158   1.6700   C.ar      1 RES1   0.0000
     8 C5       3.0652   2.0771   0.2963   C.ar      1 RES1   0.0000
     9 H4       3.4077   2.8109  -0.2019   H         1 RES1   0.0000
    10 C6       2.3846   1.0253  -0.3459   C.ar      1 RES1   0.0000
    11 C7       1.8673  -0.0364   0.4320   C.ar      1 RES1   0.0000
    12 H5       1.3702  -0.7404   0.0348   H         1 RES1   0.0000
    13 C8       2.1113  -0.0099   1.7825   C.ar      1 RES1   0.0000
    14 C9       1.1905  -2.2444   2.5588   C.2       1 RES1   0.0000
    15 H6       0.8824  -2.6254   1.7461   H         1 RES1   0.0000
    16 C10      1.1461  -2.8208   3.8133   C.2       1 RES1   0.0000
    17 H7       0.7928  -3.6739   4.0368   H         1 RES1   0.0000
    18 C11      1.7273  -1.8916   4.6905   C.2       1 RES1   0.0000
    19 H8       1.8326  -2.0274   5.6256   H         1 RES1   0.0000
    20 C12      2.2561   1.0237  -1.8123   C.2       1 RES1   0.0000
    21 H9       2.2270   1.8585  -2.2642   H         1 RES1   0.0000
    22 C13      2.1772  -0.1027  -2.5439   C.2       1 RES1   0.0000
    23 H10      2.1579  -0.9210  -2.0606   H         1 RES1   0.0000
    24 C14      2.1165  -0.2087  -4.0053   C.ar      1 RES1   0.0000
    25 C15      1.7487   0.8530  -4.8279   C.ar      1 RES1   0.0000
    26 H11      1.5562   1.6995  -4.4406   H         1 RES1   0.0000
    27 C16      1.6580   0.6957  -6.2115   C.ar      1 RES1   0.0000
    28 H12      1.3873   1.4228  -6.7577   H         1 RES1   0.0000
    29 C17      1.9701  -0.5483  -6.7908   C.ar      1 RES1   0.0000
    30 H13      1.9017  -0.6675  -7.7309   H         1 RES1   0.0000
    31 C18      2.3745  -1.5984  -5.9865   C.ar      1 RES1   0.0000
    32 H14      2.6129  -2.4299  -6.3771   H         1 RES1   0.0000
    33 C19      2.4358  -1.4361  -4.6127   C.ar      1 RES1   0.0000
    34 H15      2.6976  -2.1682  -4.0682   H         1 RES1   0.0000
    35 C20      0.9236   2.7844   5.0248   C.2       1 RES1   0.0000
    36 H16      0.5750   3.0296   4.1758   H         1 RES1   0.0000
    37 C21      0.5006   3.3410   6.2546   C.2       1 RES1   0.0000
    38 H17     -0.1669   4.0035   6.3820   H         1 RES1   0.0000
    39 C22      1.2495   2.7281   7.2212   C.2       1 RES1   0.0000
    40 H18      1.2091   2.8921   8.1563   H         1 RES1   0.0000
    41 C23      3.1109   1.0121   7.0656   C.ar      1 RES1   0.0000
    42 C24      3.4094   0.7354   8.3698   C.ar      1 RES1   0.0000
    43 H19      2.8989   1.1131   9.0748   H         1 RES1   0.0000
    44 C25      4.5021  -0.1292   8.6462   C.ar      1 RES1   0.0000
    45 C26      5.2165  -0.6742   7.5621   C.ar      1 RES1   0.0000
    46 H20      5.9542  -1.2539   7.7061   H         1 RES1   0.0000
    47 C27      4.8126  -0.3396   6.2811   C.ar      1 RES1   0.0000
    48 C28      6.3067  -1.7757   4.8113   C.2       1 RES1   0.0000
    49 H21      6.8173  -2.2544   5.4535   H         1 RES1   0.0000
    50 C29      6.3818  -1.9165   3.4558   C.2       1 RES1   0.0000
    51 H22      6.9461  -2.5078   2.9709   H         1 RES1   0.0000
    52 C30      5.4440  -0.9955   2.9196   C.2       1 RES1   0.0000
    53 H23      5.2832  -0.8646   1.9927   H         1 RES1   0.0000
    54 C31      4.9161  -0.4903   9.9967   C.2       1 RES1   0.0000
    55 H24      5.7126  -1.0005  10.0811   H         1 RES1   0.0000
    56 C32      4.2741  -0.1690  11.1338   C.2       1 RES1   0.0000
    57 H25      3.4759   0.3396  11.0527   H         1 RES1   0.0000
    58 C33      4.6996  -0.5350  12.4926   C.ar      1 RES1   0.0000
    59 C34      4.1411   0.1143  13.5966   C.ar      1 RES1   0.0000
    60 H26      3.4683   0.7702  13.4559   H         1 RES1   0.0000
    61 C35      4.5461  -0.1739  14.8974   C.ar      1 RES1   0.0000
    62 H27      4.1577   0.2915  15.6273   H         1 RES1   0.0000
    63 C36      5.5096  -1.1313  15.1275   C.ar      1 RES1   0.0000
    64 H28      5.7941  -1.3218  16.0130   H         1 RES1   0.0000
    65 C37      6.0630  -1.8220  14.0451   C.ar      1 RES1   0.0000
    66 H29      6.7087  -2.5012  14.1990   H         1 RES1   0.0000
    67 C38      5.6740  -1.5239  12.7508   C.ar      1 RES1   0.0000
    68 H30      6.0697  -1.9910  12.0242   H         1 RES1   0.0000
    69 N1       4.1247   2.5409   3.8012   N.2       1 RES1   0.0000
    70 N2       3.9062   2.9269   2.4856   N.pl3     1 RES1   0.0000
    71 N3       2.7494   0.9935   2.4101   N.ar      1 RES1   0.0000
    72 N4       1.7626  -1.0237   2.7211   N.pl3     1 RES1   0.0000
    73 N5       2.1125  -0.7951   4.0430   N.2       1 RES1   0.0000
    74 N6       1.8755   1.8750   5.2150   N.2       1 RES1   0.0000
    75 N7       2.0660   1.8386   6.5871   N.pl3     1 RES1   0.0000
    76 N8       3.7953   0.5062   6.0240   N.ar      1 RES1   0.0000
    77 N9       5.3714  -0.8279   5.0760   N.pl3     1 RES1   0.0000
    78 N10      4.8213  -0.3396   3.8987   N.2       1 RES1   0.0000
    79 Fe1      3.2403   0.8189   4.2372   Fe        1 RES1   2.0000
    80 C39      4.4243  12.1762   1.0013   C.3       2 RES2   0.0000
    81 H31      3.9770  12.4611   1.8256   H         2 RES2   0.0000
    82 H32      5.3777  12.0387   1.1768   H         2 RES2   0.0000
    83 H33      4.0257  11.3381   0.6869   H         2 RES2   0.0000
    84 C40      4.2568  13.2330  -0.0480   C.2       2 RES2   0.0000
    85 C41      4.5539  12.8619  -1.4896   C.3       2 RES2   0.0000
    86 H34      4.5345  13.6686  -2.0457   H         2 RES2   0.0000
    87 H35      3.8781  12.2275  -1.8090   H         2 RES2   0.0000
    88 H36      5.4407  12.4495  -1.5442   H         2 RES2   0.0000
    89 O1       3.9090  14.3527   0.2632   O.2       2 RES2   0.0000
    90 B1       5.8940   3.6110   7.7988   B         3 RES3  -1.0000
    91 F1       4.5164   3.8105   7.6495   F         3 RES3   0.0000
    92 F2       6.5559   4.7423   7.3900   F         3 RES3   0.0000
    93 F3       6.2062   3.3039   9.1119   F         3 RES3   0.0000
    94 F4       6.2552   2.5412   6.9815   F         3 RES3   0.0000
    95 B2      -0.3498   3.8528   1.2910   B         4 RES4  -1.0000
    96 F5      -1.0470   4.9291   0.7762   F         4 RES4   0.0000
    97 F6      -1.0669   3.2633   2.3204   F         4 RES4   0.0000
    98 F7       0.8878   4.2725   1.7844   F         4 RES4   0.0000
    99 F8      -0.1375   2.9091   0.2799   F         4 RES4   0.0000
@<TRIPOS>BOND
     1     1     2    1
     2     3     1    1
     3     4     3    1
     4     5     3    2
     5     6     5    1
     6     7     8   ar
     7     8     9    1
     8    10     8   ar
     9    11    10   ar
    10    12    11    1
    11    13    11   ar
    12    14    15    1
    13    16    14    2
    14    17    16    1
    15    18    16    1
    16    19    18    1
    17    20    10    1
    18    21    20    1
    19    22    20    2
    20    23    22    1
    21    24    22    1
    22    25    24   ar
    23    26    25    1
    24    27    25   ar
    25    28    27    1
    26    29    27   ar
    27    30    29    1
    28    31    29   ar
    29    32    31    1
    30    33    24   ar
    31    34    33    1
    32    35    36    1
    33    37    35    1
    34    38    37    1
    35    39    37    2
    36    40    39    1
    37    41    42   ar
    38    42    43    1
    39    44    42   ar
    40    45    44   ar
    41    46    45    1
    42    47    45   ar
    43    48    49    1
    44    50    48    2
    45    51    50    1
    46    52    50    1
    47    53    52    1
    48    54    44    1
    49    55    54    1
    50    56    54    2
    51    57    56    1
    52    58    56    1
    53    59    58   ar
    54    60    59    1
    55    61    59   ar
    56    62    61    1
    57    63    61   ar
    58    64    63    1
    59    65    63   ar
    60    66    65    1
    61    67    58   ar
    62    68    67    1
    63    69     1    2
    64    70     5    1
    65    71     7   ar
    66    72    13    1
    67    73    18    2
    68    74    35    2
    69    75    39    1
    70    76    41   ar
    71    77    47    1
    72    78    52    2
    73    79    69    1
    74     7    70    1
    75    13    71   ar
    76    14    72    1
    77    31    33   ar
    78    41    75    1
    79    47    76   ar
    80    48    77    1
    81    65    67   ar
    82    69    70    1
    83    71    79    1
    84    72    73    1
    85    73    79    1
    86    74    75    1
    87    74    79    1
    88    76    79    1
    89    77    78    1
    90    78    79    1
    91    80    81    1
    92    82    80    1
    93    83    80    1
    94    84    80    1
    95    85    84    1
    96    86    85    1
    97    87    85    1
    98    88    85    1
    99    89    84    2
   100    90    91    1
   101    92    90    1
   102    93    90    1
   103    94    90    1
   104    95    96    1
   105    97    95    1
   106    98    95    1
   107    99    95    1
@<TRIPOS>SUBSTRUCTURE
     1 RES1        1 GROUP             0 ****  ****    0  
     2 RES2       80 GROUP             0 ****  ****    0  
     3 RES3       90 GROUP             0 ****  ****    0  
     4 RES4       95 GROUP             0 ****  ****    0  
@<TRIPOS>CRYSIN
   15.1760   16.5640   16.6230   90.0000   95.3390   90.0000    14     1
