@<TRIPOS>MOLECULE
REVFEF04
    99   107     4     0     0
SMALL
USER_CHARGES
****
Generated from the CSD

@<TRIPOS>ATOM
     1 C1       3.9062   4.2000   4.0436   C.2       1 RES1   0.0000
     2 H1       3.9422   4.4383   4.9625   H         1 RES1   0.0000
     3 C2       4.3456   5.0220   2.9947   C.2       1 RES1   0.0000
     4 H2       4.7278   5.8895   3.0641   H         1 RES1   0.0000
     5 C3       4.1083   4.3102   1.8491   C.2       1 RES1   0.0000
     6 H3       4.2941   4.5896   0.9602   H         1 RES1   0.0000
     7 C4       3.0222   2.0797   1.4466   C.ar      1 RES1   0.0000
     8 C5       3.0454   2.0588   0.0684   C.ar      1 RES1   0.0000
     9 H4       3.4599   2.7561  -0.4262   H         1 RES1   0.0000
    10 C6       2.4387   0.9761  -0.5773   C.ar      1 RES1   0.0000
    11 C7       1.8289  -0.0303   0.1962   C.ar      1 RES1   0.0000
    12 H5       1.3718  -0.7563  -0.2106   H         1 RES1   0.0000
    13 C8       1.9199   0.0778   1.5609   C.ar      1 RES1   0.0000
    14 C9       1.0528  -2.1799   2.2414   C.2       1 RES1   0.0000
    15 H6       0.9910  -2.6131   1.3981   H         1 RES1   0.0000
    16 C10      0.7736  -2.7317   3.4611   C.2       1 RES1   0.0000
    17 H7       0.4785  -3.6172   3.6385   H         1 RES1   0.0000
    18 C11      1.0133  -1.7183   4.3928   C.2       1 RES1   0.0000
    19 H8       0.8990  -1.8169   5.3314   H         1 RES1   0.0000
    20 C12      2.4635   0.9114  -2.0414   C.2       1 RES1   0.0000
    21 H9       2.5890   1.7221  -2.5217   H         1 RES1   0.0000
    22 C13      2.3211  -0.2216  -2.7469   C.2       1 RES1   0.0000
    23 H10      2.1510  -1.0190  -2.2589   H         1 RES1   0.0000
    24 C14      2.4060  -0.3369  -4.2153   C.ar      1 RES1   0.0000
    25 C15      2.2268   0.7545  -5.0670   C.ar      1 RES1   0.0000
    26 H11      2.0664   1.6174  -4.7031   H         1 RES1   0.0000
    27 C16      2.2811   0.5840  -6.4454   C.ar      1 RES1   0.0000
    28 H12      2.1339   1.3249  -7.0210   H         1 RES1   0.0000
    29 C17      2.5505  -0.6687  -6.9831   C.ar      1 RES1   0.0000
    30 H13      2.5995  -0.7796  -7.9255   H         1 RES1   0.0000
    31 C18      2.7474  -1.7529  -6.1481   C.ar      1 RES1   0.0000
    32 H14      2.9408  -2.6081  -6.5156   H         1 RES1   0.0000
    33 C19      2.6611  -1.5900  -4.7666   C.ar      1 RES1   0.0000
    34 H15      2.7773  -2.3405  -4.1961   H         1 RES1   0.0000
    35 C20      0.5136   3.3254   5.4786   C.2       1 RES1   0.0000
    36 H16      0.2907   3.7651   4.6660   H         1 RES1   0.0000
    37 C21     -0.0018   3.6763   6.7397   C.2       1 RES1   0.0000
    38 H17     -0.6162   4.3735   6.9384   H         1 RES1   0.0000
    39 C22      0.5714   2.7986   7.6190   C.2       1 RES1   0.0000
    40 H18      0.4327   2.7711   8.5589   H         1 RES1   0.0000
    41 C23      2.3088   1.0155   7.3238   C.ar      1 RES1   0.0000
    42 C24      2.4956   0.6741   8.6457   C.ar      1 RES1   0.0000
    43 H19      1.9588   1.0539   9.3321   H         1 RES1   0.0000
    44 C25      3.5061  -0.2552   8.9460   C.ar      1 RES1   0.0000
    45 C26      4.2678  -0.7879   7.8902   C.ar      1 RES1   0.0000
    46 H20      4.9705  -1.4046   8.0569   H         1 RES1   0.0000
    47 C27      3.9635  -0.3883   6.6047   C.ar      1 RES1   0.0000
    48 C28      5.5051  -1.8975   5.2937   C.2       1 RES1   0.0000
    49 H21      5.8317  -2.4702   5.9783   H         1 RES1   0.0000
    50 C29      5.8122  -1.9680   3.9601   C.2       1 RES1   0.0000
    51 H22      6.3906  -2.5882   3.5324   H         1 RES1   0.0000
    52 C30      5.0871  -0.9272   3.3663   C.2       1 RES1   0.0000
    53 H23      5.1031  -0.7331   2.4358   H         1 RES1   0.0000
    54 C31      3.8117  -0.6624  10.3163   C.2       1 RES1   0.0000
    55 H24      4.6107  -1.1586  10.4523   H         1 RES1   0.0000
    56 C32      3.0659  -0.3973  11.3988   C.2       1 RES1   0.0000
    57 H25      2.2562   0.0815  11.2642   H         1 RES1   0.0000
    58 C33      3.3996  -0.7879  12.7769   C.ar      1 RES1   0.0000
    59 C34      2.8106  -0.0896  13.8344   C.ar      1 RES1   0.0000
    60 H26      2.1864   0.6034  13.6511   H         1 RES1   0.0000
    61 C35      3.1289  -0.3991  15.1517   C.ar      1 RES1   0.0000
    62 H27      2.7414   0.0964  15.8646   H         1 RES1   0.0000
    63 C36      4.0075  -1.4254  15.4231   C.ar      1 RES1   0.0000
    64 H28      4.2161  -1.6440  16.3227   H         1 RES1   0.0000
    65 C37      4.5872  -2.1392  14.3854   C.ar      1 RES1   0.0000
    66 H29      5.1885  -2.8492  14.5776   H         1 RES1   0.0000
    67 C38      4.2907  -1.8206  13.0614   C.ar      1 RES1   0.0000
    68 H30      4.6957  -2.3073  12.3541   H         1 RES1   0.0000
    69 N1       3.4324   3.0437   3.5873   N.2       1 RES1   0.0000
    70 N2       3.5569   3.1263   2.2266   N.pl3     1 RES1   0.0000
    71 N3       2.4944   1.1079   2.1909   N.ar      1 RES1   0.0000
    72 N4       1.4350  -0.8951   2.4634   N.pl3     1 RES1   0.0000
    73 N5       1.4208  -0.5973   3.8026   N.2       1 RES1   0.0000
    74 N6       1.3516   2.3008   5.5694   N.2       1 RES1   0.0000
    75 N7       1.3743   1.9760   6.8972   N.pl3     1 RES1   0.0000
    76 N8       3.0064   0.4927   6.3110   N.ar      1 RES1   0.0000
    77 N9       4.6454  -0.8569   5.4552   N.pl3     1 RES1   0.0000
    78 N10      4.3732  -0.2429   4.2554   N.2       1 RES1   0.0000
    79 Fe1      2.6653   1.1384   4.3092   Fe        1 RES1   2.0000
    80 C39      4.1622  12.3078   1.1790   C.3       2 RES2   0.0000
    81 H31      3.8135  12.6883   2.0113   H         2 RES2   0.0000
    82 H32      5.0818  11.9985   1.3206   H         2 RES2   0.0000
    83 H33      3.6022  11.5513   0.9046   H         2 RES2   0.0000
    84 C40      4.1470  13.3562   0.1053   C.2       2 RES2   0.0000
    85 C41      4.4329  12.9009  -1.2955   C.3       2 RES2   0.0000
    86 H34      4.4936  13.6807  -1.8866   H         2 RES2   0.0000
    87 H35      3.7101  12.3143  -1.6020   H         2 RES2   0.0000
    88 H36      5.2822  12.4124  -1.3139   H         2 RES2   0.0000
    89 O1       3.9292  14.5217   0.3691   O.2       2 RES2   0.0000
    90 B1       4.9686   3.6757   7.4119   B         3 RES3  -1.0000
    91 F1       3.6076   3.9744   7.3185   F         3 RES3   0.0000
    92 F2       5.7015   4.7455   6.9575   F         3 RES3   0.0000
    93 F3       5.2847   3.3959   8.7415   F         3 RES3   0.0000
    94 F4       5.2255   2.5541   6.6313   F         3 RES3   0.0000
    95 B2      -0.4311   3.9293   1.5356   B         4 RES4  -1.0000
    96 F5      -0.9876   4.8516   0.6728   F         4 RES4   0.0000
    97 F6      -1.2483   3.7418   2.6234   F         4 RES4   0.0000
    98 F7       0.8197   4.3833   1.9550   F         4 RES4   0.0000
    99 F8      -0.2553   2.7268   0.8668   F         4 RES4   0.0000
@<TRIPOS>BOND
     1     1     2    1
     2     3     1    1
     3     4     3    1
     4     5     3    2
     5     6     5    1
     6     7     8   ar
     7     8     9    1
     8    10     8   ar
     9    11    10   ar
    10    12    11    1
    11    13    11   ar
    12    14    15    1
    13    16    14    2
    14    17    16    1
    15    18    16    1
    16    19    18    1
    17    20    10    1
    18    21    20    1
    19    22    20    2
    20    23    22    1
    21    24    22    1
    22    25    24   ar
    23    26    25    1
    24    27    25   ar
    25    28    27    1
    26    29    27   ar
    27    30    29    1
    28    31    29   ar
    29    32    31    1
    30    33    24   ar
    31    34    33    1
    32    35    36    1
    33    37    35    1
    34    38    37    1
    35    39    37    2
    36    40    39    1
    37    41    42   ar
    38    42    43    1
    39    44    42   ar
    40    45    44   ar
    41    46    45    1
    42    47    45   ar
    43    48    49    1
    44    50    48    2
    45    51    50    1
    46    52    50    1
    47    53    52    1
    48    54    44    1
    49    55    54    1
    50    56    54    2
    51    57    56    1
    52    58    56    1
    53    59    58   ar
    54    60    59    1
    55    61    59   ar
    56    62    61    1
    57    63    61   ar
    58    64    63    1
    59    65    63   ar
    60    66    65    1
    61    67    58   ar
    62    68    67    1
    63    69     1    2
    64    70     5    1
    65    71     7   ar
    66    72    13    1
    67    73    18    2
    68    74    35    2
    69    75    39    1
    70    76    41   ar
    71    77    47    1
    72    78    52    2
    73    79    69    1
    74     7    70    1
    75    13    71   ar
    76    14    72    1
    77    31    33   ar
    78    41    75    1
    79    47    76   ar
    80    48    77    1
    81    65    67   ar
    82    69    70    1
    83    71    79    1
    84    72    73    1
    85    73    79    1
    86    74    75    1
    87    74    79    1
    88    76    79    1
    89    77    78    1
    90    78    79    1
    91    80    81    1
    92    82    80    1
    93    83    80    1
    94    84    80    1
    95    85    84    1
    96    86    85    1
    97    87    85    1
    98    88    85    1
    99    89    84    2
   100    90    91    1
   101    92    90    1
   102    93    90    1
   103    94    90    1
   104    95    96    1
   105    97    95    1
   106    98    95    1
   107    99    95    1
@<TRIPOS>SUBSTRUCTURE
     1 RES1        1 GROUP             0 ****  ****    0  
     2 RES2       80 GROUP             0 ****  ****    0  
     3 RES3       90 GROUP             0 ****  ****    0  
     4 RES4       95 GROUP             0 ****  ****    0  
@<TRIPOS>CRYSIN
   14.7170   16.6230   17.1240   90.0000  100.3580   90.0000    14     1
