@<TRIPOS>MOLECULE
REXREV
   105   115     2     0     0
SMALL
NO_CHARGES
****
Generated from the CSD

@<TRIPOS>ATOM
     1 B1       5.3065   9.5964  13.5829   B         1 RES1   0.0000
     2 B2       3.0879   9.7686   7.8786   B         1 RES1   0.0000
     3 C1       7.1783   7.8268  12.8268   C.ar      1 RES1   0.0000
     4 C2       7.9542   7.5148  13.9577   C.ar      1 RES1   0.0000
     5 H1       7.8168   7.9456  14.7939   H         1 RES1   0.0000
     6 C3       8.9229   6.5513  13.7866   C.ar      1 RES1   0.0000
     7 H2       9.4727   6.3149  14.5244   H         1 RES1   0.0000
     8 C4       9.1264   5.8999  12.5416   C.ar      1 RES1   0.0000
     9 H3       9.8066   5.2409  12.4707   H         1 RES1   0.0000
    10 C5       8.3683   6.1967  11.4369   C.ar      1 RES1   0.0000
    11 H4       8.5066   5.7566  10.6074   H         1 RES1   0.0000
    12 C6       7.3719   7.1860  11.5916   C.ar      1 RES1   0.0000
    13 C7       6.2380  12.3684  14.9221   C.3       1 RES1   0.0000
    14 H5       5.5428  12.1413  15.5735   H         1 RES1   0.0000
    15 H6       6.5241  13.2959  15.0580   H         1 RES1   0.0000
    16 H7       7.0060  11.7707  15.0413   H         1 RES1   0.0000
    17 C8       5.6952  12.2116  13.5370   C.ar      1 RES1   0.0000
    18 C9       5.4917  13.1838  12.5712   C.ar      1 RES1   0.0000
    19 H8       5.6536  14.1160  12.6569   H         1 RES1   0.0000
    20 C10      4.9980  12.5140  11.4394   C.ar      1 RES1   0.0000
    21 C11      4.6173  13.1515  10.1468   C.3       1 RES1   0.0000
    22 H9       5.1592  12.7718   9.4236   H         1 RES1   0.0000
    23 H10      4.7737  14.1169  10.2003   H         1 RES1   0.0000
    24 H11      3.6692  12.9841   9.9668   H         1 RES1   0.0000
    25 C12      3.5033   8.4310  15.9469   C.3       1 RES1   0.0000
    26 H12      4.3545   7.9484  15.9972   H         1 RES1   0.0000
    27 H13      2.8205   7.9441  16.4558   H         1 RES1   0.0000
    28 H14      3.6126   9.3288  16.3252   H         1 RES1   0.0000
    29 C13      3.0771   8.5404  14.5210   C.ar      1 RES1   0.0000
    30 C14      1.8862   8.1616  13.9366   C.ar      1 RES1   0.0000
    31 H15      1.1387   7.7679  14.3715   H         1 RES1   0.0000
    32 C15      1.9985   8.4730  12.5685   C.ar      1 RES1   0.0000
    33 C16      0.9371   8.2891  11.5239   C.3       1 RES1   0.0000
    34 H16      1.2086   8.7441  10.6991   H         1 RES1   0.0000
    35 H17      0.0939   8.6698  11.8454   H         1 RES1   0.0000
    36 H18      0.8169   7.3335  11.3452   H         1 RES1   0.0000
    37 C17      2.6083   7.1395   7.9325   C.ar      1 RES1   0.0000
    38 C18      2.0951   6.8243   6.6596   C.ar      1 RES1   0.0000
    39 H19      2.0336   7.4704   5.9665   H         1 RES1   0.0000
    40 C19      1.6885   5.5198   6.4820   C.ar      1 RES1   0.0000
    41 H20      1.3337   5.2559   5.6413   H         1 RES1   0.0000
    42 C20      1.7854   4.5633   7.5191   C.ar      1 RES1   0.0000
    43 H21      1.4645   3.6840   7.3588   H         1 RES1   0.0000
    44 C21      2.3273   4.8539   8.7548   C.ar      1 RES1   0.0000
    45 H22      2.4051   4.1982   9.4374   H         1 RES1   0.0000
    46 C22      2.7606   6.1820   8.9414   C.ar      1 RES1   0.0000
    47 C23      0.4819  11.5335   7.3060   C.3       1 RES1   0.0000
    48 H23      1.1077  11.9862   6.7015   H         1 RES1   0.0000
    49 H24     -0.3296  12.0751   7.4018   H         1 RES1   0.0000
    50 H25      0.2469  10.6572   6.9364   H         1 RES1   0.0000
    51 C24      1.1238  11.3546   8.6460   C.ar      1 RES1   0.0000
    52 C25      0.7828  11.9039   9.8693   C.ar      1 RES1   0.0000
    53 H26      0.0422  12.4714  10.0516   H         1 RES1   0.0000
    54 C26      1.7451  11.4594  10.7868   C.ar      1 RES1   0.0000
    55 C27      1.8195  11.7932  12.2467   C.3       1 RES1   0.0000
    56 H27      1.5318  11.0196  12.7736   H         1 RES1   0.0000
    57 H28      1.2341  12.5550  12.4374   H         1 RES1   0.0000
    58 H29      2.7432  12.0233  12.4818   H         1 RES1   0.0000
    59 C28      4.8697  10.8786   5.5170   C.3       1 RES1   0.0000
    60 H30      4.4388  10.0518   5.2134   H         1 RES1   0.0000
    61 H31      5.6326  11.0827   4.9369   H         1 RES1   0.0000
    62 H32      4.2248  11.6153   5.4802   H         1 RES1   0.0000
    63 C29      5.3445  10.7044   6.9213   C.ar      1 RES1   0.0000
    64 C30      6.5935  10.9173   7.4716   C.ar      1 RES1   0.0000
    65 H33      7.3682  11.2319   7.0225   H         1 RES1   0.0000
    66 C31      6.4852  10.5742   8.8308   C.ar      1 RES1   0.0000
    67 C32      7.5707  10.6591   9.8571   C.3       1 RES1   0.0000
    68 H34      7.1859  10.9220  10.7186   H         1 RES1   0.0000
    69 H35      8.2327  11.3256   9.5778   H         1 RES1   0.0000
    70 H36      8.0057   9.7851   9.9460   H         1 RES1   0.0000
    71 Cl1      5.0722   3.9563  10.8924   Cl        1 RES1   0.0000
    72 Cl2      1.8445   4.7857  12.2676   Cl        1 RES1   0.0000
    73 Fe1      4.2170   9.6094  10.7199   Fe        1 RES1   0.0000
    74 H37      5.7565   9.5533  14.6175   H         1 RES1   0.0000
    75 H38      2.6746   9.7855   6.8363   H         1 RES1   0.0000
    76 N1       6.1447   8.6956  12.6277   N.pl3     1 RES1   0.0000
    77 N2       5.7369   8.5642  11.3397   N.2       1 RES1   0.0000
    78 N3       6.4551   7.6746  10.6919   N.2       1 RES1   0.0000
    79 N4       5.3281  11.0226  13.0058   N.ar      1 RES1   0.0000
    80 N5       4.8978  11.2014  11.7062   N.ar      1 RES1   0.0000
    81 N6       3.8715   9.0510  13.5451   N.ar      1 RES1   0.0000
    82 N7       3.2186   8.9995  12.3332   N.ar      1 RES1   0.0000
    83 N8       3.0889   8.3091   8.4517   N.pl3     1 RES1   0.0000
    84 N9       3.5334   8.0799   9.6960   N.2       1 RES1   0.0000
    85 N10      3.3566   6.8077  10.0167   N.2       1 RES1   0.0000
    86 N11      2.2424  10.6146   8.8377   N.ar      1 RES1   0.0000
    87 N12      2.6319  10.6742  10.1579   N.ar      1 RES1   0.0000
    88 N13      4.5348  10.2579   7.9125   N.ar      1 RES1   0.0000
    89 N14      5.2313  10.1782   9.0951   N.ar      1 RES1   0.0000
    90 Sn1      4.0563   5.8633  12.1232   Sn        1 RES1   0.0000
    91 C33     -1.3053   7.9641   7.4213   C.3       2 RES2   0.0000
    92 H39     -0.5577   8.4843   7.7826   H         2 RES2   0.0000
    93 H40     -1.1885   7.0199   7.6575   H         2 RES2   0.0000
    94 H41     -2.1462   8.2941   7.7992   H         2 RES2   0.0000
    95 C34     -1.3382   8.1064   5.9137   C.3       2 RES2   0.0000
    96 H42     -0.4667   7.8310   5.5302   H         2 RES2   0.0000
    97 H43     -2.0422   7.5211   5.5357   H         2 RES2   0.0000
    98 C35     -1.5786   9.7274   4.1893   C.3       2 RES2   0.0000
    99 H44     -2.2575   9.1770   3.7238   H         2 RES2   0.0000
   100 H45     -0.6881   9.5108   3.8169   H         2 RES2   0.0000
   101 C36     -1.8898  11.2430   3.9976   C.3       2 RES2   0.0000
   102 H46     -2.7760  11.4435   4.3644   H         2 RES2   0.0000
   103 H47     -1.8741  11.4609   3.0416   H         2 RES2   0.0000
   104 H48     -1.2141  11.7777   4.4644   H         2 RES2   0.0000
   105 O1      -1.6061   9.4649   5.5802   O.3       2 RES2   0.0000
@<TRIPOS>BOND
     1     1    74    1
     2     2    75    1
     3     3     4   ar
     4     4     5    1
     5     6     4   ar
     6     7     6    1
     7     8     6   ar
     8     9     8    1
     9    10     8   ar
    10    11    10    1
    11    12     3   ar
    12    13    14    1
    13    15    13    1
    14    16    13    1
    15    17    13    1
    16    18    17   ar
    17    19    18    1
    18    20    18   ar
    19    21    20    1
    20    22    21    1
    21    23    21    1
    22    24    21    1
    23    25    26    1
    24    27    25    1
    25    28    25    1
    26    29    25    1
    27    30    29   ar
    28    31    30    1
    29    32    30   ar
    30    33    32    1
    31    34    33    1
    32    35    33    1
    33    36    33    1
    34    37    38   ar
    35    38    39    1
    36    40    38   ar
    37    41    40    1
    38    42    40   ar
    39    43    42    1
    40    44    42   ar
    41    45    44    1
    42    46    37   ar
    43    47    48    1
    44    49    47    1
    45    50    47    1
    46    51    47    1
    47    52    51   ar
    48    53    52    1
    49    54    52   ar
    50    55    54    1
    51    56    55    1
    52    57    55    1
    53    58    55    1
    54    59    60    1
    55    61    59    1
    56    62    59    1
    57    63    59    1
    58    64    63   ar
    59    65    64    1
    60    66    64   ar
    61    67    66    1
    62    68    67    1
    63    69    67    1
    64    70    67    1
    65    71    90    1
    66    72    90    1
    67    73    77    1
    68    76     1    1
    69    77    76    1
    70    78    12    1
    71    79     1    1
    72    80    20   ar
    73    81     1    1
    74    82    32   ar
    75    83     2    1
    76    84    73    1
    77    85    46    1
    78    86     2    1
    79    87    54   ar
    80    88     2    1
    81    89    66   ar
    82    90    85    1
    83     3    76    1
    84    10    12   ar
    85    17    79   ar
    86    29    81   ar
    87    37    83    1
    88    44    46   ar
    89    51    86   ar
    90    63    88   ar
    91    73    80    1
    92    73    82    1
    93    73    87    1
    94    73    89    1
    95    77    78    2
    96    79    80   ar
    97    81    82   ar
    98    83    84    1
    99    84    85    2
   100    86    87   ar
   101    88    89   ar
   102    91    92    1
   103    93    91    1
   104    94    91    1
   105    95    91    1
   106    96    95    1
   107    97    95    1
   108    98    99    1
   109   100    98    1
   110   101    98    1
   111   102   101    1
   112   103   101    1
   113   104   101    1
   114   105    95    1
   115    98   105    1
@<TRIPOS>SUBSTRUCTURE
     1 RES1        1 GROUP             0 ****  ****    0  
     2 RES2       91 GROUP             0 ****  ****    0  
@<TRIPOS>CRYSIN
   10.7538   14.1590   14.1920   98.1550   97.6590   94.9100     2     1
