@<TRIPOS>MOLECULE
REXXAX
    90    95     1     0     0
SMALL
NO_CHARGES
****
Generated from the CSD

@<TRIPOS>ATOM
     1 Fe1      0.2639  10.1881   4.1396   Fe        1 RES1   0.0000
     2 Si1     -1.5378   7.6481   4.4281   Si        1 RES1   0.0000
     3 N1       0.0544   8.3287   4.4287   N.2       1 RES1   0.0000
     4 C1      -0.6989  12.3320   1.6678   C.3       1 RES1   0.0000
     5 C2       0.3029  12.0773   5.3538   C.ar      1 RES1   0.0000
     6 C3      -0.6761  12.2051   4.3152   C.ar      1 RES1   0.0000
     7 H1      -1.5875  12.3177   4.4608   H         1 RES1   0.0000
     8 C4       1.2464   7.5574   4.4126   C.ar      1 RES1   0.0000
     9 C5      -1.6487  11.8826   6.9439   C.3       1 RES1   0.0000
    10 H2      -2.1235  12.5921   6.5037   H         1 RES1   0.0000
    11 H3      -1.8989  11.8574   7.8702   H         1 RES1   0.0000
    12 H4      -1.8677  11.0457   6.5294   H         1 RES1   0.0000
    13 C6       2.8630   6.1248   5.5129   C.ar      1 RES1   0.0000
    14 H5       3.1603   5.6913   6.2801   H         1 RES1   0.0000
    15 C7       3.0405  11.8244   5.1929   C.3       1 RES1   0.0000
    16 C8       3.1300   6.6140   3.2016   C.ar      1 RES1   0.0000
    17 H6       3.6147   6.5272   2.4131   H         1 RES1   0.0000
    18 C9       3.5564   5.9462   4.3411   C.ar      1 RES1   0.0000
    19 H7       4.2994   5.3877   4.3109   H         1 RES1   0.0000
    20 C10     -0.3753  11.1430   0.7481   C.3       1 RES1   0.0000
    21 H8       0.5762  11.0359   0.6849   H         1 RES1   0.0000
    22 H9      -0.7385  11.3052  -0.1254   H         1 RES1   0.0000
    23 H10     -0.7635  10.3426   1.1116   H         1 RES1   0.0000
    24 C11     -0.1305  12.1327   6.8286   C.3       1 RES1   0.0000
    25 C12      1.3213  11.9686   3.2847   C.ar      1 RES1   0.0000
    26 H11      1.9714  11.8815   2.6249   H         1 RES1   0.0000
    27 C13      1.9909   7.4132   3.2168   C.ar      1 RES1   0.0000
    28 C14      1.7321   6.9318   5.5924   C.ar      1 RES1   0.0000
    29 C15      1.0426   7.0857   6.9412   C.3       1 RES1   0.0000
    30 H12      0.3707   7.7945   6.8547   H         1 RES1   0.0000
    31 C16      3.3513  12.8416   6.3021   C.3       1 RES1   0.0000
    32 H13      2.8201  12.6427   7.0765   H         1 RES1   0.0000
    33 H14      3.1459  13.7267   5.9919   H         1 RES1   0.0000
    34 H15      4.2823  12.7909   6.5309   H         1 RES1   0.0000
    35 C17     -0.0649  12.1362   3.0317   C.ar      1 RES1   0.0000
    36 C18      3.3513  10.4014   5.6675   C.3       1 RES1   0.0000
    37 H16      4.2587  10.3583   5.9773   H         1 RES1   0.0000
    38 H17      3.2324   9.7879   4.9386   H         1 RES1   0.0000
    39 H18      2.7569  10.1661   6.3837   H         1 RES1   0.0000
    40 C19      0.3141   5.7948   7.3175   C.3       1 RES1   0.0000
    41 H19     -0.3288   5.5792   6.6372   H         1 RES1   0.0000
    42 H20     -0.1366   5.9133   8.1567   H         1 RES1   0.0000
    43 H21      0.9496   5.0788   7.3942   H         1 RES1   0.0000
    44 C20     -2.4267   7.7671   6.0796   C.3       1 RES1   0.0000
    45 H22     -2.0059   7.1806   6.7121   H         1 RES1   0.0000
    46 H23     -3.3451   7.5118   5.9675   H         1 RES1   0.0000
    47 H24     -2.3825   8.6704   6.4019   H         1 RES1   0.0000
    48 C21      4.0246  12.1486   4.0569   C.3       1 RES1   0.0000
    49 H25      3.8623  13.0383   3.7358   H         1 RES1   0.0000
    50 H26      3.9027  11.5221   3.3394   H         1 RES1   0.0000
    51 H27      4.9247  12.0862   4.3858   H         1 RES1   0.0000
    52 C22      0.5398  11.0712   7.6982   C.3       1 RES1   0.0000
    53 H28      0.3773  10.2013   7.3241   H         1 RES1   0.0000
    54 H29      0.1773  11.1091   8.5865   H         1 RES1   0.0000
    55 H30      1.4851  11.2332   7.7309   H         1 RES1   0.0000
    56 C23      0.1017  13.5366   7.4140   C.3       1 RES1   0.0000
    57 H31      1.0412  13.7342   7.4089   H         1 RES1   0.0000
    58 H32     -0.2262  13.5652   8.3160   H         1 RES1   0.0000
    59 H33     -0.3649  14.1861   6.8832   H         1 RES1   0.0000
    60 C24      1.5858  11.9517   4.6870   C.ar      1 RES1   0.0000
    61 C25      1.5500   8.0641   1.9172   C.3       1 RES1   0.0000
    62 H34      0.8716   8.7346   2.1395   H         1 RES1   0.0000
    63 C26     -1.4787   5.8491   3.8907   C.3       1 RES1   0.0000
    64 H35     -1.5365   5.7996   2.9337   H         1 RES1   0.0000
    65 H36     -2.2153   5.3744   4.2813   H         1 RES1   0.0000
    66 H37     -0.6529   5.4557   4.1820   H         1 RES1   0.0000
    67 C27     -2.2171  12.4689   1.7929   C.3       1 RES1   0.0000
    68 H38     -2.5974  12.6222   0.9249   H         1 RES1   0.0000
    69 H39     -2.4256  13.2079   2.3688   H         1 RES1   0.0000
    70 H40     -2.5817  11.6616   2.1636   H         1 RES1   0.0000
    71 C28      2.0076   7.4895   8.0566   C.3       1 RES1   0.0000
    72 H41      2.6172   6.7690   8.2290   H         1 RES1   0.0000
    73 H42      1.5105   7.6867   8.8541   H         1 RES1   0.0000
    74 H43      2.5005   8.2685   7.7868   H         1 RES1   0.0000
    75 C29      2.6877   8.7843   1.1923   C.3       1 RES1   0.0000
    76 H44      3.0783   9.4353   1.7789   H         1 RES1   0.0000
    77 H45      2.3419   9.2219   0.4115   H         1 RES1   0.0000
    78 H46      3.3555   8.1454   0.9323   H         1 RES1   0.0000
    79 C30      0.9029   7.0527   0.9760   C.3       1 RES1   0.0000
    80 H47      1.5571   6.4058   0.7013   H         1 RES1   0.0000
    81 H48      0.5595   7.5079   0.2037   H         1 RES1   0.0000
    82 H49      0.1838   6.6066   1.4302   H         1 RES1   0.0000
    83 C31     -0.1316  13.6123   1.0431   C.3       1 RES1   0.0000
    84 H50      0.8248  13.5471   0.9939   H         1 RES1   0.0000
    85 H51     -0.3742  14.3665   1.5842   H         1 RES1   0.0000
    86 H52     -0.4908  13.7227   0.1596   H         1 RES1   0.0000
    87 C32     -2.5871   8.6368   3.2382   C.3       1 RES1   0.0000
    88 H53     -2.6109   9.5554   3.5194   H         1 RES1   0.0000
    89 H54     -3.4796   8.2834   3.2277   H         1 RES1   0.0000
    90 H55     -2.2106   8.5825   2.3571   H         1 RES1   0.0000
@<TRIPOS>BOND
     1     1     3    1
     2     2     3    1
     3     3     8    1
     4     4    20    1
     5     5     1   un
     6     6     1   un
     7     7     6    1
     8     8    27   ar
     9     9    10    1
    10    11     9    1
    11    12     9    1
    12    13    14    1
    13    15    31    1
    14    16    17    1
    15    18    13   ar
    16    19    18    1
    17    20    21    1
    18    22    20    1
    19    23    20    1
    20    24     5    1
    21    25     1   un
    22    26    25    1
    23    27    16   ar
    24    28     8   ar
    25    29    28    1
    26    30    29    1
    27    31    32    1
    28    33    31    1
    29    34    31    1
    30    35     1   un
    31    36    15    1
    32    37    36    1
    33    38    36    1
    34    39    36    1
    35    40    29    1
    36    41    40    1
    37    42    40    1
    38    43    40    1
    39    44     2    1
    40    45    44    1
    41    46    44    1
    42    47    44    1
    43    48    15    1
    44    49    48    1
    45    50    48    1
    46    51    48    1
    47    52    24    1
    48    53    52    1
    49    54    52    1
    50    55    52    1
    51    56    24    1
    52    57    56    1
    53    58    56    1
    54    59    56    1
    55    60     1   un
    56    61    27    1
    57    62    61    1
    58    63     2    1
    59    64    63    1
    60    65    63    1
    61    66    63    1
    62    67     4    1
    63    68    67    1
    64    69    67    1
    65    70    67    1
    66    71    29    1
    67    72    71    1
    68    73    71    1
    69    74    71    1
    70    75    61    1
    71    76    75    1
    72    77    75    1
    73    78    75    1
    74    79    61    1
    75    80    79    1
    76    81    79    1
    77    82    79    1
    78    83     4    1
    79    84    83    1
    80    85    83    1
    81    86    83    1
    82    87     2    1
    83    88    87    1
    84    89    87    1
    85    90    87    1
    86     4    35    1
    87     5     6   ar
    88     5    60   ar
    89     6    35   ar
    90     9    24    1
    91    13    28   ar
    92    15    60    1
    93    16    18   ar
    94    25    35   ar
    95    25    60   ar
@<TRIPOS>SUBSTRUCTURE
     1 RES1        1 GROUP             0 ****  ****    0  
@<TRIPOS>CRYSIN
    9.0636   19.4129    9.8538   90.0000  114.8990   90.0000     4     1
