@<TRIPOS>MOLECULE
RIDYIN
    93    97     2     0     0
SMALL
USER_CHARGES
****
Generated from the CSD

@<TRIPOS>ATOM
     1 Fe1     14.9277   2.3500  10.2991   Fe        1 RES1   0.0000
     2 B1      12.4736   0.5135  10.7985   B         1 RES1  -1.0000
     3 N1      14.9559   0.5773  11.1498   N.2       1 RES1   0.0000
     4 N2      13.7988  -0.1247  11.2831   N.pl3     1 RES1   0.0000
     5 N3      13.6627   1.6402   8.9524   N.2       1 RES1   0.0000
     6 N4      12.6143   0.8416   9.3005   N.pl3     1 RES1   0.0000
     7 N5      13.3512   2.7597  11.4317   N.2       1 RES1   0.0000
     8 N6      12.3264   1.8656  11.5311   N.pl3     1 RES1   0.0000
     9 N7      16.8552   3.5386  12.3602   N.1       1 RES1   0.0000
    10 N8      17.3843   1.5836   8.6415   N.1       1 RES1   0.0000
    11 N9      14.7555   5.0510   8.8619   N.1       1 RES1   0.0000
    12 N10     11.3244  -0.4105  11.1143   N.pl3     1 RES1   0.0000
    13 N11     10.7092  -1.1772  10.1879   N.2       1 RES1   0.0000
    14 C1      15.9199  -0.1580  11.6891   C.2       1 RES1   0.0000
    15 H1      16.8152   0.0886  11.7338   H         1 RES1   0.0000
    16 C2      15.3976  -1.3441  12.1745   C.2       1 RES1   0.0000
    17 H2      15.8599  -2.0317  12.5991   H         1 RES1   0.0000
    18 C3      14.0628  -1.2935  11.9001   C.2       1 RES1   0.0000
    19 H3      13.4400  -1.9539  12.1046   H         1 RES1   0.0000
    20 C4      13.5066   1.9344   7.6600   C.2       1 RES1   0.0000
    21 H4      14.0882   2.4619   7.1596   H         1 RES1   0.0000
    22 C5      12.3616   1.3450   7.1727   C.2       1 RES1   0.0000
    23 H5      12.0271   1.3918   6.3049   H         1 RES1   0.0000
    24 C6      11.8245   0.6795   8.2273   C.2       1 RES1   0.0000
    25 H6      11.0349   0.1898   8.2104   H         1 RES1   0.0000
    26 C7      12.9905   3.8529  12.0950   C.2       1 RES1   0.0000
    27 H7      13.5124   4.6182  12.1879   H         1 RES1   0.0000
    28 C8      11.7178   3.6843  12.6287   C.2       1 RES1   0.0000
    29 H8      11.2328   4.2911  13.1393   H         1 RES1   0.0000
    30 C9      11.3352   2.4335  12.2395   C.2       1 RES1   0.0000
    31 H9      10.5167   2.0371  12.4352   H         1 RES1   0.0000
    32 C10     16.1412   3.0956  11.5894   C.1       1 RES1   0.0000
    33 C11     16.4610   1.9041   9.2424   C.1       1 RES1   0.0000
    34 C12     14.8565   4.0626   9.4308   C.1       1 RES1   0.0000
    35 C13     10.8422  -0.7270  12.3264   C.2       1 RES1   0.0000
    36 H10     11.1117  -0.3470  13.1313   H         1 RES1   0.0000
    37 C14      9.9106  -1.6810  12.1888   C.2       1 RES1   0.0000
    38 H11      9.4108  -2.0859  12.8598   H         1 RES1   0.0000
    39 C15      9.8582  -1.9232  10.8592   C.2       1 RES1   0.0000
    40 H12      9.2883  -2.5432  10.4652   H         1 RES1   0.0000
    41 N12     11.7408   5.9533   5.0977   N.4       2 RES2   1.0000
    42 C16      9.9040   4.0995   9.4012   C.3       2 RES2   0.0000
    43 H13      9.6530   3.2048   9.1564   H         2 RES2   0.0000
    44 H14      9.3592   4.3941  10.1347   H         2 RES2   0.0000
    45 H15     10.8267   4.1121   9.6644   H         2 RES2   0.0000
    46 C17      9.7061   4.9978   8.2491   C.3       2 RES2   0.0000
    47 H16      9.6146   5.9088   8.5678   H         2 RES2   0.0000
    48 H17      8.8837   4.7574   7.7938   H         2 RES2   0.0000
    49 C18     10.8450   4.9299   7.2749   C.3       2 RES2   0.0000
    50 H18     10.9330   4.0218   6.9446   H         2 RES2   0.0000
    51 H19     11.6713   5.1677   7.7240   H         2 RES2   0.0000
    52 C19     10.6171   5.8647   6.1182   C.3       2 RES2   0.0000
    53 H20     10.4576   6.7529   6.4716   H         2 RES2   0.0000
    54 H21      9.8095   5.5871   5.6573   H         2 RES2   0.0000
    55 C20      8.6370   7.5591   1.4230   C.3       2 RES2   0.0000
    56 H22      8.6608   6.6933   1.0132   H         2 RES2   0.0000
    57 H23      8.5619   8.2333   0.7444   H         2 RES2   0.0000
    58 H24      7.8812   7.6133   2.0130   H         2 RES2   0.0000
    59 C21      9.9139   7.7802   2.2156   C.3       2 RES2   0.0000
    60 H25     10.6688   7.7724   1.6071   H         2 RES2   0.0000
    61 H26      9.8789   8.6545   2.6365   H         2 RES2   0.0000
    62 C22     10.1235   6.7468   3.2616   C.3       2 RES2   0.0000
    63 H27     10.1845   5.8745   2.8407   H         2 RES2   0.0000
    64 H28      9.3592   6.7367   3.8593   H         2 RES2   0.0000
    65 C23     11.3804   7.0036   4.0630   C.3       2 RES2   0.0000
    66 H29     11.2830   7.8555   4.5151   H         2 RES2   0.0000
    67 H30     12.1230   7.0873   3.4454   H         2 RES2   0.0000
    68 C24     14.1797   2.8234   1.9331   C.3       2 RES2   0.0000
    69 H31     13.9656   3.2789   1.1153   H         2 RES2   0.0000
    70 H32     14.2727   1.8834   1.7603   H         2 RES2   0.0000
    71 H33     15.0036   3.1686   2.2844   H         2 RES2   0.0000
    72 C25     13.0990   3.0403   2.9125   C.3       2 RES2   0.0000
    73 H34     13.2776   2.4962   3.6954   H         2 RES2   0.0000
    74 H35     12.2648   2.7330   2.5263   H         2 RES2   0.0000
    75 C26     12.9321   4.4868   3.3508   C.3       2 RES2   0.0000
    76 H36     13.7840   4.8333   3.6604   H         2 RES2   0.0000
    77 H37     12.6428   5.0249   2.5962   H         2 RES2   0.0000
    78 C27     11.9141   4.5803   4.4602   C.3       2 RES2   0.0000
    79 H38     12.1644   3.9513   5.1547   H         2 RES2   0.0000
    80 H39     11.0556   4.2983   4.1092   H         2 RES2   0.0000
    81 C28     14.3702   9.0792   8.1244   C.3       2 RES2   0.0000
    82 H40     13.9125   9.8510   7.7831   H         2 RES2   0.0000
    83 H41     15.2693   9.3178   8.3582   H         2 RES2   0.0000
    84 H42     13.9125   8.7539   8.9038   H         2 RES2   0.0000
    85 C29     14.3937   7.9956   7.0626   C.3       2 RES2   0.0000
    86 H43     14.8855   7.2301   7.3988   H         2 RES2   0.0000
    87 H44     14.8574   8.3273   6.2781   H         2 RES2   0.0000
    88 C30     12.9930   7.5605   6.6718   C.3       2 RES2   0.0000
    89 H45     12.4892   7.3350   7.4686   H         2 RES2   0.0000
    90 H46     12.5379   8.2911   6.2243   H         2 RES2   0.0000
    91 C31     13.0501   6.3681   5.7570   C.3       2 RES2   0.0000
    92 H47     13.3854   5.6124   6.2646   H         2 RES2   0.0000
    93 H48     13.6955   6.5541   5.0579   H         2 RES2   0.0000
@<TRIPOS>BOND
     1     1     3    1
     2     2     4    1
     3     3     4    1
     4     4    18    1
     5     5     1    1
     6     6     2    1
     7     7     1    1
     8     8     2    1
     9     9    32    3
    10    10    33    3
    11    11    34    3
    12    12     2    1
    13    13    12    1
    14    14     3    2
    15    15    14    1
    16    16    14    1
    17    17    16    1
    18    18    16    2
    19    19    18    1
    20    20     5    2
    21    21    20    1
    22    22    20    1
    23    23    22    1
    24    24     6    1
    25    25    24    1
    26    26     7    2
    27    27    26    1
    28    28    26    1
    29    29    28    1
    30    30     8    1
    31    31    30    1
    32    32     1    1
    33    33     1    1
    34    34     1    1
    35    35    12    1
    36    36    35    1
    37    37    35    2
    38    38    37    1
    39    39    13    2
    40    40    39    1
    41     5     6    1
    42     7     8    1
    43    22    24    2
    44    28    30    2
    45    37    39    1
    46    41    52    1
    47    42    43    1
    48    44    42    1
    49    45    42    1
    50    46    42    1
    51    47    46    1
    52    48    46    1
    53    49    46    1
    54    50    49    1
    55    51    49    1
    56    52    49    1
    57    53    52    1
    58    54    52    1
    59    55    56    1
    60    57    55    1
    61    58    55    1
    62    59    55    1
    63    60    59    1
    64    61    59    1
    65    62    59    1
    66    63    62    1
    67    64    62    1
    68    65    41    1
    69    66    65    1
    70    67    65    1
    71    68    69    1
    72    70    68    1
    73    71    68    1
    74    72    68    1
    75    73    72    1
    76    74    72    1
    77    75    72    1
    78    76    75    1
    79    77    75    1
    80    78    41    1
    81    79    78    1
    82    80    78    1
    83    81    82    1
    84    83    81    1
    85    84    81    1
    86    85    81    1
    87    86    85    1
    88    87    85    1
    89    88    85    1
    90    89    88    1
    91    90    88    1
    92    91    41    1
    93    92    91    1
    94    93    91    1
    95    62    65    1
    96    75    78    1
    97    88    91    1
@<TRIPOS>SUBSTRUCTURE
     1 RES1        1 GROUP             0 ****  ****    0  
     2 RES2       41 GROUP             0 ****  ****    0  
@<TRIPOS>CRYSIN
   14.7644   18.0753   26.8753   90.0000   90.0000   90.0000    61     1
