@<TRIPOS>MOLECULE
RIDYOT
   119   122     5     0     0
SMALL
USER_CHARGES
****
Generated from the CSD

@<TRIPOS>ATOM
     1 B1      -1.2882  -2.6924  11.0903   B         1 RES1  -1.0000
     2 H1      -1.0579  -3.5996  10.7982   H         1 RES1   0.0000
     3 C1      -2.4843   0.6751  13.7847   C.1       1 RES1   0.0000
     4 C2      -3.5130   1.2088  11.3899   C.1       1 RES1   0.0000
     5 C3      -0.9481   1.7099  11.8753   C.1       1 RES1   0.0000
     6 C4      -1.5705   0.2390   9.0217   C.2       1 RES1   0.0000
     7 H2      -1.7568   1.1451   8.9242   H         1 RES1   0.0000
     8 C5      -1.2385  -0.6275   7.9725   C.ar      1 RES1   0.0000
     9 C6      -1.0966  -0.5326   6.5825   C.ar      1 RES1   0.0000
    10 H3      -1.2078   0.2814   6.1457   H         1 RES1   0.0000
    11 C7      -0.7931  -1.6571   5.8934   C.ar      1 RES1   0.0000
    12 H4      -0.7000  -1.6056   4.9697   H         1 RES1   0.0000
    13 C8      -0.6201  -2.8815   6.5190   C.ar      1 RES1   0.0000
    14 H5      -0.4122  -3.6282   6.0026   H         1 RES1   0.0000
    15 C9      -0.7440  -3.0193   7.8662   C.ar      1 RES1   0.0000
    16 H6      -0.6304  -3.8417   8.2868   H         1 RES1   0.0000
    17 C10     -1.0515  -1.8669   8.5872   C.ar      1 RES1   0.0000
    18 C11      0.4564  -0.6947  13.5327   C.2       1 RES1   0.0000
    19 H7       0.5647   0.1003  14.0046   H         1 RES1   0.0000
    20 C12      1.2576  -1.8165  13.6586   C.ar      1 RES1   0.0000
    21 C13      2.3654  -2.1723  14.4709   C.ar      1 RES1   0.0000
    22 H8       2.7322  -1.5759  15.0832   H         1 RES1   0.0000
    23 C14      2.8593  -3.4160  14.3144   C.ar      1 RES1   0.0000
    24 H9       3.5845  -3.6754  14.8353   H         1 RES1   0.0000
    25 C15      2.3360  -4.3173  13.4144   C.ar      1 RES1   0.0000
    26 H10      2.7165  -5.1633  13.3509   H         1 RES1   0.0000
    27 C16      1.2995  -4.0138  12.6279   C.ar      1 RES1   0.0000
    28 H11      0.9563  -4.6256  12.0185   H         1 RES1   0.0000
    29 C17      0.7549  -2.7351  12.7639   C.ar      1 RES1   0.0000
    30 C18     -4.3674  -1.6245  12.6651   C.2       1 RES1   0.0000
    31 H12     -4.9007  -0.9543  13.0292   H         1 RES1   0.0000
    32 C19     -4.7227  -2.9610  12.5615   C.ar      1 RES1   0.0000
    33 C20     -5.8454  -3.7285  12.9259   C.ar      1 RES1   0.0000
    34 H13     -6.5807  -3.3238  13.3258   H         1 RES1   0.0000
    35 C21     -5.8412  -5.0200  12.6943   C.ar      1 RES1   0.0000
    36 H14     -6.5794  -5.5305  12.9377   H         1 RES1   0.0000
    37 C22     -4.7385  -5.6442  12.0804   C.ar      1 RES1   0.0000
    38 H15     -4.7764  -6.5582  11.9181   H         1 RES1   0.0000
    39 C23     -3.6202  -4.9584  11.7175   C.ar      1 RES1   0.0000
    40 H16     -2.8873  -5.3804  11.3294   H         1 RES1   0.0000
    41 C24     -3.6379  -3.5775  11.9615   C.ar      1 RES1   0.0000
    42 Fe1     -2.0204   0.1560  12.0068   Fe        1 RES1   0.0000
    43 N1      -1.5837  -0.4055  10.1544   N.2       1 RES1   0.0000
    44 N2      -1.2732  -1.7120   9.9239   N.pl3     1 RES1   0.0000
    45 N3      -0.4884  -0.9287  12.6345   N.2       1 RES1   0.0000
    46 N4      -0.2973  -2.1874  12.1309   N.pl3     1 RES1   0.0000
    47 N5      -3.1543  -1.4495  12.1654   N.2       1 RES1   0.0000
    48 N6      -2.7059  -2.6521  11.7197   N.pl3     1 RES1   0.0000
    49 N7      -2.7626   0.9570  14.8520   N.1       1 RES1   0.0000
    50 N8      -4.3817   1.8220  11.0107   N.1       1 RES1   0.0000
    51 N9      -0.2771   2.6325  11.7632   N.1       1 RES1   0.0000
    52 C25     -3.4368   4.1990   5.7326   C.3       2 RES2   0.0000
    53 H17     -3.1463   3.8359   4.8930   H         2 RES2   0.0000
    54 H18     -4.3508   3.9517   5.8890   H         2 RES2   0.0000
    55 H19     -2.8858   3.8544   6.4379   H         2 RES2   0.0000
    56 C26     -3.3266   5.6513   5.6957   C.3       2 RES2   0.0000
    57 H20     -3.4354   5.9858   6.6002   H         2 RES2   0.0000
    58 H21     -4.0620   5.9978   5.1674   H         2 RES2   0.0000
    59 C27     -2.0284   6.2137   5.1320   C.3       2 RES2   0.0000
    60 H22     -1.2722   5.8094   5.5880   H         2 RES2   0.0000
    61 H23     -1.9614   5.9970   4.1891   H         2 RES2   0.0000
    62 C28     -1.9894   7.6811   5.3091   C.3       2 RES2   0.0000
    63 H24     -2.0964   7.8761   6.2534   H         2 RES2   0.0000
    64 H25     -2.7524   8.0640   4.8472   H         2 RES2   0.0000
    65 C29      1.9349   7.0671   8.8785   C.3       2 RES2   0.0000
    66 H26      1.8917   7.9609   9.2267   H         2 RES2   0.0000
    67 H27      2.7689   6.6652   9.1323   H         2 RES2   0.0000
    68 H28      1.2086   6.5503   9.2311   H         2 RES2   0.0000
    69 C30      1.8395   7.1094   7.4044   C.3       2 RES2   0.0000
    70 H29      1.8434   6.1987   7.0724   H         2 RES2   0.0000
    71 H30      2.6338   7.5471   7.0591   H         2 RES2   0.0000
    72 C31      0.6482   7.8021   6.8555   C.3       2 RES2   0.0000
    73 H31     -0.1451   7.3981   7.2421   H         2 RES2   0.0000
    74 H32      0.6720   8.7273   7.1447   H         2 RES2   0.0000
    75 C32      0.5151   7.7773   5.4138   C.3       2 RES2   0.0000
    76 H33      0.5670   6.8520   5.1246   H         2 RES2   0.0000
    77 H34      1.2807   8.2381   5.0361   H         2 RES2   0.0000
    78 C33     -2.5449   8.9625   0.1903   C.3       2 RES2   0.0000
    79 H35     -3.3937   8.6258   0.4884   H         2 RES2   0.0000
    80 H36     -2.3821   8.6682  -0.7083   H         2 RES2   0.0000
    81 H37     -2.5543   9.9222   0.2154   H         2 RES2   0.0000
    82 C34     -1.5053   8.4705   1.0521   C.3       2 RES2   0.0000
    83 H38     -0.6554   8.8246   0.7481   H         2 RES2   0.0000
    84 H39     -1.4676   7.5050   0.9739   H         2 RES2   0.0000
    85 C35     -1.6856   8.8217   2.4598   C.3       2 RES2   0.0000
    86 H40     -2.5483   8.5007   2.7652   H         2 RES2   0.0000
    87 H41     -1.6736   9.7874   2.5557   H         2 RES2   0.0000
    88 C36     -0.5962   8.2198   3.3112   C.3       2 RES2   0.0000
    89 H42      0.2488   8.6122   3.0397   H         2 RES2   0.0000
    90 H43     -0.5491   7.2711   3.1120   H         2 RES2   0.0000
    91 C37     -1.1735  12.8302   4.6215   C.3       2 RES2   0.0000
    92 H44     -1.1495  12.6772   3.6742   H         2 RES2   0.0000
    93 H45     -1.1584  13.7740   4.7941   H         2 RES2   0.0000
    94 H46     -1.9768  12.4524   4.9859   H         2 RES2   0.0000
    95 C38      0.0060  12.1921   5.2574   C.3       2 RES2   0.0000
    96 H47     -0.1117  12.2084   6.2195   H         2 RES2   0.0000
    97 H48      0.7945  12.7180   5.0479   H         2 RES2   0.0000
    98 C39      0.2467  10.7685   4.8221   C.3       2 RES2   0.0000
    99 H49      0.3569  10.7472   3.8586   H         2 RES2   0.0000
   100 H50      1.0711  10.4524   5.2220   H         2 RES2   0.0000
   101 C40     -0.8699   9.8366   5.2058   C.3       2 RES2   0.0000
   102 H51     -1.6892  10.1754   4.8118   H         2 RES2   0.0000
   103 H52     -0.9755   9.8792   6.1693   H         2 RES2   0.0000
   104 N10     -0.7310   8.3818   4.8157   N.4       2 RES2   1.0000
   105 C41     -2.2232   7.4067   9.0673   C.3       3 RES3   0.0000
   106 H53     -2.5798   7.1292   8.2204   H         3 RES3   0.0000
   107 H54     -1.3978   7.8755   8.9301   H         3 RES3   0.0000
   108 H55     -2.8517   7.9864   9.5041   H         3 RES3   0.0000
   109 C42     -1.9938   6.2824   9.8656   C.1       3 RES3   0.0000
   110 N11     -1.8270   5.4511  10.6359   N.1       3 RES3   0.0000
   111 C43      6.0458   6.0322   0.9326   C.3       4 RES4   0.0000
   112 H56      6.2363   6.8527   1.3915   H         4 RES4   0.0000
   113 H57      5.1056   5.8456   0.9872   H         4 RES4   0.0000
   114 H58      6.3021   6.1125   0.0118   H         4 RES4   0.0000
   115 C44      6.7528   5.0032   1.5184   C.1       4 RES4   0.0000
   116 N12      7.3149   4.1571   2.0053   N.1       4 RES4   0.0000
   117 O1       1.4488   4.8432  12.3691   O.3       5 RES5   0.0000
   118 H59      1.5638   5.0907  13.1738   H         5 RES5   0.0000
   119 H60      1.2039   4.0299  12.3446   H         5 RES5   0.0000
@<TRIPOS>BOND
     1     1     2    1
     2     3    42    1
     3     4    42    1
     4     5    42    1
     5     6     7    1
     6     8     6    1
     7     9     8   ar
     8    10     9    1
     9    11     9   ar
    10    12    11    1
    11    13    11   ar
    12    14    13    1
    13    15    13   ar
    14    16    15    1
    15    17     8   ar
    16    18    19    1
    17    20    18    1
    18    21    20   ar
    19    22    21    1
    20    23    21   ar
    21    24    23    1
    22    25    23   ar
    23    26    25    1
    24    27    25   ar
    25    28    27    1
    26    29    20   ar
    27    30    31    1
    28    32    30    1
    29    33    32   ar
    30    34    33    1
    31    35    33   ar
    32    36    35    1
    33    37    35   ar
    34    38    37    1
    35    39    37   ar
    36    40    39    1
    37    41    32   ar
    38    42    43    1
    39    43     6    2
    40    44     1    1
    41    45    18    2
    42    46     1    1
    43    47    30    2
    44    48     1    1
    45    49     3    3
    46    50     4    3
    47    51     5    3
    48    15    17   ar
    49    17    44    1
    50    27    29   ar
    51    29    46    1
    52    39    41   ar
    53    41    48    1
    54    42    45    1
    55    42    47    1
    56    43    44    1
    57    45    46    1
    58    47    48    1
    59    52    53    1
    60    54    52    1
    61    55    52    1
    62    56    52    1
    63    57    56    1
    64    58    56    1
    65    59    56    1
    66    60    59    1
    67    61    59    1
    68    62    59    1
    69    63    62    1
    70    64    62    1
    71    65    66    1
    72    67    65    1
    73    68    65    1
    74    69    65    1
    75    70    69    1
    76    71    69    1
    77    72    69    1
    78    73    72    1
    79    74    72    1
    80    75    72    1
    81    76    75    1
    82    77    75    1
    83    78    79    1
    84    80    78    1
    85    81    78    1
    86    82    78    1
    87    83    82    1
    88    84    82    1
    89    85    82    1
    90    86    85    1
    91    87    85    1
    92    88    85    1
    93    89    88    1
    94    90    88    1
    95    91    92    1
    96    93    91    1
    97    94    91    1
    98    95    91    1
    99    96    95    1
   100    97    95    1
   101    98    95    1
   102    99    98    1
   103   100    98    1
   104   101    98    1
   105   102   101    1
   106   103   101    1
   107   104    62    1
   108    75   104    1
   109    88   104    1
   110   101   104    1
   111   105   106    1
   112   107   105    1
   113   108   105    1
   114   109   105    1
   115   110   109    3
   116   111   112    1
   117   113   111    1
   118   114   111    1
   119   115   111    1
   120   116   115    3
   121   117   118    1
   122   119   117    1
@<TRIPOS>SUBSTRUCTURE
     1 RES1        1 GROUP             0 ****  ****    0  
     2 RES2       52 GROUP             0 ****  ****    0  
     3 RES3      105 GROUP             0 ****  ****    0  
     4 RES4      111 GROUP             0 ****  ****    0  
     5 RES5      117 GROUP             0 ****  ****    0  
@<TRIPOS>CRYSIN
   12.0030   13.9070   16.0650   95.4310  109.9970  106.2910     2     1
