@<TRIPOS>MOLECULE
RILCAQ
   140   148     4     0     0
SMALL
USER_CHARGES
****
Generated from the CSD

@<TRIPOS>ATOM
     1 Fe1      3.4539   0.0000  10.0027   Fe        1 RES1   0.0000
     2 F1       4.0690   0.6129   8.3049   F         1 RES1   0.0000
     3 N1       5.3646   0.3293  10.7429   N.2       1 RES1  -1.0000
     4 N2       2.9089   1.9426  10.4668   N.2       1 RES1   0.0000
     5 C1       5.8646   1.5489  11.1590   C.2       1 RES1   0.0000
     6 C2       5.0885   2.7213  11.2991   C.2       1 RES1   0.0000
     7 C3       3.7558   2.9021  10.9730   C.2       1 RES1   0.0000
     8 C4       3.0106   4.1353  11.0850   C.2       1 RES1   0.0000
     9 H1       3.3399   4.9413  11.4091   H         1 RES1   0.0000
    10 C5       1.7761   3.9186  10.6449   C.2       1 RES1   0.0000
    11 H2       1.0923   4.5488  10.5969   H         1 RES1   0.0000
    12 C6       1.6832   2.5245  10.2548   C.2       1 RES1   0.0000
    13 C7       0.5479   1.8807   9.7426   C.2       1 RES1   0.0000
    14 C8       6.4325  -0.5299  10.6829   C.2       1 RES1   0.0000
    15 C9       7.6285   0.1597  11.0650   C.2       1 RES1   0.0000
    16 H3       8.4852  -0.1993  11.1050   H         1 RES1   0.0000
    17 C10      7.2759   1.4312  11.3571   C.2       1 RES1   0.0000
    18 H4       7.8482   2.1085  11.6372   H         1 RES1   0.0000
    19 C11      5.8062   3.9037  11.8972   C.ar      1 RES1   0.0000
    20 C12      6.0986   3.9273  13.2316   C.ar      1 RES1   0.0000
    21 H5       5.8663   3.2005  13.7617   H         1 RES1   0.0000
    22 C13      6.7367   5.0094  13.8057   C.ar      1 RES1   0.0000
    23 H6       6.9245   5.0019  14.7160   H         1 RES1   0.0000
    24 C14      7.0975   6.0915  13.0535   C.ar      1 RES1   0.0000
    25 H7       7.4977   6.8331  13.4477   H         1 RES1   0.0000
    26 C15      6.8593   6.0630  11.7092   C.ar      1 RES1   0.0000
    27 H8       7.1344   6.7724  11.1750   H         1 RES1   0.0000
    28 C16      6.2078   4.9796  11.1390   C.ar      1 RES1   0.0000
    29 H9       6.0396   4.9796  10.2248   H         1 RES1   0.0000
    30 C17     -0.7034   2.6854   9.6166   C.ar      1 RES1   0.0000
    31 C18     -1.2960   3.3107  10.7009   C.ar      1 RES1   0.0000
    32 H10     -0.9234   3.2054  11.5451   H         1 RES1   0.0000
    33 C19     -2.4315   4.0870  10.5509   C.ar      1 RES1   0.0000
    34 H11     -2.8092   4.5017  11.2931   H         1 RES1   0.0000
    35 C20     -3.0028   4.2492   9.3125   C.ar      1 RES1   0.0000
    36 H12     -3.7592   4.7828   9.2145   H         1 RES1   0.0000
    37 C21     -2.4491   3.6140   8.2082   C.ar      1 RES1   0.0000
    38 H13     -2.8400   3.7056   7.3680   H         1 RES1   0.0000
    39 C22     -1.3114   2.8452   8.3683   C.ar      1 RES1   0.0000
    40 H14     -0.9410   2.4242   7.6261   H         1 RES1   0.0000
    41 F1B      2.8389  -0.6129  11.7006   F         1 RES1   0.0000
    42 N1B      1.5433  -0.3293   9.2625   N.2       1 RES1   0.0000
    43 C1B      1.0433  -1.5489   8.8464   C.2       1 RES1   0.0000
    44 C2B      1.8194  -2.7213   8.7064   C.2       1 RES1   0.0000
    45 C3B      3.1521  -2.9021   9.0325   C.2       1 RES1   0.0000
    46 N2B      3.9989  -1.9426   9.5386   N.2       1 RES1   0.0000
    47 C6B      5.2247  -2.5245   9.7506   C.2       1 RES1   0.0000
    48 C5B      5.1318  -3.9186   9.3605   C.2       1 RES1   0.0000
    49 C4B      3.8973  -4.1353   8.9204   C.2       1 RES1   0.0000
    50 H1B      3.5679  -4.9413   8.5963   H         1 RES1   0.0000
    51 H2B      5.8155  -4.5488   9.4086   H         1 RES1   0.0000
    52 C7B      6.3599  -1.8807  10.2628   C.2       1 RES1   0.0000
    53 C17B     7.6112  -2.6854  10.3888   C.ar      1 RES1   0.0000
    54 C18B     8.2038  -3.3107   9.3045   C.ar      1 RES1   0.0000
    55 H10B     7.8312  -3.2054   8.4603   H         1 RES1   0.0000
    56 C19B     9.3393  -4.0870   9.4546   C.ar      1 RES1   0.0000
    57 H11B     9.7171  -4.5017   8.7124   H         1 RES1   0.0000
    58 C20B     9.9107  -4.2492  10.6929   C.ar      1 RES1   0.0000
    59 H12B    10.6670  -4.7828  10.7909   H         1 RES1   0.0000
    60 C21B     9.3570  -3.6140  11.7972   C.ar      1 RES1   0.0000
    61 H13B     9.7478  -3.7056  12.6374   H         1 RES1   0.0000
    62 C22B     8.2192  -2.8452  11.6372   C.ar      1 RES1   0.0000
    63 H14B     7.8489  -2.4242  12.3794   H         1 RES1   0.0000
    64 C11B     1.1017  -3.9037   8.1082   C.ar      1 RES1   0.0000
    65 C12B     0.8093  -3.9273   6.7738   C.ar      1 RES1   0.0000
    66 H5B      1.0415  -3.2005   6.2437   H         1 RES1   0.0000
    67 C13B     0.1711  -5.0094   6.1997   C.ar      1 RES1   0.0000
    68 H6B     -0.0166  -5.0019   5.2894   H         1 RES1   0.0000
    69 C14B    -0.1896  -6.0915   6.9519   C.ar      1 RES1   0.0000
    70 H7B     -0.5899  -6.8331   6.5578   H         1 RES1   0.0000
    71 C15B     0.0485  -6.0630   8.2963   C.ar      1 RES1   0.0000
    72 H8B     -0.2266  -6.7724   8.8304   H         1 RES1   0.0000
    73 C16B     0.7000  -4.9796   8.8664   C.ar      1 RES1   0.0000
    74 H9B      0.8682  -4.9796   9.7807   H         1 RES1   0.0000
    75 C10B    -0.3681  -1.4312   8.6483   C.2       1 RES1   0.0000
    76 C9B     -0.7206  -0.1597   8.9404   C.2       1 RES1   0.0000
    77 C8B      0.4754   0.5299   9.3225   C.2       1 RES1   0.0000
    78 H3B     -1.5773   0.1993   8.9004   H         1 RES1   0.0000
    79 H4B     -0.9403  -2.1085   8.3683   H         1 RES1   0.0000
    80 N3       1.7270   1.1700   5.0014   N.4       2 RES2   1.0000
    81 C23      2.1185   2.0292   6.1957   C.3       2 RES2   0.0000
    82 H15      1.3195   2.4688   6.5258   H         2 RES2   0.0000
    83 H16      2.4383   1.4424   6.8979   H         2 RES2   0.0000
    84 C24      3.1755   3.0928   5.9476   C.3       2 RES2   0.0000
    85 H17      3.9942   2.6755   5.6355   H         2 RES2   0.0000
    86 H18      2.8687   3.7093   5.2654   H         2 RES2   0.0000
    87 C25      3.4391   3.8418   7.2340   C.3       2 RES2   0.0000
    88 H19      3.7941   3.2240   7.8921   H         2 RES2   0.0000
    89 H20      2.6000   4.1860   7.5761   H         2 RES2   0.0000
    90 C26      4.4112   4.9920   7.0639   C.3       2 RES2   0.0000
    91 H21      4.5400   5.4291   7.9101   H         2 RES2   0.0000
    92 H22      4.0571   5.6197   6.4297   H         2 RES2   0.0000
    93 H23      5.2524   4.6565   6.7458   H         2 RES2   0.0000
    94 C27      0.5601   0.3145   5.4615   C.3       2 RES2   0.0000
    95 H24      0.8239  -0.1486   6.2717   H         2 RES2   0.0000
    96 H25     -0.1758   0.9026   5.6895   H         2 RES2   0.0000
    97 C28      0.0568  -0.7082   4.4772   C.3       2 RES2   0.0000
    98 H26      0.6885  -1.4424   4.4172   H         2 RES2   0.0000
    99 H27     -0.0253  -0.3046   3.5990   H         2 RES2   0.0000
   100 C29     -1.2954  -1.2344   4.9273   C.3       2 RES2   0.0000
   101 H28     -1.2115  -1.5996   5.8216   H         2 RES2   0.0000
   102 H29     -1.9261  -0.4977   4.9653   H         2 RES2   0.0000
   103 C30     -1.8385  -2.3004   4.0091   C.3       2 RES2   0.0000
   104 H30     -2.6912  -2.6000   4.3332   H         2 RES2   0.0000
   105 H31     -1.2295  -3.0408   3.9831   H         2 RES2   0.0000
   106 H32     -1.9424  -1.9389   3.1248   H         2 RES2   0.0000
   107 C23A     1.3355   2.0292   3.8070   C.3       2 RES2   0.0000
   108 H15A     2.1344   2.4688   3.4769   H         2 RES2   0.0000
   109 H16A     1.0156   1.4424   3.1048   H         2 RES2   0.0000
   110 C24A     0.2784   3.0928   4.0551   C.3       2 RES2   0.0000
   111 H17A    -0.5403   2.6755   4.3672   H         2 RES2   0.0000
   112 H18A     0.5852   3.7093   4.7373   H         2 RES2   0.0000
   113 C25A     0.0149   3.8418   2.7688   C.3       2 RES2   0.0000
   114 H19A    -0.3402   3.2240   2.1106   H         2 RES2   0.0000
   115 H20A     0.8539   4.1860   2.4267   H         2 RES2   0.0000
   116 C26A    -0.9573   4.9920   2.9388   C.3       2 RES2   0.0000
   117 H21A    -1.0861   5.4291   2.0926   H         2 RES2   0.0000
   118 H22A    -0.6032   5.6197   3.5730   H         2 RES2   0.0000
   119 H23A    -1.7985   4.6565   3.2569   H         2 RES2   0.0000
   120 C27A     2.8938   0.3145   4.5412   C.3       2 RES2   0.0000
   121 H24A     2.6301  -0.1486   3.7310   H         2 RES2   0.0000
   122 H25A     3.6297   0.9026   4.3132   H         2 RES2   0.0000
   123 C28A     3.3971  -0.7082   5.5255   C.3       2 RES2   0.0000
   124 H26A     2.7654  -1.4424   5.5855   H         2 RES2   0.0000
   125 H27A     3.4792  -0.3046   6.4037   H         2 RES2   0.0000
   126 C29A     4.7493  -1.2344   5.0754   C.3       2 RES2   0.0000
   127 H28A     4.6654  -1.5996   4.1811   H         2 RES2   0.0000
   128 H29A     5.3800  -0.4977   5.0374   H         2 RES2   0.0000
   129 C30A     5.2925  -2.3004   5.9936   C.3       2 RES2   0.0000
   130 H30A     6.1451  -2.6000   5.6695   H         2 RES2   0.0000
   131 H31A     4.6834  -3.0408   6.0196   H         2 RES2   0.0000
   132 H32A     5.3963  -1.9389   6.8779   H         2 RES2   0.0000
   133 Cl1     -1.2583   0.0941  12.7087   Cl        3 RES3   0.0000
   134 Cl2      0.0759  -2.3029  13.5957   Cl        3 RES3   0.0000
   135 C31     -0.1202  -1.1564  12.3053   C.3       3 RES3   0.0000
   136 H33     -0.4264  -1.6207  11.5111   H         3 RES3   0.0000
   137 H34      0.7377  -0.7540  12.1033   H         3 RES3   0.0000
   138 Cl3     -1.0477   5.7052  13.5977   Cl        4 RES4   0.0000
   139 C32     -0.9626   6.4059  15.0041   C.3       4 RES4   0.0000
   140 Cl3A    -0.8776   5.7052  16.4105   Cl        4 RES4   0.0000
@<TRIPOS>BOND
     1     1     2    1
     2     3     1    1
     3     4     1    1
     4     5     3    1
     5     6     5    2
     6     7     4    2
     7     8     7    1
     8     9     8    1
     9    10     8    2
    10    11    10    1
    11    12     4    1
    12    13    12    2
    13    14     3    1
    14    15    14    1
    15    16    15    1
    16    17     5    1
    17    18    17    1
    18    19     6    1
    19    20    19   ar
    20    21    20    1
    21    22    20   ar
    22    23    22    1
    23    24    22   ar
    24    25    24    1
    25    26    24   ar
    26    27    26    1
    27    28    19   ar
    28    29    28    1
    29    30    13    1
    30    31    30   ar
    31    32    31    1
    32    33    31   ar
    33    34    33    1
    34    35    33   ar
    35    36    35    1
    36    37    35   ar
    37    38    37    1
    38    39    30   ar
    39    40    39    1
    40    41     1    1
    41    42     1    1
    42    43    42    1
    43    44    43    1
    44    45    44    2
    45    46     1    1
    46    47    46    2
    47    48    47    1
    48    49    45    1
    49    50    49    1
    50    51    48    1
    51    52    14    2
    52    53    52    1
    53    54    53   ar
    54    55    54    1
    55    56    54   ar
    56    57    56    1
    57    58    56   ar
    58    59    58    1
    59    60    58   ar
    60    61    60    1
    61    62    53   ar
    62    63    62    1
    63    64    44    1
    64    65    64   ar
    65    66    65    1
    66    67    65   ar
    67    68    67    1
    68    69    67   ar
    69    70    69    1
    70    71    69   ar
    71    72    71    1
    72    73    64   ar
    73    74    73    1
    74    75    43    2
    75    76    75    1
    76    77    13    1
    77    78    76    1
    78    79    75    1
    79     6     7    1
    80    10    12    1
    81    15    17    2
    82    26    28   ar
    83    37    39   ar
    84    42    77    1
    85    45    46    1
    86    47    52    1
    87    48    49    2
    88    60    62   ar
    89    71    73   ar
    90    76    77    2
    91    80    81    1
    92    81    82    1
    93    83    81    1
    94    84    81    1
    95    85    84    1
    96    86    84    1
    97    87    84    1
    98    88    87    1
    99    89    87    1
   100    90    87    1
   101    91    90    1
   102    92    90    1
   103    93    90    1
   104    94    80    1
   105    95    94    1
   106    96    94    1
   107    97    94    1
   108    98    97    1
   109    99    97    1
   110   100    97    1
   111   101   100    1
   112   102   100    1
   113   103   100    1
   114   104   103    1
   115   105   103    1
   116   106   103    1
   117   107    80    1
   118   108   107    1
   119   109   107    1
   120   110   107    1
   121   111   110    1
   122   112   110    1
   123   113   110    1
   124   114   113    1
   125   115   113    1
   126   116   113    1
   127   117   116    1
   128   118   116    1
   129   119   116    1
   130   120    80    1
   131   121   120    1
   132   122   120    1
   133   123   120    1
   134   124   123    1
   135   125   123    1
   136   126   123    1
   137   127   126    1
   138   128   126    1
   139   129   126    1
   140   130   129    1
   141   131   129    1
   142   132   129    1
   143   133   135    1
   144   134   135    1
   145   135   136    1
   146   137   135    1
   147   138   139    1
   148   139   140    1
@<TRIPOS>SUBSTRUCTURE
     1 RES1        1 GROUP             0 ****  ****    0  
     2 RES2       80 GROUP             0 ****  ****    0  
     3 RES3      133 GROUP             0 ****  ****    0  
     4 RES4      138 GROUP             0 ****  ****    0  
