@<TRIPOS>MOLECULE
RIMYET
    93    97     3     0     0
SMALL
USER_CHARGES
****
Generated from the CSD

@<TRIPOS>ATOM
     1 Fe1     12.3816   1.6564   0.0337   Fe        1 RES1   2.0000
     2 N1      12.8242  -0.2245  -0.3783   N.ar      1 RES1   0.0000
     3 N2      14.3091   1.6588   0.5556   N.3       1 RES1   0.0000
     4 N3      12.0226   1.3801   1.9801   N.3       1 RES1   0.0000
     5 N4      11.9597   3.5240   0.5429   N.ar      1 RES1   0.0000
     6 N5      10.5318   1.4223  -0.4147   N.1       1 RES1   0.0000
     7 N6      12.8137   2.1289  -1.7902   N.1       1 RES1   0.0000
     8 O1      14.0888  -4.0076  -1.3613   O.3       1 RES1   0.0000
     9 O2      10.7430   7.2092   1.8741   O.3       1 RES1   0.0000
    10 C1      14.4484  -4.8559  -0.2881   C.3       1 RES1   0.0000
    11 H1      15.2440  -4.5199   0.1330   H         1 RES1   0.0000
    12 H2      14.6132  -5.7418  -0.6205   H         1 RES1   0.0000
    13 H3      13.7352  -4.8830   0.3530   H         1 RES1   0.0000
    14 C2      13.6783  -2.7391  -0.9782   C.ar      1 RES1   0.0000
    15 C3      12.3552  -2.5131  -0.8057   C.ar      1 RES1   0.0000
    16 C4      11.3019  -3.5843  -0.9434   C.3       1 RES1   0.0000
    17 H4      10.5048  -3.3101  -0.4828   H         1 RES1   0.0000
    18 H5      11.6270  -4.4024  -0.5619   H         1 RES1   0.0000
    19 H6      11.1041  -3.7214  -1.8725   H         1 RES1   0.0000
    20 C5      11.9612  -1.2475  -0.5271   C.ar      1 RES1   0.0000
    21 H7      11.0517  -1.0757  -0.4353   H         1 RES1   0.0000
    22 C6      14.1203  -0.4866  -0.5413   C.ar      1 RES1   0.0000
    23 C7      14.6147  -1.7311  -0.8373   C.ar      1 RES1   0.0000
    24 C8      16.0726  -1.9631  -1.0320   C.3       1 RES1   0.0000
    25 H8      16.3992  -1.3846  -1.7237   H         1 RES1   0.0000
    26 H9      16.2209  -2.8777  -1.2853   H         1 RES1   0.0000
    27 H10     16.5386  -1.7778  -0.2137   H         1 RES1   0.0000
    28 C9      15.0178   0.6946  -0.3466   C.3       1 RES1   0.0000
    29 H11     15.2110   1.1134  -1.1998   H         1 RES1   0.0000
    30 H12     15.8553   0.4158   0.0554   H         1 RES1   0.0000
    31 C10     15.0732   2.9500   0.5730   C.3       1 RES1   0.0000
    32 H13     15.3878   3.1699  -0.3182   H         1 RES1   0.0000
    33 H14     14.5098   3.6732   0.8896   H         1 RES1   0.0000
    34 C11     16.2209   2.7421   1.4942   C.3       1 RES1   0.0000
    35 H15     16.4367   3.5632   1.9612   H         1 RES1   0.0000
    36 H16     17.0030   2.4468   1.0019   H         1 RES1   0.0000
    37 C12     15.7744   1.6814   2.4645   C.3       1 RES1   0.0000
    38 H17     15.6755   2.0535   3.3541   H         1 RES1   0.0000
    39 H18     16.4217   0.9582   2.4993   H         1 RES1   0.0000
    40 C13     14.4439   1.1797   1.9453   C.3       1 RES1   0.0000
    41 H19     14.4484   0.2004   1.9469   H         1 RES1   0.0000
    42 C14     13.2812   1.6633   2.7367   C.3       1 RES1   0.0000
    43 H20     13.3636   2.6291   2.8808   H         1 RES1   0.0000
    44 C15     13.1224   0.9507   4.1091   C.3       1 RES1   0.0000
    45 H21     13.9090   0.4188   4.3085   H         1 RES1   0.0000
    46 H22     12.9980   1.6015   4.8182   H         1 RES1   0.0000
    47 C16     11.8922   0.0603   3.9777   C.3       1 RES1   0.0000
    48 H23     12.0705  -0.8317   4.3148   H         1 RES1   0.0000
    49 H24     11.1386   0.4354   4.4605   H         1 RES1   0.0000
    50 C17     11.6255   0.0362   2.4930   C.3       1 RES1   0.0000
    51 H25     12.1485  -0.6599   2.0640   H         1 RES1   0.0000
    52 H26     10.6861  -0.1311   2.3173   H         1 RES1   0.0000
    53 C18     11.0052   2.3579   2.3743   C.3       1 RES1   0.0000
    54 H27     11.0307   2.4905   3.3335   H         1 RES1   0.0000
    55 H28     10.1242   2.0294   2.1353   H         1 RES1   0.0000
    56 C19     11.2674   3.6430   1.6810   C.ar      1 RES1   0.0000
    57 C20     10.8449   4.8619   2.1764   C.ar      1 RES1   0.0000
    58 C21     10.0493   4.9478   3.4490   C.3       1 RES1   0.0000
    59 H29     10.6471   5.0337   4.1946   H         1 RES1   0.0000
    60 H30      9.5219   4.1523   3.5503   H         1 RES1   0.0000
    61 H31      9.4694   5.7131   3.4126   H         1 RES1   0.0000
    62 C22     11.1446   5.9632   1.4293   C.ar      1 RES1   0.0000
    63 C23     11.5956   7.8149   2.8349   C.3       1 RES1   0.0000
    64 H32     11.6900   7.2318   3.5915   H         1 RES1   0.0000
    65 H33     11.2165   8.6496   3.1182   H         1 RES1   0.0000
    66 H34     12.4586   7.9716   2.4439   H         1 RES1   0.0000
    67 C24     11.7949   5.8939   0.2469   C.ar      1 RES1   0.0000
    68 C25     12.0496   7.0887  -0.6078   C.3       1 RES1   0.0000
    69 H35     11.2480   7.6115  -0.6727   H         1 RES1   0.0000
    70 H36     12.3178   6.8024  -1.4831   H         1 RES1   0.0000
    71 H37     12.7463   7.6190  -0.2153   H         1 RES1   0.0000
    72 C26     12.2054   4.6389  -0.1583   C.ar      1 RES1   0.0000
    73 H38     12.6744   4.5636  -0.9592   H         1 RES1   0.0000
    74 C27      9.4275   1.2520  -0.6759   C.1       1 RES1   0.0000
    75 C28      8.0400   1.0200  -0.9719   C.3       1 RES1   0.0000
    76 H39      7.9082   0.0919  -1.1824   H         1 RES1   0.0000
    77 H40      7.7763   1.5579  -1.7221   H         1 RES1   0.0000
    78 H41      7.5066   1.2535  -0.2074   H         1 RES1   0.0000
    79 C29     13.1089   2.3835  -2.8523   C.1       1 RES1   0.0000
    80 C30     13.4325   2.7210  -4.2135   C.3       1 RES1   0.0000
    81 H42     13.6992   1.9285  -4.6852   H         1 RES1   0.0000
    82 H43     14.1517   3.3568  -4.2230   H         1 RES1   0.0000
    83 H44     12.6624   3.1037  -4.6393   H         1 RES1   0.0000
    84 Cl1     14.9959   6.4291  12.7366   Cl        2 RES2   0.0000
    85 O3      15.9183   6.2887  11.7748   O.3       2 RES2  -1.0000
    86 O4      14.9833   5.2627  13.5239   O.2       2 RES2   0.0000
    87 O5      15.4223   7.3162  13.7075   O.2       2 RES2   0.0000
    88 O6      13.7816   6.6578  12.2813   O.2       2 RES2   0.0000
    89 Cl2      8.0890  10.0483  12.6702   Cl        3 RES3   0.0000
    90 O7       8.8491   9.1874  13.4701   O.3       3 RES3  -1.0000
    91 O8       8.2543  11.3525  13.1424   O.2       3 RES3   0.0000
    92 O9       6.7994   9.7132  12.7641   O.2       3 RES3   0.0000
    93 O10      8.5210  10.0447  11.3554   O.2       3 RES3   0.0000
@<TRIPOS>BOND
     1     1     2    1
     2     2    20   ar
     3     3     1    1
     4     4     1    1
     5     5     1    1
     6     6     1    1
     7     7     1    1
     8     8    10    1
     9     9    62    1
    10    10    11    1
    11    12    10    1
    12    13    10    1
    13    14     8    1
    14    15    14   ar
    15    16    15    1
    16    17    16    1
    17    18    16    1
    18    19    16    1
    19    20    15   ar
    20    21    20    1
    21    22     2   ar
    22    23    14   ar
    23    24    23    1
    24    25    24    1
    25    26    24    1
    26    27    24    1
    27    28     3    1
    28    29    28    1
    29    30    28    1
    30    31     3    1
    31    32    31    1
    32    33    31    1
    33    34    31    1
    34    35    34    1
    35    36    34    1
    36    37    34    1
    37    38    37    1
    38    39    37    1
    39    40     3    1
    40    41    40    1
    41    42     4    1
    42    43    42    1
    43    44    42    1
    44    45    44    1
    45    46    44    1
    46    47    44    1
    47    48    47    1
    48    49    47    1
    49    50     4    1
    50    51    50    1
    51    52    50    1
    52    53     4    1
    53    54    53    1
    54    55    53    1
    55    56     5   ar
    56    57    56   ar
    57    58    57    1
    58    59    58    1
    59    60    58    1
    60    61    58    1
    61    62    57   ar
    62    63     9    1
    63    64    63    1
    64    65    63    1
    65    66    63    1
    66    67    62   ar
    67    68    67    1
    68    69    68    1
    69    70    68    1
    70    71    68    1
    71    72     5   ar
    72    73    72    1
    73    74     6    3
    74    75    74    1
    75    76    75    1
    76    77    75    1
    77    78    75    1
    78    79     7    3
    79    80    79    1
    80    81    80    1
    81    82    80    1
    82    83    80    1
    83    22    23   ar
    84    22    28    1
    85    37    40    1
    86    40    42    1
    87    47    50    1
    88    53    56    1
    89    67    72   ar
    90    84    85    1
    91    86    84    2
    92    87    84    2
    93    88    84    2
    94    89    90    1
    95    91    89    2
    96    92    89    2
    97    93    89    2
@<TRIPOS>SUBSTRUCTURE
     1 RES1        1 GROUP             0 ****  ****    0  
     2 RES2       84 GROUP             0 ****  ****    0  
     3 RES3       89 GROUP             0 ****  ****    0  
@<TRIPOS>CRYSIN
   14.9833   15.0663   15.8285   90.0000   90.0000   90.0000    19     1
