@<TRIPOS>MOLECULE
RIPDUQ
   165   176     3     0     0
SMALL
USER_CHARGES
****
Generated from the CSD

@<TRIPOS>ATOM
     1 Fe1     -2.9164  12.2043  11.9019   Fe        1 RES1   1.0000
     2 F1       2.5076  14.0542  19.5630   F         1 RES1   0.0000
     3 F2       2.3613  16.0885  19.0426   F         1 RES1   0.0000
     4 F3       3.9314  14.9070  18.3400   F         1 RES1   0.0000
     5 F4       4.0953  13.2221   5.1896   F         1 RES1   0.0000
     6 F5       3.1645  15.0854   5.0638   F         1 RES1   0.0000
     7 F6       2.5208  13.4700   3.9493   F         1 RES1   0.0000
     8 F7      -8.4961   8.7402   4.7241   F         1 RES1   0.0000
     9 F8     -10.0202   9.7357   5.7216   F         1 RES1   0.0000
    10 F9      -9.4310   7.7634   6.3013   F         1 RES1   0.0000
    11 F10    -10.3028  11.1089  18.1738   F         1 RES1   0.0000
    12 F11     -9.0186   9.5197  18.8156   F         1 RES1   0.0000
    13 F12     -8.8340  11.4639  19.6311   F         1 RES1   0.0000
    14 N1      -2.9229  12.3676  13.8594   N.2       1 RES1   0.0000
    15 N2      -1.0243  12.8137  11.8277   N.2       1 RES1   0.0000
    16 N3      -2.8880  11.8578   9.9723   N.2       1 RES1   0.0000
    17 N4      -4.8454  11.8101  11.9485   N.2       1 RES1   0.0000
    18 N5      -2.4561  10.3085  12.1846   N.2       1 RES1   0.0000
    19 N6      -2.7056   8.1804  12.5996   N.pl3     1 RES1   0.0000
    20 H1      -3.0853   7.4216  12.7341   H         1 RES1   0.0000
    21 N7      -3.4186  14.1113  11.6602   N.2       1 RES1   0.0000
    22 N8      -4.0566  16.1317  12.1949   N.pl3     1 RES1   0.0000
    23 H2      -4.2838  16.8136  12.6676   H         1 RES1   0.0000
    24 C1      -3.8919  11.8114  14.6729   C.2       1 RES1   0.0000
    25 C2      -3.2770  11.3157  15.8883   C.2       1 RES1   0.0000
    26 C3      -1.9520  11.6955  15.8377   C.2       1 RES1   0.0000
    27 C4      -1.7706  12.4096  14.6032   C.2       1 RES1   0.0000
    28 C5      -0.6714  13.1892  14.1927   C.2       1 RES1   0.0000
    29 C6      -0.4342  13.5203  12.8541   C.2       1 RES1   0.0000
    30 C7       0.4780  14.5005  12.3149   C.2       1 RES1   0.0000
    31 C8       0.4984  14.3254  10.9618   C.2       1 RES1   0.0000
    32 C9      -0.4227  13.2179  10.6683   C.2       1 RES1   0.0000
    33 C10     -0.6365  12.5652   9.4613   C.2       1 RES1   0.0000
    34 C11     -1.7285  11.7229   9.2416   C.2       1 RES1   0.0000
    35 C12     -1.9009  10.7144   8.2210   C.2       1 RES1   0.0000
    36 C13     -3.1955  10.2692   8.3251   C.2       1 RES1   0.0000
    37 C14     -3.8369  11.0529   9.3456   C.2       1 RES1   0.0000
    38 C15     -5.1943  11.1994   9.6420   C.2       1 RES1   0.0000
    39 C16     -5.6416  11.7740  10.8274   C.2       1 RES1   0.0000
    40 C17     -6.9673  12.2603  11.1700   C.2       1 RES1   0.0000
    41 C18     -6.9806  12.4820  12.5317   C.2       1 RES1   0.0000
    42 C19     -5.6593  12.1157  13.0053   C.2       1 RES1   0.0000
    43 C20     -5.2384  11.8983  14.3285   C.2       1 RES1   0.0000
    44 C21     -3.8549  10.3969  16.9118   C.3       1 RES1   0.0000
    45 H3      -4.7996  10.5904  17.0130   H         1 RES1   0.0000
    46 H4      -3.4247  10.5622  17.7647   H         1 RES1   0.0000
    47 C22     -3.6872   8.9487  16.5533   C.3       1 RES1   0.0000
    48 H5      -2.7538   8.7496  16.4478   H         1 RES1   0.0000
    49 H6      -4.1481   8.7665  15.7307   H         1 RES1   0.0000
    50 H7      -4.0535   8.4021  17.2529   H         1 RES1   0.0000
    51 C23     -0.8892  11.2403  16.7918   C.3       1 RES1   0.0000
    52 H8      -1.3074  10.8947  17.5955   H         1 RES1   0.0000
    53 H9      -0.3400  11.9992  17.0433   H         1 RES1   0.0000
    54 C24     -0.0116  10.1715  16.1861   C.3       1 RES1   0.0000
    55 H10      0.4537  10.5303  15.4257   H         1 RES1   0.0000
    56 H11     -0.5557   9.4314  15.9071   H         1 RES1   0.0000
    57 H12      0.6255   9.8729  16.8381   H         1 RES1   0.0000
    58 C25      1.0465  15.6846  13.0535   C.3       1 RES1   0.0000
    59 H13      1.5043  15.3766  13.8501   H         1 RES1   0.0000
    60 H14      1.6959  16.1336  12.4883   H         1 RES1   0.0000
    61 C26     -0.0309  16.6614  13.4438   C.3       1 RES1   0.0000
    62 H15     -0.7011  16.2087  13.9614   H         1 RES1   0.0000
    63 H16     -0.4321  17.0277  12.6517   H         1 RES1   0.0000
    64 H17      0.3526  17.3696  13.9657   H         1 RES1   0.0000
    65 C27      1.1610  15.2507   9.9571   C.3       1 RES1   0.0000
    66 H18      1.8943  15.7185  10.3865   H         1 RES1   0.0000
    67 H19      1.5278  14.7248   9.2286   H         1 RES1   0.0000
    68 C28      0.1809  16.2557   9.4035   C.3       1 RES1   0.0000
    69 H20     -0.1298  16.8230  10.1132   H         1 RES1   0.0000
    70 H21     -0.5644  15.7955   9.0132   H         1 RES1   0.0000
    71 H22      0.6147  16.7910   8.7342   H         1 RES1   0.0000
    72 C29     -0.8449  10.1152   7.3594   C.3       1 RES1   0.0000
    73 H23     -1.2741   9.6907   6.6005   H         1 RES1   0.0000
    74 H24     -0.2886  10.8309   7.0154   H         1 RES1   0.0000
    75 C30     -0.0786   9.2455   7.9319   C.3       1 RES1   0.0000
    76 H25     -0.5932   8.4697   8.1646   H         1 RES1   0.0000
    77 H26      0.3009   9.6287   8.7269   H         1 RES1   0.0000
    78 H27      0.6256   8.9957   7.3305   H         1 RES1   0.0000
    79 C31     -3.7316   9.0295   7.6587   C.3       1 RES1   0.0000
    80 H28     -3.1348   8.7646   6.9402   H         1 RES1   0.0000
    81 H29     -4.6002   9.2211   7.2698   H         1 RES1   0.0000
    82 C32     -3.8681   7.8705   8.6590   C.3       1 RES1   0.0000
    83 H30     -4.5757   8.0621   9.2763   H         1 RES1   0.0000
    84 H31     -3.0439   7.7634   9.1389   H         1 RES1   0.0000
    85 H32     -4.0693   7.0590   8.1848   H         1 RES1   0.0000
    86 C33     -8.0464  12.6736  10.1870   C.3       1 RES1   0.0000
    87 H33     -8.8915  12.7731  10.6539   H         1 RES1   0.0000
    88 H34     -8.1541  11.9823   9.5148   H         1 RES1   0.0000
    89 C34     -7.6714  13.9978   9.5090   C.3       1 RES1   0.0000
    90 H35     -6.8997  13.8663   8.9553   H         1 RES1   0.0000
    91 H36     -7.4753  14.6553  10.1797   H         1 RES1   0.0000
    92 H37     -8.4062  14.3003   8.9698   H         1 RES1   0.0000
    93 C35     -8.0631  13.1695  13.3051   C.3       1 RES1   0.0000
    94 H38     -8.2335  12.6754  14.1233   H         1 RES1   0.0000
    95 H39     -8.8801  13.1695  12.7818   H         1 RES1   0.0000
    96 C36     -7.6911  14.5970  13.6506   C.3       1 RES1   0.0000
    97 H40     -7.4803  15.0760  12.8454   H         1 RES1   0.0000
    98 H41     -6.9267  14.5970  14.2317   H         1 RES1   0.0000
    99 H42     -8.4288  15.0234  14.0929   H         1 RES1   0.0000
   100 C37      0.2361  13.6796  15.2754   C.ar      1 RES1   0.0000
   101 C38     -0.2998  14.4533  16.3003   C.ar      1 RES1   0.0000
   102 H43     -1.1994  14.6872  16.2743   H         1 RES1   0.0000
   103 C39      0.4799  14.8769  17.3483   C.ar      1 RES1   0.0000
   104 H44      0.1100  15.3954  18.0263   H         1 RES1   0.0000
   105 C40      1.8208  14.5238  17.3932   C.ar      1 RES1   0.0000
   106 C41      2.3746  13.7912  16.3755   C.ar      1 RES1   0.0000
   107 H45      3.2798  13.5771  16.3972   H         1 RES1   0.0000
   108 C42      1.5887  13.3667  15.3130   C.ar      1 RES1   0.0000
   109 H46      1.9688  12.8708  14.6249   H         1 RES1   0.0000
   110 C43      2.6228  14.9070  18.5886   C.3       1 RES1   0.0000
   111 C44      0.2971  12.8107   8.3193   C.ar      1 RES1   0.0000
   112 C45      1.6215  12.3899   8.3496   C.ar      1 RES1   0.0000
   113 H47      1.9324  11.8940   9.0724   H         1 RES1   0.0000
   114 C46      2.4812  12.7055   7.3117   C.ar      1 RES1   0.0000
   115 H48      3.3667  12.4219   7.3377   H         1 RES1   0.0000
   116 C47      2.0238  13.4381   6.2449   C.ar      1 RES1   0.0000
   117 C48      0.7060  13.8401   6.1625   C.ar      1 RES1   0.0000
   118 H49      0.4040  14.3266   5.4296   H         1 RES1   0.0000
   119 C49     -0.1564  13.5038   7.1903   C.ar      1 RES1   0.0000
   120 H50     -1.0527  13.7443   7.1310   H         1 RES1   0.0000
   121 C50      2.9737  13.8457   5.1665   C.3       1 RES1   0.0000
   122 C51     -6.1906  10.6368   8.6792   C.ar      1 RES1   0.0000
   123 C52     -6.3074  11.1182   7.3753   C.ar      1 RES1   0.0000
   124 H51     -5.7613  11.8170   7.0963   H         1 RES1   0.0000
   125 C53     -7.2162  10.5791   6.4964   C.ar      1 RES1   0.0000
   126 H52     -7.3037  10.9285   5.6392   H         1 RES1   0.0000
   127 C54     -8.0013   9.5122   6.8997   C.ar      1 RES1   0.0000
   128 C55     -7.9011   9.0201   8.1892   C.ar      1 RES1   0.0000
   129 H53     -8.4364   8.3082   8.4566   H         1 RES1   0.0000
   130 C56     -7.0142   9.5780   9.0782   C.ar      1 RES1   0.0000
   131 H54     -6.9606   9.2511   9.9470   H         1 RES1   0.0000
   132 C57     -9.0073   8.9299   5.9456   C.3       1 RES1   0.0000
   133 C58     -6.2644  11.6842  15.3896   C.ar      1 RES1   0.0000
   134 C59     -7.1465  10.6017  15.2682   C.ar      1 RES1   0.0000
   135 H55     -7.1140  10.0570  14.5150   H         1 RES1   0.0000
   136 C60     -8.0667  10.3406  16.2743   C.ar      1 RES1   0.0000
   137 H56     -8.6711   9.6399  16.1875   H         1 RES1   0.0000
   138 C61     -8.0804  11.1483  17.4264   C.ar      1 RES1   0.0000
   139 C62     -7.2357  12.2265  17.5305   C.ar      1 RES1   0.0000
   140 H57     -7.2737  12.7769  18.2778   H         1 RES1   0.0000
   141 C63     -6.3179  12.4932  16.5099   C.ar      1 RES1   0.0000
   142 H58     -5.7409  13.2183  16.5836   H         1 RES1   0.0000
   143 C64     -9.0644  10.8064  18.5135   C.3       1 RES1   0.0000
   144 C65     -3.3194   9.3244  12.3308   C.2       1 RES1   0.0000
   145 H59     -4.2413   9.4202  12.2570   H         1 RES1   0.0000
   146 C66     -1.3772   8.4227  12.6228   C.2       1 RES1   0.0000
   147 H60     -0.6990   7.8048  12.7745   H         1 RES1   0.0000
   148 C67     -1.2334   9.7433  12.3799   C.2       1 RES1   0.0000
   149 H61     -0.4225  10.1978  12.3495   H         1 RES1   0.0000
   150 C68     -3.7339  14.9389  12.6618   C.2       1 RES1   0.0000
   151 H62     -3.7284  14.7060  13.5624   H         1 RES1   0.0000
   152 C69     -3.6016  14.8300  10.5296   C.2       1 RES1   0.0000
   153 H63     -3.4893  14.5012   9.6666   H         1 RES1   0.0000
   154 C70     -3.9674  16.0941  10.8274   C.2       1 RES1   0.0000
   155 H64     -4.1250  16.7910  10.2332   H         1 RES1   0.0000
   156 Cl1     -6.3129   7.1421  12.8471   Cl        2 RES2   0.0000
   157 O1      -5.2218   6.5425  12.0879   O.3       2 RES2  -1.0000
   158 O2      -5.6662   7.5155  14.0495   O.2       2 RES2   0.0000
   159 O3      -6.6151   8.3439  12.1486   O.2       2 RES2   0.0000
   160 O4      -7.2889   6.2363  13.0796   O.2       2 RES2   0.0000
   161 Cl2      2.4997  10.4084  13.1056   Cl        3 RES3   0.0000
   162 Cl3      2.3030   9.0952  10.5718   Cl        3 RES3   0.0000
   163 C71      3.2727   9.4446  11.9853   C.3       3 RES3   0.0000
   164 H65      3.5199   8.6087  12.4088   H         3 RES3   0.0000
   165 H66      4.0886   9.8860  11.7034   H         3 RES3   0.0000
@<TRIPOS>BOND
     1     1    14    1
     2     2   110    1
     3     3   110    1
     4     4   110    1
     5     5   121    1
     6     6   121    1
     7     7   121    1
     8     8   132    1
     9     9   132    1
    10    10   132    1
    11    11   143    1
    12    12   143    1
    13    13   143    1
    14    14    24    1
    15    15     1    1
    16    16     1    1
    17    17     1    1
    18    18     1    1
    19    19    20    1
    20    21     1    1
    21    22    23    1
    22    24    25    1
    23    25    26    2
    24    26    27    1
    25    27    14    1
    26    28    27    2
    27    29    15    2
    28    30    29    1
    29    31    30    2
    30    32    15    1
    31    33    32    2
    32    34    16    1
    33    35    34    2
    34    36    35    1
    35    37    16    1
    36    38    37    1
    37    39    17    1
    38    40    39    1
    39    41    40    2
    40    42    17    2
    41    43    24    2
    42    44    25    1
    43    45    44    1
    44    46    44    1
    45    47    44    1
    46    48    47    1
    47    49    47    1
    48    50    47    1
    49    51    26    1
    50    52    51    1
    51    53    51    1
    52    54    51    1
    53    55    54    1
    54    56    54    1
    55    57    54    1
    56    58    30    1
    57    59    58    1
    58    60    58    1
    59    61    58    1
    60    62    61    1
    61    63    61    1
    62    64    61    1
    63    65    31    1
    64    66    65    1
    65    67    65    1
    66    68    65    1
    67    69    68    1
    68    70    68    1
    69    71    68    1
    70    72    35    1
    71    73    72    1
    72    74    72    1
    73    75    72    1
    74    76    75    1
    75    77    75    1
    76    78    75    1
    77    79    36    1
    78    80    79    1
    79    81    79    1
    80    82    79    1
    81    83    82    1
    82    84    82    1
    83    85    82    1
    84    86    40    1
    85    87    86    1
    86    88    86    1
    87    89    86    1
    88    90    89    1
    89    91    89    1
    90    92    89    1
    91    93    41    1
    92    94    93    1
    93    95    93    1
    94    96    93    1
    95    97    96    1
    96    98    96    1
    97    99    96    1
    98   100    28    1
    99   101   100   ar
   100   102   101    1
   101   103   101   ar
   102   104   103    1
   103   105   103   ar
   104   106   105   ar
   105   107   106    1
   106   108   100   ar
   107   109   108    1
   108   110   105    1
   109   111    33    1
   110   112   111   ar
   111   113   112    1
   112   114   112   ar
   113   115   114    1
   114   116   114   ar
   115   117   116   ar
   116   118   117    1
   117   119   111   ar
   118   120   119    1
   119   121   116    1
   120   122    38    1
   121   123   122   ar
   122   124   123    1
   123   125   123   ar
   124   126   125    1
   125   127   125   ar
   126   128   127   ar
   127   129   128    1
   128   130   122   ar
   129   131   130    1
   130   132   127    1
   131   133    43    1
   132   134   133   ar
   133   135   134    1
   134   136   134   ar
   135   137   136    1
   136   138   136   ar
   137   139   138   ar
   138   140   139    1
   139   141   133   ar
   140   142   141    1
   141   143   138    1
   142   144    18    2
   143   145   144    1
   144   146    19    1
   145   147   146    1
   146   148    18    1
   147   149   148    1
   148   150    21    2
   149   151   150    1
   150   152    21    1
   151   153   152    1
   152   154    22    1
   153   155   154    1
   154    19   144    1
   155    22   150    1
   156    28    29    1
   157    31    32    1
   158    33    34    1
   159    36    37    2
   160    38    39    2
   161    41    42    1
   162    42    43    1
   163   106   108   ar
   164   117   119   ar
   165   128   130   ar
   166   139   141   ar
   167   146   148    2
   168   152   154    2
   169   156   157    1
   170   158   156    2
   171   159   156    2
   172   160   156    2
   173   161   163    1
   174   162   163    1
   175   163   164    1
   176   165   163    1
@<TRIPOS>SUBSTRUCTURE
     1 RES1        1 GROUP             0 ****  ****    0  
     2 RES2      156 GROUP             0 ****  ****    0  
     3 RES3      161 GROUP             0 ****  ****    0  
@<TRIPOS>CRYSIN
   12.9180   18.7840   15.4340   90.0000  110.5090   90.0000     4     1
