@<TRIPOS>MOLECULE
RIPFEC
   169   180     3     0     0
SMALL
USER_CHARGES
****
Generated from the CSD

@<TRIPOS>ATOM
     1 Fe1      3.3121   3.8094  11.9181   Fe        1 RES1   1.0000
     2 N1       1.3672   3.4420  11.9349   N.2       1 RES1   0.0000
     3 N2       3.2902   3.9968  13.8839   N.2       1 RES1   0.0000
     4 N3       5.2196   4.3832  11.8615   N.2       1 RES1   0.0000
     5 N4       3.3618   3.4447   9.9798   N.2       1 RES1   0.0000
     6 N5       2.8555   5.7232  11.6850   N.2       1 RES1   0.0000
     7 N6       2.1856   7.7401  12.1866   N.pl3     1 RES1   0.0000
     8 H1       1.8892   8.4097  12.6383   H         1 RES1   0.0000
     9 O5       9.4311   4.9657   5.3722   O.3       1 RES1   0.0000
    10 O6      -2.5207   1.1985   5.5221   O.3       1 RES1   0.0000
    11 C1       0.5735   3.4316  10.8089   C.2       1 RES1   0.0000
    12 C2      -0.7741   3.8474  11.1499   C.2       1 RES1   0.0000
    13 C3      -0.7858   4.0338  12.5218   C.2       1 RES1   0.0000
    14 C4       0.5443   3.7008  12.9919   C.2       1 RES1   0.0000
    15 C5       0.9547   3.5115  14.3199   C.2       1 RES1   0.0000
    16 C6       2.3091   3.4663  14.6982   C.2       1 RES1   0.0000
    17 C7       2.8916   3.0788  15.9698   C.2       1 RES1   0.0000
    18 C8       4.2042   3.4749  15.9525   C.2       1 RES1   0.0000
    19 C9       4.4238   4.1004  14.6547   C.2       1 RES1   0.0000
    20 C10      5.5536   4.8223  14.2221   C.2       1 RES1   0.0000
    21 C11      5.7958   5.0905  12.8785   C.2       1 RES1   0.0000
    22 C12      6.7498   6.0464  12.3219   C.2       1 RES1   0.0000
    23 C13      6.8175   5.8063  10.9826   C.2       1 RES1   0.0000
    24 C14      5.8844   4.7312  10.6941   C.2       1 RES1   0.0000
    25 C15      5.6810   4.0457   9.4938   C.2       1 RES1   0.0000
    26 C16      4.5339   3.2532   9.2781   C.2       1 RES1   0.0000
    27 C17      4.3472   2.2486   8.2683   C.2       1 RES1   0.0000
    28 C18      3.0064   1.9163   8.2711   C.2       1 RES1   0.0000
    29 C19      2.3932   2.7159   9.3148   C.2       1 RES1   0.0000
    30 C20      1.0219   2.8863   9.5917   C.2       1 RES1   0.0000
    31 C21     -1.8737   4.2381  10.2102   C.3       1 RES1   0.0000
    32 H2      -2.7086   4.3002  10.6993   H         1 RES1   0.0000
    33 H3      -1.9748   3.5532   9.5298   H         1 RES1   0.0000
    34 C22     -1.5761   5.5801   9.5370   C.3       1 RES1   0.0000
    35 H4      -1.5221   6.2677  10.2044   H         1 RES1   0.0000
    36 H5      -2.2787   5.7907   8.9170   H         1 RES1   0.0000
    37 H6      -0.7410   5.5243   9.0666   H         1 RES1   0.0000
    38 C23     -1.9032   4.6831  13.3000   C.3       1 RES1   0.0000
    39 H7      -2.0708   4.1724  14.1070   H         1 RES1   0.0000
    40 H8      -2.7129   4.6747  12.7663   H         1 RES1   0.0000
    41 C24     -1.5608   6.1273  13.6769   C.3       1 RES1   0.0000
    42 H9      -0.8151   6.1309  14.2810   H         1 RES1   0.0000
    43 H10     -2.3190   6.5359  14.0998   H         1 RES1   0.0000
    44 H11     -1.3323   6.6187  12.8843   H         1 RES1   0.0000
    45 C25      2.2731   2.1931  17.0328   C.3       1 RES1   0.0000
    46 H12      1.3637   2.4804  17.2069   H         1 RES1   0.0000
    47 H13      2.7787   2.2752  17.8571   H         1 RES1   0.0000
    48 C26      2.2696   0.7236  16.5754   C.3       1 RES1   0.0000
    49 H14      1.7297   0.6354  15.7871   H         1 RES1   0.0000
    50 H15      1.9092   0.1710  17.2745   H         1 RES1   0.0000
    51 H16      3.1676   0.4464  16.3812   H         1 RES1   0.0000
    52 C27      5.2292   3.1382  16.9954   C.3       1 RES1   0.0000
    53 H17      4.7785   2.8998  17.8197   H         1 RES1   0.0000
    54 H18      5.7758   3.9204  17.1695   H         1 RES1   0.0000
    55 C28      6.1290   1.9854  16.5653   C.3       1 RES1   0.0000
    56 H19      5.5904   1.2114  16.3812   H         1 RES1   0.0000
    57 H20      6.7486   1.7838  17.2702   H         1 RES1   0.0000
    58 H21      6.6120   2.2338  15.7742   H         1 RES1   0.0000
    59 C29      7.3294   7.2420  13.0382   C.3       1 RES1   0.0000
    60 H22      8.0107   7.6501  12.4830   H         1 RES1   0.0000
    61 H23      7.7500   6.9499  13.8624   H         1 RES1   0.0000
    62 C30      6.2537   8.2754  13.3604   C.3       1 RES1   0.0000
    63 H24      5.8707   8.6023  12.5434   H         1 RES1   0.0000
    64 H25      6.6469   9.0055  13.8437   H         1 RES1   0.0000
    65 H26      5.5681   7.8679  13.8941   H         1 RES1   0.0000
    66 C31      7.5580   6.6725   9.9959   C.3       1 RES1   0.0000
    67 H27      7.8764   6.1201   9.2651   H         1 RES1   0.0000
    68 H28      8.3303   7.0633  10.4317   H         1 RES1   0.0000
    69 C32      6.6830   7.7851   9.4363   C.3       1 RES1   0.0000
    70 H29      5.9930   7.4053   8.8882   H         1 RES1   0.0000
    71 H30      7.2203   8.3791   8.9069   H         1 RES1   0.0000
    72 H31      6.2851   8.2729  10.1598   H         1 RES1   0.0000
    73 C33      5.4128   1.5055   7.4886   C.3       1 RES1   0.0000
    74 H32      5.2522   0.5544   7.5908   H         1 RES1   0.0000
    75 H33      6.2727   1.6974   7.8957   H         1 RES1   0.0000
    76 C34      5.5204   1.8090   5.9969   C.3       1 RES1   0.0000
    77 H34      4.6577   1.7028   5.5870   H         1 RES1   0.0000
    78 H35      6.1434   1.2042   5.5913   H         1 RES1   0.0000
    79 H36      5.8233   2.7126   5.8761   H         1 RES1   0.0000
    80 C35      2.3893   0.7538   7.5375   C.3       1 RES1   0.0000
    81 H37      2.9895   0.4662   6.8312   H         1 RES1   0.0000
    82 H38      1.5599   1.0404   7.1261   H         1 RES1   0.0000
    83 C36      2.1087  -0.4261   8.4711   C.3       1 RES1   0.0000
    84 H39      2.9383  -0.7740   8.8048   H         1 RES1   0.0000
    85 H40      1.6454  -1.1124   7.9863   H         1 RES1   0.0000
    86 H41      1.5674  -0.1296   9.2061   H         1 RES1   0.0000
    87 C37     -0.0977   3.2906  15.3628   C.ar      1 RES1   0.0000
    88 C38     -0.9599   2.2063  15.2664   C.ar      1 RES1   0.0000
    89 H42     -0.8815   1.6182  14.5500   H         1 RES1   0.0000
    90 C39     -1.9352   1.9944  16.2258   C.ar      1 RES1   0.0000
    91 H43     -2.5031   1.2618  16.1554   H         1 RES1   0.0000
    92 C40     -2.0683   2.8692  17.2917   C.ar      1 RES1   0.0000
    93 C41     -1.2229   3.9654  17.3939   C.ar      1 RES1   0.0000
    94 H44     -1.3101   4.5595  18.1030   H         1 RES1   0.0000
    95 C42     -0.2477   4.1672  16.4315   C.ar      1 RES1   0.0000
    96 H45      0.3182   4.9033  16.5006   H         1 RES1   0.0000
    97 O7      -3.0600   2.5632  18.1821   O.3       1 RES1   0.0000
    98 C43     -3.3903   3.4110  19.1704   C.3       1 RES1   0.0000
    99 H46     -4.1563   3.0744  19.6379   H         1 RES1   0.0000
   100 H47     -3.5945   4.2714  18.7978   H         1 RES1   0.0000
   101 H48     -2.6536   3.4920  19.7803   H         1 RES1   0.0000
   102 C44      6.4972   5.3360  15.2592   C.ar      1 RES1   0.0000
   103 C45      6.0635   6.2630  16.1928   C.ar      1 RES1   0.0000
   104 H49      5.1835   6.5593  16.1597   H         1 RES1   0.0000
   105 C46      6.9008   6.7591  17.1695   C.ar      1 RES1   0.0000
   106 H50      6.5915   7.3801  17.7880   H         1 RES1   0.0000
   107 C47      8.2188   6.3127  17.2097   C.ar      1 RES1   0.0000
   108 C48      8.6853   5.3947  16.2791   C.ar      1 RES1   0.0000
   109 H51      9.5696   5.1085  16.3050   H         1 RES1   0.0000
   110 C49      7.8291   4.9139  15.3167   C.ar      1 RES1   0.0000
   111 H52      8.1402   4.2966  14.6939   H         1 RES1   0.0000
   112 O8       9.1653   6.7501  18.1174   O.3       1 RES1   0.0000
   113 C50      8.6796   7.7887  19.0021   C.3       1 RES1   0.0000
   114 H53      7.9602   8.2603  18.5777   H         1 RES1   0.0000
   115 H54      9.3921   8.4007  19.1991   H         1 RES1   0.0000
   116 H55      8.3633   7.3909  19.8177   H         1 RES1   0.0000
   117 C51      6.6329   4.2293   8.3704   C.ar      1 RES1   0.0000
   118 C52      7.9471   3.7368   8.4423   C.ar      1 RES1   0.0000
   119 H56      8.2178   3.2400   9.1817   H         1 RES1   0.0000
   120 C53      8.8421   3.9870   7.4167   C.ar      1 RES1   0.0000
   121 H57      9.7089   3.6540   7.4599   H         1 RES1   0.0000
   122 C54      8.4362   4.7488   6.3091   C.ar      1 RES1   0.0000
   123 C55      7.1445   5.2273   6.2170   C.ar      1 RES1   0.0000
   124 H58      6.8741   5.7313   5.4834   H         1 RES1   0.0000
   125 C56      6.2537   4.9376   7.2484   C.ar      1 RES1   0.0000
   126 H59      5.3739   5.2309   7.1794   H         1 RES1   0.0000
   127 C57      9.0699   5.7745   4.2478   C.3       1 RES1   0.0000
   128 H60      8.3249   5.3749   3.7932   H         1 RES1   0.0000
   129 H61      9.8158   5.8375   3.6465   H         1 RES1   0.0000
   130 H62      8.8266   6.6511   4.5499   H         1 RES1   0.0000
   131 C58      0.0547   2.4446   8.5516   C.ar      1 RES1   0.0000
   132 C59     -0.0407   3.1149   7.3304   C.ar      1 RES1   0.0000
   133 H63      0.4846   3.8682   7.1808   H         1 RES1   0.0000
   134 C60     -0.9024   2.6790   6.3364   C.ar      1 RES1   0.0000
   135 H64     -0.9495   3.1338   5.5266   H         1 RES1   0.0000
   136 C61     -1.6999   1.5588   6.5536   C.ar      1 RES1   0.0000
   137 C62     -1.6399   0.8964   7.7849   C.ar      1 RES1   0.0000
   138 H65     -2.1741   0.1512   7.9403   H         1 RES1   0.0000
   139 C63     -0.7819   1.3579   8.7717   C.ar      1 RES1   0.0000
   140 H66     -0.7674   0.9306   9.5974   H         1 RES1   0.0000
   141 C64     -3.3955   0.1224   5.7251   C.3       1 RES1   0.0000
   142 H67     -2.8875  -0.6786   5.8718   H         1 RES1   0.0000
   143 H68     -3.9512   0.0108   4.9497   H         1 RES1   0.0000
   144 H69     -3.9471   0.2970   6.4918   H         1 RES1   0.0000
   145 N7       3.7123   1.9035  12.2295   N.2       1 RES1   0.0000
   146 N8       3.3692  -0.2300  12.5376   N.pl3     1 RES1   0.0000
   147 H70      2.9829  -0.9990  12.5448   H         1 RES1   0.0000
   148 C65      2.8288   0.9187  12.1521   C.2       1 RES1   0.0000
   149 H71      1.9493   1.0188  11.8673   H         1 RES1   0.0000
   150 C66      4.6511   0.0342  12.9203   C.2       1 RES1   0.0000
   151 H72      5.2694  -0.5832  13.2396   H         1 RES1   0.0000
   152 C67      4.8542   1.3536  12.7491   C.2       1 RES1   0.0000
   153 H73      5.6370   1.8144  12.9505   H         1 RES1   0.0000
   154 C68      2.4039   6.5118  12.6656   C.2       1 RES1   0.0000
   155 H74      2.2627   6.2461  13.5460   H         1 RES1   0.0000
   156 C69      2.5119   7.7527  10.8676   C.2       1 RES1   0.0000
   157 H75      2.4582   8.4799  10.2893   H         1 RES1   0.0000
   158 C70      2.9271   6.5071  10.5612   C.2       1 RES1   0.0000
   159 H76      3.2175   6.2245   9.7226   H         1 RES1   0.0000
   160 Cl1     -0.1981  -0.9382  12.6786   Cl        2 RES2   0.0000
   161 O1      -1.3598  -1.7466  12.8296   O.3       2 RES2  -1.0000
   162 O2       0.7820  -1.6015  11.8489   O.2       2 RES2   0.0000
   163 O3       0.3912  -0.6910  13.9652   O.2       2 RES2   0.0000
   164 O4      -0.5467   0.3173  12.0888   O.2       2 RES2   0.0000
   165 Cl2      8.3447   2.3899  12.5517   Cl        3 RES3   0.0000
   166 Cl3      9.3343   0.7027  10.4392   Cl        3 RES3   0.0000
   167 C71      9.5745   1.2294  12.0672   C.3       3 RES3   0.0000
   168 H77     10.4515   1.6362  12.1464   H         3 RES3   0.0000
   169 H78      9.5464   0.4626  12.6599   H         3 RES3   0.0000
@<TRIPOS>BOND
     1     1     2    1
     2     2    11    1
     3     3     1    1
     4     4     1    1
     5     5     1    1
     6     6     1    1
     7     7     8    1
     8     9   122    1
     9    10   136    1
    10    11    12    1
    11    12    13    2
    12    13    14    1
    13    14     2    1
    14    15    14    2
    15    16     3    2
    16    17    16    1
    17    18    17    2
    18    19     3    1
    19    20    19    2
    20    21     4    1
    21    22    21    2
    22    23    22    1
    23    24     4    1
    24    25    24    1
    25    26     5    1
    26    27    26    1
    27    28    27    2
    28    29     5    2
    29    30    11    2
    30    31    12    1
    31    32    31    1
    32    33    31    1
    33    34    31    1
    34    35    34    1
    35    36    34    1
    36    37    34    1
    37    38    13    1
    38    39    38    1
    39    40    38    1
    40    41    38    1
    41    42    41    1
    42    43    41    1
    43    44    41    1
    44    45    17    1
    45    46    45    1
    46    47    45    1
    47    48    45    1
    48    49    48    1
    49    50    48    1
    50    51    48    1
    51    52    18    1
    52    53    52    1
    53    54    52    1
    54    55    52    1
    55    56    55    1
    56    57    55    1
    57    58    55    1
    58    59    22    1
    59    60    59    1
    60    61    59    1
    61    62    59    1
    62    63    62    1
    63    64    62    1
    64    65    62    1
    65    66    23    1
    66    67    66    1
    67    68    66    1
    68    69    66    1
    69    70    69    1
    70    71    69    1
    71    72    69    1
    72    73    27    1
    73    74    73    1
    74    75    73    1
    75    76    73    1
    76    77    76    1
    77    78    76    1
    78    79    76    1
    79    80    28    1
    80    81    80    1
    81    82    80    1
    82    83    80    1
    83    84    83    1
    84    85    83    1
    85    86    83    1
    86    87    15    1
    87    88    87   ar
    88    89    88    1
    89    90    88   ar
    90    91    90    1
    91    92    90   ar
    92    93    92   ar
    93    94    93    1
    94    95    87   ar
    95    96    95    1
    96    97    92    1
    97    98    97    1
    98    99    98    1
    99   100    98    1
   100   101    98    1
   101   102    20    1
   102   103   102   ar
   103   104   103    1
   104   105   103   ar
   105   106   105    1
   106   107   105   ar
   107   108   107   ar
   108   109   108    1
   109   110   102   ar
   110   111   110    1
   111   112   107    1
   112   113   112    1
   113   114   113    1
   114   115   113    1
   115   116   113    1
   116   117    25    1
   117   118   117   ar
   118   119   118    1
   119   120   118   ar
   120   121   120    1
   121   122   120   ar
   122   123   122   ar
   123   124   123    1
   124   125   117   ar
   125   126   125    1
   126   127     9    1
   127   128   127    1
   128   129   127    1
   129   130   127    1
   130   131    30    1
   131   132   131   ar
   132   133   132    1
   133   134   132   ar
   134   135   134    1
   135   136   134   ar
   136   137   136   ar
   137   138   137    1
   138   139   131   ar
   139   140   139    1
   140   141    10    1
   141   142   141    1
   142   143   141    1
   143   144   141    1
   144   145     1    1
   145   146   147    1
   146   148   145    2
   147   149   148    1
   148   150   146    1
   149   151   150    1
   150   152   145    1
   151   153   152    1
   152   154     6    2
   153   155   154    1
   154   156     7    1
   155   157   156    1
   156   158     6    1
   157   159   158    1
   158     7   154    1
   159    15    16    1
   160    18    19    1
   161    20    21    1
   162    23    24    2
   163    25    26    2
   164    28    29    1
   165    29    30    1
   166    93    95   ar
   167   108   110   ar
   168   123   125   ar
   169   137   139   ar
   170   146   148    1
   171   150   152    2
   172   156   158    2
   173   160   161    1
   174   162   160    2
   175   163   160    2
   176   164   160    2
   177   165   167    1
   178   166   167    1
   179   167   168    1
   180   169   167    1
@<TRIPOS>SUBSTRUCTURE
     1 RES1        1 GROUP             0 ****  ****    0  
     2 RES2      160 GROUP             0 ****  ****    0  
     3 RES3      165 GROUP             0 ****  ****    0  
@<TRIPOS>CRYSIN
   13.0820   18.0002   15.5309   90.0000  112.1511   90.0000     4     1
