@<TRIPOS>MOLECULE
RIPZEW
    78    84     4     0     0
SMALL
USER_CHARGES
****
Generated from the CSD

@<TRIPOS>ATOM
     1 Fe1      1.6568   5.4030   2.3823   Fe        1 RES1   2.0000
     2 N1       2.4370   7.1038   2.0048   N.2       1 RES1   0.0000
     3 N2       0.8987   6.0589   4.1062   N.ar      1 RES1   0.0000
     4 N3       2.3426   4.3904   0.7469   N.ar      1 RES1   0.0000
     5 N4       1.0452   3.7516   3.1316   N.2       1 RES1   0.0000
     6 N5      -0.0391   5.9549   1.4474   N.ar      1 RES1   0.0000
     7 N6       3.4390   5.2336   3.3320   N.ar      1 RES1   0.0000
     8 N7       1.9850   8.1981   1.3882   N.pl3     1 RES1   0.0000
     9 C1       3.5456   7.4904   2.6524   C.2       1 RES1   0.0000
    10 C2       0.5414   5.0786   4.9943   C.ar      1 RES1   0.0000
    11 N8       5.8544   5.3950   4.7465   N.ar      1 RES1   0.0000
    12 C3       3.0849   5.0583  -0.1494   C.ar      1 RES1   0.0000
    13 H1       3.1702   5.9976  -0.0364   H         1 RES1   0.0000
    14 C4       0.6921   3.7285   4.4332   C.2       1 RES1   0.0000
    15 C5       2.7885   9.2534   1.6004   C.2       1 RES1   0.0000
    16 H2       2.6728  10.1261   1.2479   H         1 RES1   0.0000
    17 N9       1.1624   2.4847   2.7381   N.pl3     1 RES1   0.0000
    18 C6      -1.4694   7.5095   0.3024   C.ar      1 RES1   0.0000
    19 H3      -1.5803   8.3607  -0.1066   H         1 RES1   0.0000
    20 C7       3.7313   4.4844  -1.2215   C.ar      1 RES1   0.0000
    21 H4       4.2245   5.0172  -1.8336   H         1 RES1   0.0000
    22 C8      -0.2224   7.1309   0.8025   C.ar      1 RES1   0.0000
    23 C9       0.8581   1.6427   3.7519   C.2       1 RES1   0.0000
    24 H5       0.8420   0.6934   3.7072   H         1 RES1   0.0000
    25 C10      0.9103   8.0631   0.4172   C.3       1 RES1   0.0000
    26 H6       1.3000   7.7430  -0.4345   H         1 RES1   0.0000
    27 H7       0.5290   8.9625   0.2496   H         1 RES1   0.0000
    28 C11      3.6459   3.1347  -1.3845   C.ar      1 RES1   0.0000
    29 H8       4.1165   2.6979  -2.0841   H         1 RES1   0.0000
    30 C12      0.7327   7.3286   4.4997   C.ar      1 RES1   0.0000
    31 H9       0.9585   8.0419   3.9122   H         1 RES1   0.0000
    32 C13     -1.1161   5.1380   1.5467   C.ar      1 RES1   0.0000
    33 H10     -1.0022   4.3119   1.9994   H         1 RES1   0.0000
    34 C14      4.1560   6.3873   3.4094   C.ar      1 RES1   0.0000
    35 N10     -0.1222   6.6615   6.6366   N.ar      1 RES1   0.0000
    36 C15      2.1963   3.0618   0.5338   C.ar      1 RES1   0.0000
    37 C16      0.5726   2.4170   4.8713   C.2       1 RES1   0.0000
    38 H11      0.3471   2.1161   5.7430   H         1 RES1   0.0000
    39 C17     -2.3592   5.4229   1.0402   C.ar      1 RES1   0.0000
    40 H12     -3.0750   4.8020   1.1204   H         1 RES1   0.0000
    41 C18      5.1686   4.2672   4.6463   C.ar      1 RES1   0.0000
    42 H13      5.5133   3.4870   5.0635   H         1 RES1   0.0000
    43 C19      3.8134   8.8350   2.4247   C.2       1 RES1   0.0000
    44 H14      4.5377   9.3490   2.7599   H         1 RES1   0.0000
    45 C20     -2.5388   6.6460   0.4044   C.ar      1 RES1   0.0000
    46 H15     -3.3862   6.8823   0.0465   H         1 RES1   0.0000
    47 C21      2.8597   2.4229  -0.5064   C.ar      1 RES1   0.0000
    48 H16      2.7696   1.4825  -0.6139   H         1 RES1   0.0000
    49 C22      0.2308   7.6080   5.7612   C.ar      1 RES1   0.0000
    50 H17      0.1328   8.5162   6.0163   H         1 RES1   0.0000
    51 C23      3.9737   4.1752   3.9614   C.ar      1 RES1   0.0000
    52 H18      3.5180   3.3435   3.9349   H         1 RES1   0.0000
    53 C24      1.2122   2.2277   1.3116   C.3       1 RES1   0.0000
    54 H19      0.3086   2.3791   0.9355   H         1 RES1   0.0000
    55 H20      1.4344   1.2712   1.1741   H         1 RES1   0.0000
    56 C25      0.0337   5.3930   6.2385   C.ar      1 RES1   0.0000
    57 H21     -0.2113   4.6905   6.8279   H         1 RES1   0.0000
    58 C26      5.3330   6.4591   4.1253   C.ar      1 RES1   0.0000
    59 H22      5.7877   7.2927   4.1781   H         1 RES1   0.0000
    60 Cl1      6.6006   1.6769   7.6006   Cl        2 RES2   0.0000
    61 O1       6.0175   1.4856   6.3059   O.3       2 RES2  -1.0000
    62 O2       5.7700   1.0493   8.5922   O.2       2 RES2   0.0000
    63 O3       7.8956   1.0389   7.6039   O.2       2 RES2   0.0000
    64 O4       6.7024   3.0582   7.8690   O.2       2 RES2   0.0000
    65 Cl2      3.2911   9.0868   7.1510   Cl        3 RES3   0.0000
    66 O5       2.9395   7.7713   7.5939   O.3       3 RES3  -1.0000
    67 O6       2.2137   9.9954   7.4673   O.2       3 RES3   0.0000
    68 O7       4.4718   9.5363   7.8398   O.2       3 RES3   0.0000
    69 O8       3.5169   9.0721   5.7376   O.2       3 RES3   0.0000
    70 O9       5.6670   2.2954  11.1818   O.3       4 RES4   0.0000
    71 H23      5.5022   2.1520  10.3702   H         4 RES4   0.0000
    72 C27      5.5264   1.0903  11.9105   C.3       4 RES4   0.0000
    73 H24      5.7442   1.2593  12.8605   H         4 RES4   0.0000
    74 H25      6.1727   0.4264  11.5644   H         4 RES4   0.0000
    75 C28      4.1871   0.5404  11.8212   C.3       4 RES4   0.0000
    76 H26      3.5514   1.1597  12.2393   H         4 RES4   0.0000
    77 H27      4.1566  -0.3228  12.2840   H         4 RES4   0.0000
    78 H28      3.9469   0.4145  10.8794   H         4 RES4   0.0000
@<TRIPOS>BOND
     1     1     2    1
     2     2     8    1
     3     3     1    1
     4     4     1    1
     5     5     1    1
     6     6     1    1
     7     7     1    1
     8     8    15    1
     9     9     2    2
    10    10     3   ar
    11    11    41   ar
    12    12     4   ar
    13    13    12    1
    14    14     5    2
    15    15    16    1
    16    17     5    1
    17    18    19    1
    18    20    12   ar
    19    21    20    1
    20    22     6   ar
    21    23    17    1
    22    24    23    1
    23    25     8    1
    24    26    25    1
    25    27    25    1
    26    28    20   ar
    27    29    28    1
    28    30     3   ar
    29    31    30    1
    30    32     6   ar
    31    33    32    1
    32    34     7   ar
    33    35    49   ar
    34    36     4   ar
    35    37    14    1
    36    38    37    1
    37    39    32   ar
    38    40    39    1
    39    41    42    1
    40    43     9    1
    41    44    43    1
    42    45    18   ar
    43    46    45    1
    44    47    28   ar
    45    48    47    1
    46    49    30   ar
    47    50    49    1
    48    51     7   ar
    49    52    51    1
    50    53    17    1
    51    54    53    1
    52    55    53    1
    53    56    10   ar
    54    57    56    1
    55    58    11   ar
    56    59    58    1
    57     9    34    1
    58    10    14    1
    59    15    43    2
    60    18    22   ar
    61    22    25    1
    62    23    37    2
    63    34    58   ar
    64    35    56   ar
    65    36    47   ar
    66    36    53    1
    67    39    45   ar
    68    41    51   ar
    69    60    61    1
    70    62    60    2
    71    63    60    2
    72    64    60    2
    73    65    66    1
    74    67    65    2
    75    68    65    2
    76    69    65    2
    77    70    71    1
    78    72    70    1
    79    73    72    1
    80    74    72    1
    81    75    72    1
    82    76    75    1
    83    77    75    1
    84    78    75    1
@<TRIPOS>SUBSTRUCTURE
     1 RES1        1 GROUP             0 ****  ****    0  
     2 RES2       60 GROUP             0 ****  ****    0  
     3 RES3       65 GROUP             0 ****  ****    0  
     4 RES4       70 GROUP             0 ****  ****    0  
@<TRIPOS>CRYSIN
    8.7144   39.8510    9.1308   90.0000   93.9900   90.0000   231     1
