@<TRIPOS>MOLECULE
RIPZAS01
    75    81     4     0     0
SMALL
USER_CHARGES
****
Generated from the CSD

@<TRIPOS>ATOM
     1 Fe1      1.1063   6.9136   6.3069   Fe        1 RES1   2.0000
     2 N1       2.8455   6.1981   5.6272   N.ar      1 RES1   0.0000
     3 N2       5.3913   5.2576   4.9775   N.ar      1 RES1   0.0000
     4 N3       1.9836   6.4349   7.9563   N.2       1 RES1   0.0000
     5 N4       1.6667   6.6818   9.2355   N.pl3     1 RES1   0.0000
     6 N5      -0.5385   7.5337   7.3501   N.ar      1 RES1   0.0000
     7 C1       3.1705   5.8972   4.3614   C.ar      1 RES1   0.0000
     8 H1       2.5316   6.0219   3.6695   H         1 RES1   0.0000
     9 C2       4.4329   5.4059   4.0539   C.ar      1 RES1   0.0000
    10 H2       4.6236   5.1649   3.1543   H         1 RES1   0.0000
    11 C3       5.0636   5.5332   6.2317   C.ar      1 RES1   0.0000
    12 H3       5.7153   5.4245   6.9141   H         1 RES1   0.0000
    13 C4       3.7857   5.9773   6.5771   C.ar      1 RES1   0.0000
    14 C5       3.3110   6.2107   7.9323   C.2       1 RES1   0.0000
    15 C6       3.8428   6.3000   9.2294   C.2       1 RES1   0.0000
    16 H4       4.7484   6.1871   9.4937   H         1 RES1   0.0000
    17 C7       2.7676   6.5874  10.0290   C.2       1 RES1   0.0000
    18 H5       2.7876   6.7003  10.9718   H         1 RES1   0.0000
    19 C8       0.2556   6.7627   9.6027   C.3       1 RES1   0.0000
    20 H6       0.1916   7.1166  10.5259   H         1 RES1   0.0000
    21 H7      -0.1199   5.8467   9.6090   H         1 RES1   0.0000
    22 C9      -0.5996   7.6281   8.6958   C.ar      1 RES1   0.0000
    23 C10     -1.5810   8.3950   9.3399   C.ar      1 RES1   0.0000
    24 H8      -1.5447   8.5222  10.2799   H         1 RES1   0.0000
    25 C11     -2.5998   8.9663   8.6033   C.ar      1 RES1   0.0000
    26 H9      -3.2619   9.5023   9.0227   H         1 RES1   0.0000
    27 C12     -2.6336   8.7396   7.2401   C.ar      1 RES1   0.0000
    28 H10     -3.3619   9.0472   6.7142   H         1 RES1   0.0000
    29 C13     -1.5719   8.0469   6.6552   C.ar      1 RES1   0.0000
    30 H11     -1.5784   7.9315   5.7127   H         1 RES1   0.0000
    31 N6       1.9487   8.7624   6.3945   N.ar      1 RES1   0.0000
    32 N7       3.1703  11.2779   6.1256   N.ar      1 RES1   0.0000
    33 N8       0.6562   7.6037   4.5700   N.2       1 RES1   0.0000
    34 N9       0.1500   7.0315   3.4711   N.pl3     1 RES1   0.0000
    35 N10      0.1800   5.1843   5.8625   N.ar      1 RES1   0.0000
    36 C14      2.5863   9.3590   7.4319   C.ar      1 RES1   0.0000
    37 H12      2.6203   8.9217   8.2750   H         1 RES1   0.0000
    38 C15      3.1904  10.6003   7.2801   C.ar      1 RES1   0.0000
    39 H13      3.6364  10.9838   8.0251   H         1 RES1   0.0000
    40 C16      2.5316  10.6989   5.1067   C.ar      1 RES1   0.0000
    41 H14      2.4904  11.1498   4.2711   H         1 RES1   0.0000
    42 C17      1.9222   9.4467   5.2358   C.ar      1 RES1   0.0000
    43 C18      1.2123   8.7700   4.1636   C.2       1 RES1   0.0000
    44 C19      1.0093   8.9478   2.7991   C.2       1 RES1   0.0000
    45 H15      1.2881   9.6852   2.2682   H         1 RES1   0.0000
    46 C20      0.3187   7.8270   2.3751   C.2       1 RES1   0.0000
    47 H16      0.0189   7.6458   1.4916   H         1 RES1   0.0000
    48 C21     -0.6910   5.8517   3.5660   C.3       1 RES1   0.0000
    49 H17     -0.6344   5.3680   2.7045   H         1 RES1   0.0000
    50 H18     -1.6278   6.1534   3.6714   H         1 RES1   0.0000
    51 C22     -0.3902   4.8624   4.6786   C.ar      1 RES1   0.0000
    52 C23     -0.9458   3.6025   4.4483   C.ar      1 RES1   0.0000
    53 H19     -1.3009   3.3893   3.5945   H         1 RES1   0.0000
    54 C24     -0.9776   2.6646   5.4667   C.ar      1 RES1   0.0000
    55 H20     -1.3652   1.8093   5.3245   H         1 RES1   0.0000
    56 C25     -0.4383   2.9933   6.6834   C.ar      1 RES1   0.0000
    57 H21     -0.4736   2.3823   7.4100   H         1 RES1   0.0000
    58 C26      0.1538   4.2261   6.8324   C.ar      1 RES1   0.0000
    59 H22      0.5696   4.4225   7.6638   H         1 RES1   0.0000
    60 B1      -2.7967  12.3405  10.4663   B         2 RES2  -1.0000
    61 F1      -3.9600  11.6950  10.0204   F         2 RES2   0.0000
    62 F2      -3.1068  13.0989  11.6035   F         2 RES2   0.0000
    63 F3      -1.8317  11.3857  10.8035   F         2 RES2   0.0000
    64 F4      -2.3062  13.1697   9.4627   F         2 RES2   0.0000
    65 B2       5.3470   8.8998   3.5061   B         3 RES3  -1.0000
    66 F5       4.7353   8.5888   4.6894   F         3 RES3   0.0000
    67 F6       6.7238   8.6748   3.5858   F         3 RES3   0.0000
    68 F7       5.1374  10.2489   3.1701   F         3 RES3   0.0000
    69 F8       4.8306   8.0933   2.4592   F         3 RES3   0.0000
    70 O1       6.6245   6.6017   0.8442   O.3       4 RES4   0.0000
    71 H23      6.0421   7.0509   1.2494   H         4 RES4   0.0000
    72 C27      6.1619   5.2576   0.6805   C.3       4 RES4   0.0000
    73 H24      6.2474   4.7764   1.5301   H         4 RES4   0.0000
    74 H25      6.7001   4.8076  -0.0038   H         4 RES4   0.0000
    75 H26      5.2219   5.2669   0.4037   H         4 RES4   0.0000
@<TRIPOS>BOND
     1     1     2    1
     2     2     7   ar
     3     3     9   ar
     4     4     1    1
     5     5     4    1
     6     6     1    1
     7     7     8    1
     8     9     7   ar
     9    10     9    1
    10    11     3   ar
    11    12    11    1
    12    13     2   ar
    13    14     4    2
    14    15    14    1
    15    16    15    1
    16    17     5    1
    17    18    17    1
    18    19     5    1
    19    20    19    1
    20    21    19    1
    21    22     6   ar
    22    23    22   ar
    23    24    23    1
    24    25    23   ar
    25    26    25    1
    26    27    25   ar
    27    28    27    1
    28    29     6   ar
    29    30    29    1
    30    31     1    1
    31    32    38   ar
    32    33     1    1
    33    34    33    1
    34    35     1    1
    35    36    31   ar
    36    37    36    1
    37    38    36   ar
    38    39    38    1
    39    40    32   ar
    40    41    40    1
    41    42    31   ar
    42    43    33    2
    43    44    43    1
    44    45    44    1
    45    46    34    1
    46    47    46    1
    47    48    34    1
    48    49    48    1
    49    50    48    1
    50    51    35   ar
    51    52    51   ar
    52    53    52    1
    53    54    52   ar
    54    55    54    1
    55    56    54   ar
    56    57    56    1
    57    58    35   ar
    58    59    58    1
    59    11    13   ar
    60    13    14    1
    61    15    17    2
    62    19    22    1
    63    27    29   ar
    64    40    42   ar
    65    42    43    1
    66    44    46    2
    67    48    51    1
    68    56    58   ar
    69    60    61    1
    70    62    60    1
    71    63    60    1
    72    64    60    1
    73    65    66    1
    74    67    65    1
    75    68    65    1
    76    69    65    1
    77    70    71    1
    78    72    70    1
    79    73    72    1
    80    74    72    1
    81    75    72    1
@<TRIPOS>SUBSTRUCTURE
     1 RES1        1 GROUP             0 ****  ****    0  
     2 RES2       60 GROUP             0 ****  ****    0  
     3 RES3       65 GROUP             0 ****  ****    0  
     4 RES4       70 GROUP             0 ****  ****    0  
