@<TRIPOS>MOLECULE
RIQPUF
    81    88     5     0     0
SMALL
USER_CHARGES
****
Generated from the CSD

@<TRIPOS>ATOM
     1 Fe1      3.5765   8.6531   4.0611   Fe        1 RES1   2.0000
     2 N1       5.1351   7.4912   3.7728   N.ar      1 RES1   0.0000
     3 N2       4.3550   9.6129   5.6058   N.ar      1 RES1   0.0000
     4 N3       4.1602  10.0652   2.8192   N.ar      1 RES1   0.0000
     5 N4       2.8192   7.5671   2.6190   N.ar      1 RES1   0.0000
     6 N5       1.9676   9.7717   4.1895   N.ar      1 RES1   0.0000
     7 N6       2.9648   7.4020   5.4515   N.ar      1 RES1   0.0000
     8 C1       2.0329  10.8815   3.4243   C.ar      1 RES1   0.0000
     9 C2       4.8823   6.4732   2.8800   C.ar      1 RES1   0.0000
    10 C3       3.2437  11.0606   2.7184   C.ar      1 RES1   0.0000
    11 C4       3.6093   6.5336   2.2601   C.ar      1 RES1   0.0000
    12 C5       5.0272  10.7568   5.6592   C.ar      1 RES1   0.0000
    13 H1       5.1981  11.2123   4.8657   H         1 RES1   0.0000
    14 C6       4.1033   8.9922   6.7788   C.ar      1 RES1   0.0000
    15 C7       3.2193   5.5348   1.3525   C.ar      1 RES1   0.0000
    16 C8       3.3617   7.7851   6.7106   C.ar      1 RES1   0.0000
    17 C9       0.8564   9.6011   4.9191   C.ar      1 RES1   0.0000
    18 H2       0.8044   8.8535   5.4708   H         1 RES1   0.0000
    19 C10     -0.2013  10.4610   4.8984   C.ar      1 RES1   0.0000
    20 H3      -0.9501  10.2879   5.4219   H         1 RES1   0.0000
    21 C11      5.4858  11.2963   6.8515   C.ar      1 RES1   0.0000
    22 H4       5.9516  12.1014   6.8515   H         1 RES1   0.0000
    23 C12      5.3121  10.2287   2.2052   C.ar      1 RES1   0.0000
    24 H5       5.9425   9.5463   2.2482   H         1 RES1   0.0000
    25 C13      1.6321   7.6450   2.0213   C.ar      1 RES1   0.0000
    26 H6       1.0808   8.3667   2.2230   H         1 RES1   0.0000
    27 C14      1.0057  11.8224   3.3516   C.ar      1 RES1   0.0000
    28 C15      3.4514  12.2576   2.0095   C.ar      1 RES1   0.0000
    29 C16      1.1757   6.7041   1.1108   C.ar      1 RES1   0.0000
    30 H7       0.3329   6.7983   0.7282   H         1 RES1   0.0000
    31 C17      6.3157   7.4703   4.3749   C.ar      1 RES1   0.0000
    32 H8       6.5150   8.1407   4.9874   H         1 RES1   0.0000
    33 C18      5.7768   5.4458   2.5982   C.ar      1 RES1   0.0000
    34 C19      4.5311   9.4725   8.0305   C.ar      1 RES1   0.0000
    35 C20     -0.1628  11.5648   4.1198   C.ar      1 RES1   0.0000
    36 H9      -0.8890  12.1462   4.0857   H         1 RES1   0.0000
    37 C21      3.0048   7.0801   7.8674   C.ar      1 RES1   0.0000
    38 C22      2.3867  13.2055   1.9635   C.ar      1 RES1   0.0000
    39 H10      2.5111  13.9975   1.4919   H         1 RES1   0.0000
    40 C23      1.9563   5.6451   0.7771   C.ar      1 RES1   0.0000
    41 H11      1.6534   5.0048   0.1750   H         1 RES1   0.0000
    42 C24      2.2409   6.2779   5.3685   C.ar      1 RES1   0.0000
    43 H12      1.9556   6.0040   4.5261   H         1 RES1   0.0000
    44 C25      7.0162   5.4833   3.2463   C.ar      1 RES1   0.0000
    45 H13      7.6558   4.8291   3.0772   H         1 RES1   0.0000
    46 C26      4.1615   4.4837   1.0811   C.ar      1 RES1   0.0000
    47 H14      3.9313   3.8148   0.4775   H         1 RES1   0.0000
    48 C27      7.2754   6.4830   4.1242   C.ar      1 RES1   0.0000
    49 H15      8.0943   6.5137   4.5617   H         1 RES1   0.0000
    50 C28      5.2500  10.6423   8.0216   C.ar      1 RES1   0.0000
    51 H16      5.5774  10.9900   8.8194   H         1 RES1   0.0000
    52 C29      5.3539   4.4419   1.6699   C.ar      1 RES1   0.0000
    53 H17      5.9305   3.7386   1.4711   H         1 RES1   0.0000
    54 C30      5.6240  11.3864   1.4904   C.ar      1 RES1   0.0000
    55 H18      6.4522  11.4693   1.0767   H         1 RES1   0.0000
    56 C31      2.2569   5.9108   7.6879   C.ar      1 RES1   0.0000
    57 H19      2.0075   5.4042   8.4264   H         1 RES1   0.0000
    58 C32      1.2154  12.9950   2.5730   C.ar      1 RES1   0.0000
    59 H20      0.5330  13.6208   2.4900   H         1 RES1   0.0000
    60 C33      4.7184  12.3880   1.4014   C.ar      1 RES1   0.0000
    61 H21      4.9324  13.1652   0.9387   H         1 RES1   0.0000
    62 C34      1.8951   5.5107   6.4466   C.ar      1 RES1   0.0000
    63 H22      1.4163   4.7219   6.3280   H         1 RES1   0.0000
    64 C35      3.4777   7.5740   9.1086   C.ar      1 RES1   0.0000
    65 H23      3.2903   7.1002   9.8872   H         1 RES1   0.0000
    66 C36      4.1854   8.7058   9.1902   C.ar      1 RES1   0.0000
    67 H24      4.4634   9.0030  10.0251   H         1 RES1   0.0000
    68 O1       7.7129   7.9850   7.1763   O.3       2 RES2  -1.0000
    69 N7       8.2379   8.4473   8.1832   N.pl3     2 RES2   0.0000
    70 O2       9.0419   9.2525   8.1165   O.2       2 RES2   0.0000
    71 O3       8.0177   8.0577   9.2718   O.2       2 RES2   0.0000
    72 N8       8.6162   8.0945  14.6491   N.pl3     3 RES3   0.0000
    73 O4       9.6304   8.6152  15.0748   O.2       3 RES3   0.0000
    74 O5       7.9140   7.5770  15.5567   O.3       3 RES3  -1.0000
    75 O6       8.3971   7.9913  13.5413   O.2       3 RES3   0.0000
    76 O7       6.7695   6.8735  11.4043   O.3       4 RES4   0.0000
    77 H25      7.1118   7.2012  10.6999   H         4 RES4   0.0000
    78 H26      7.1144   7.2446  12.0865   H         4 RES4   0.0000
    79 O8      10.0214   9.3396  11.1359   O.3       5 RES5   0.0000
    80 H27      9.4683   8.6994  11.0618   H         5 RES5   0.0000
    81 H28      9.9072   9.8023  10.4315   H         5 RES5   0.0000
@<TRIPOS>BOND
     1     1     2    1
     2     2     9   ar
     3     3     1    1
     4     4     1    1
     5     5     1    1
     6     6     1    1
     7     7     1    1
     8     8     6   ar
     9     9    11   ar
    10    10     4   ar
    11    11     5   ar
    12    12     3   ar
    13    13    12    1
    14    14     3   ar
    15    15    11   ar
    16    16     7   ar
    17    17     6   ar
    18    18    17    1
    19    19    17   ar
    20    20    19    1
    21    21    12   ar
    22    22    21    1
    23    23     4   ar
    24    24    23    1
    25    25     5   ar
    26    26    25    1
    27    27     8   ar
    28    28    10   ar
    29    29    25   ar
    30    30    29    1
    31    31     2   ar
    32    32    31    1
    33    33     9   ar
    34    34    14   ar
    35    35    19   ar
    36    36    35    1
    37    37    16   ar
    38    38    28   ar
    39    39    38    1
    40    40    15   ar
    41    41    40    1
    42    42     7   ar
    43    43    42    1
    44    44    33   ar
    45    45    44    1
    46    46    15   ar
    47    47    46    1
    48    48    31   ar
    49    49    48    1
    50    50    21   ar
    51    51    50    1
    52    52    33   ar
    53    53    52    1
    54    54    23   ar
    55    55    54    1
    56    56    37   ar
    57    57    56    1
    58    58    27   ar
    59    59    58    1
    60    60    28   ar
    61    61    60    1
    62    62    42   ar
    63    63    62    1
    64    64    37   ar
    65    65    64    1
    66    66    34   ar
    67    67    66    1
    68     8    10   ar
    69    14    16   ar
    70    27    35   ar
    71    29    40   ar
    72    34    50   ar
    73    38    58   ar
    74    44    48   ar
    75    46    52   ar
    76    54    60   ar
    77    56    62   ar
    78    64    66   ar
    79    68    69    1
    80    69    70    2
    81    71    69    2
    82    72    73    2
    83    74    72    1
    84    75    72    2
    85    76    77    1
    86    78    76    1
    87    79    80    1
    88    81    79    1
@<TRIPOS>SUBSTRUCTURE
     1 RES1        1 GROUP             0 ****  ****    0  
     2 RES2       68 GROUP             0 ****  ****    0  
     3 RES3       72 GROUP             0 ****  ****    0  
     4 RES4       76 GROUP             0 ****  ****    0  
     5 RES5       79 GROUP             0 ****  ****    0  
@<TRIPOS>CRYSIN
    8.7902   12.5180   14.9290   96.5790   90.1670   93.0690     2     1
