@<TRIPOS>MOLECULE
RIRHAB
    78    84     3     0     0
SMALL
USER_CHARGES
****
Generated from the CSD

@<TRIPOS>ATOM
     1 Fe1      8.1542  19.3154   0.5539   Fe        1 RES1   2.0000
     2 O1       3.7335  18.9897   0.8932   O.3       1 RES1   0.0000
     3 O2       9.0846  18.7597  -3.7755   O.3       1 RES1   0.0000
     4 N1       6.8986  18.9936  -0.8721   N.ar      1 RES1   0.0000
     5 N2       7.0927  17.9365   1.6894   N.ar      1 RES1   0.0000
     6 N3       9.4430  17.9423  -0.3189   N.ar      1 RES1   0.0000
     7 N4       9.1139  20.6073  -0.6252   N.ar      1 RES1   0.0000
     8 N5       6.9750  20.6266   1.4032   N.ar      1 RES1   0.0000
     9 N6       9.4124  19.5231   2.0323   N.1       1 RES1   0.0000
    10 C1       5.5743  18.7443  -0.6108   C.ar      1 RES1   0.0000
    11 C2       4.8047  18.0988  -1.5213   C.ar      1 RES1   0.0000
    12 C3       5.2660  17.6833  -2.6748   C.ar      1 RES1   0.0000
    13 C4       6.5062  17.9403  -3.0071   C.ar      1 RES1   0.0000
    14 C5       7.3437  18.6515  -2.0995   C.ar      1 RES1   0.0000
    15 C6       5.1245  19.0786   0.7943   C.3       1 RES1   0.0000
    16 C7       8.8269  18.9433  -2.3800   C.3       1 RES1   0.0000
    17 C8       5.7025  18.0138   1.6491   C.ar      1 RES1   0.0000
    18 C9       4.9842  17.1248   2.3905   C.ar      1 RES1   0.0000
    19 C10      5.5798  16.2068   3.2357   C.ar      1 RES1   0.0000
    20 C11      6.9555  16.1952   3.2991   C.ar      1 RES1   0.0000
    21 C12      7.6758  17.0958   2.5384   C.ar      1 RES1   0.0000
    22 C13      9.5632  17.8939  -1.6664   C.ar      1 RES1   0.0000
    23 C14     10.5073  17.0668  -2.2897   C.ar      1 RES1   0.0000
    24 C15     11.2530  16.2261  -1.5213   C.ar      1 RES1   0.0000
    25 C16     11.1070  16.2319  -0.1383   C.ar      1 RES1   0.0000
    26 C17     10.1908  17.1422   0.4197   C.ar      1 RES1   0.0000
    27 C18      9.3251  20.3039  -1.9065   C.ar      1 RES1   0.0000
    28 C19     10.1500  21.1195  -2.7123   C.ar      1 RES1   0.0000
    29 C20     10.6033  22.2655  -2.2244   C.ar      1 RES1   0.0000
    30 C21     10.3603  22.6307  -0.9787   C.ar      1 RES1   0.0000
    31 C22      9.6689  21.7707  -0.1633   C.ar      1 RES1   0.0000
    32 C23      5.6185  20.3967   1.3898   C.ar      1 RES1   0.0000
    33 C24      4.7174  21.1852   2.1571   C.ar      1 RES1   0.0000
    34 C25      5.1937  22.3177   2.8352   C.ar      1 RES1   0.0000
    35 C26      6.5904  22.5303   2.8621   C.ar      1 RES1   0.0000
    36 C27      7.3585  21.6915   2.1351   C.ar      1 RES1   0.0000
    37 C28      2.9611  19.9135   0.1508   C.3       1 RES1   0.0000
    38 C29      8.3637  19.5734  -4.7148   C.3       1 RES1   0.0000
    39 C30     10.0714  19.5598   2.9207   C.1       1 RES1   0.0000
    40 C31     10.8493  19.5927   4.1520   C.3       1 RES1   0.0000
    41 H1       3.8910  17.9423  -1.3139   H         1 RES1   0.0000
    42 H2       4.7044  17.1982  -3.2684   H         1 RES1   0.0000
    43 H3       6.8455  17.6543  -3.8466   H         1 RES1   0.0000
    44 H4       4.0360  17.1383   2.3252   H         1 RES1   0.0000
    45 H5       5.0588  15.6038   3.7534   H         1 RES1   0.0000
    46 H6       7.4046  15.5748   3.8610   H         1 RES1   0.0000
    47 H7       8.6215  17.1170   2.6258   H         1 RES1   0.0000
    48 H8      10.6256  17.0919  -3.2319   H         1 RES1   0.0000
    49 H9      11.8740  15.6347  -1.9305   H         1 RES1   0.0000
    50 H10     11.6084  15.6405   0.4111   H         1 RES1   0.0000
    51 H11     10.1070  17.1827   1.3648   H         1 RES1   0.0000
    52 H12     10.3770  20.8508  -3.5940   H         1 RES1   0.0000
    53 H13     11.1163  22.8375  -2.7843   H         1 RES1   0.0000
    54 H14     10.6574  23.4734  -0.6541   H         1 RES1   0.0000
    55 H15      9.5709  21.9891   0.7559   H         1 RES1   0.0000
    56 H16      3.7995  20.9455   2.2119   H         1 RES1   0.0000
    57 H17      4.5965  22.9206   3.2616   H         1 RES1   0.0000
    58 H18      6.9733  23.2376   3.3702   H         1 RES1   0.0000
    59 H19      8.2905  21.8732   2.1408   H         1 RES1   0.0000
    60 H20      2.4326  19.4323  -0.5196   H         1 RES1   0.0000
    61 H21      3.5559  20.5493  -0.2977   H         1 RES1   0.0000
    62 H22      2.3602  20.3967   0.7549   H         1 RES1   0.0000
    63 H23      7.4163  19.3260  -4.7023   H         1 RES1   0.0000
    64 H24      8.7260  19.4342  -5.6147   H         1 RES1   0.0000
    65 H25      8.4584  20.5184  -4.4689   H         1 RES1   0.0000
    66 H26     10.8247  18.7114   4.5774   H         1 RES1   0.0000
    67 H27     10.4690  20.2594   4.7599   H         1 RES1   0.0000
    68 H28     11.7774  19.8304   3.9455   H         1 RES1   0.0000
    69 Cl1      1.4514  15.6301   4.0214   Cl        2 RES2   0.0000
    70 O3       0.6696  14.8694   3.2770   O.3       2 RES2  -1.0000
    71 O4       2.5707  15.1071   4.5237   O.2       2 RES2   0.0000
    72 O5       1.8531  16.7247   3.1915   O.2       2 RES2   0.0000
    73 O6       0.6867  16.1024   5.0932   O.2       2 RES2   0.0000
    74 Cl2      6.6240  13.5754   6.2227   Cl        3 RES3   0.0000
    75 O7       6.0722  12.5445   7.0179   O.3       3 RES3  -1.0000
    76 O8       7.5851  14.1041   7.1649   O.2       3 RES3   0.0000
    77 O9       7.5254  13.1108   5.2699   O.2       3 RES3   0.0000
    78 O10      5.8406  14.6530   5.9979   O.2       3 RES3   0.0000
@<TRIPOS>BOND
     1     1     4    1
     2     2    15    1
     3     3    16    1
     4     4    10   ar
     5     5     1    1
     6     6     1    1
     7     7     1    1
     8     8     1    1
     9     9     1    1
    10    10    11   ar
    11    11    12   ar
    12    12    13   ar
    13    13    14   ar
    14    14     4   ar
    15    15    10    1
    16    16    14    1
    17    17     5   ar
    18    18    17   ar
    19    19    18   ar
    20    20    19   ar
    21    21     5   ar
    22    22     6   ar
    23    23    22   ar
    24    24    23   ar
    25    25    24   ar
    26    26     6   ar
    27    27     7   ar
    28    28    27   ar
    29    29    28   ar
    30    30    29   ar
    31    31     7   ar
    32    32     8   ar
    33    33    32   ar
    34    34    33   ar
    35    35    34   ar
    36    36     8   ar
    37    37     2    1
    38    38     3    1
    39    39     9    3
    40    40    39    1
    41    41    11    1
    42    42    12    1
    43    43    13    1
    44    44    18    1
    45    45    19    1
    46    46    20    1
    47    47    21    1
    48    48    23    1
    49    49    24    1
    50    50    25    1
    51    51    26    1
    52    52    28    1
    53    53    29    1
    54    54    30    1
    55    55    31    1
    56    56    33    1
    57    57    34    1
    58    58    35    1
    59    59    36    1
    60    60    37    1
    61    61    37    1
    62    62    37    1
    63    63    38    1
    64    64    38    1
    65    65    38    1
    66    66    40    1
    67    67    40    1
    68    68    40    1
    69    15    17    1
    70    15    32    1
    71    16    22    1
    72    16    27    1
    73    20    21   ar
    74    25    26   ar
    75    30    31   ar
    76    35    36   ar
    77    69    70    1
    78    71    69    2
    79    72    69    2
    80    73    69    2
    81    74    75    1
    82    76    74    2
    83    77    74    2
    84    78    74    2
@<TRIPOS>SUBSTRUCTURE
     1 RES1        1 GROUP             0 ****  ****    0  
     2 RES2       69 GROUP             0 ****  ****    0  
     3 RES3       74 GROUP             0 ****  ****    0  
@<TRIPOS>CRYSIN
    9.7510   19.3260    9.7986   90.0000  101.4270   90.0000     4     1
