@<TRIPOS>MOLECULE
RISSUI
    86    92     3     0     0
SMALL
USER_CHARGES
****
Generated from the CSD

@<TRIPOS>ATOM
     1 Fe1      4.0128   6.3077   3.7099   Fe        1 RES1   2.0000
     2 O1       7.0632  12.0349   6.4653   O.3       1 RES1   0.0000
     3 H1       6.8442  12.3277   7.1990   H         1 RES1   0.0000
     4 O2       5.0424   2.0507  -1.8072   O.3       1 RES1   0.0000
     5 H2       5.5108   1.4550  -1.4936   H         1 RES1   0.0000
     6 O3       0.6227  11.1227   0.2654   O.3       1 RES1   0.0000
     7 H3       0.3370  11.6171   0.8538   H         1 RES1   0.0000
     8 N1       3.5894   4.8211   4.9382   N.ar      1 RES1   0.0000
     9 N2       4.7249   7.0934   5.4079   N.2       1 RES1   0.0000
    10 N3       3.0938   5.4286   2.1704   N.2       1 RES1   0.0000
    11 N4       2.2102   7.0341   3.9869   N.ar      1 RES1   0.0000
    12 N5       4.4709   7.6718   2.2988   N.2       1 RES1   0.0000
    13 N6       5.8261   5.7041   3.2268   N.ar      1 RES1   0.0000
    14 C1       3.9774   5.0254   6.2189   C.ar      1 RES1   0.0000
    15 C2       4.6394   6.2925   6.4232   C.2       1 RES1   0.0000
    16 H4       4.9898   6.5251   7.2513   H         1 RES1   0.0000
    17 C3       5.2630   8.3906   5.6617   C.ar      1 RES1   0.0000
    18 C4       4.9860   9.0520   6.8558   C.ar      1 RES1   0.0000
    19 H5       4.4008   8.6679   7.4701   H         1 RES1   0.0000
    20 C5       5.5654  10.2652   7.1384   C.ar      1 RES1   0.0000
    21 H6       5.3768  10.6940   7.9410   H         1 RES1   0.0000
    22 C6       6.4234  10.8454   6.2387   C.ar      1 RES1   0.0000
    23 C7       6.6714  10.2169   5.0400   C.ar      1 RES1   0.0000
    24 H7       7.2324  10.6210   4.4188   H         1 RES1   0.0000
    25 C8       6.1017   9.0082   4.7496   C.ar      1 RES1   0.0000
    26 H8       6.2793   8.5977   3.9337   H         1 RES1   0.0000
    27 C9       3.7215   4.1159   7.2356   C.ar      1 RES1   0.0000
    28 H9       4.0129   4.2829   8.1028   H         1 RES1   0.0000
    29 C10      3.0272   2.9629   6.9422   C.ar      1 RES1   0.0000
    30 H10      2.8592   2.3289   7.6010   H         1 RES1   0.0000
    31 C11      2.5837   2.7686   5.6465   C.ar      1 RES1   0.0000
    32 H11      2.0905   2.0133   5.4225   H         1 RES1   0.0000
    33 C12      2.8902   3.7191   4.6926   C.ar      1 RES1   0.0000
    34 H12      2.5875   3.5786   3.8243   H         1 RES1   0.0000
    35 C13      3.6493   4.5803   1.1478   C.ar      1 RES1   0.0000
    36 C14      3.3312   4.7819  -0.1867   C.ar      1 RES1   0.0000
    37 H13      2.7850   5.4952  -0.4281   H         1 RES1   0.0000
    38 C15      3.8162   3.9353  -1.1516   C.ar      1 RES1   0.0000
    39 H14      3.5999   4.0813  -2.0453   H         1 RES1   0.0000
    40 C16      4.6213   2.8680  -0.8079   C.ar      1 RES1   0.0000
    41 C17      4.9978   2.6838   0.5211   C.ar      1 RES1   0.0000
    42 H15      5.5799   1.9968   0.7539   H         1 RES1   0.0000
    43 C18      4.4933   3.5376   1.4933   C.ar      1 RES1   0.0000
    44 H16      4.7259   3.4081   2.3854   H         1 RES1   0.0000
    45 C19      1.8749   5.8172   2.0203   C.2       1 RES1   0.0000
    46 H17      1.3587   5.5098   1.3104   H         1 RES1   0.0000
    47 C20      1.3348   6.7486   2.9892   C.ar      1 RES1   0.0000
    48 C21      1.7837   7.8679   4.9473   C.ar      1 RES1   0.0000
    49 H18      2.3368   8.0266   5.6769   H         1 RES1   0.0000
    50 C22      0.5501   8.5028   4.8961   C.ar      1 RES1   0.0000
    51 H19      0.2910   9.0839   5.5747   H         1 RES1   0.0000
    52 C23     -0.2818   8.2620   3.8283   C.ar      1 RES1   0.0000
    53 H20     -1.0887   8.7199   3.7482   H         1 RES1   0.0000
    54 C24      0.0896   7.3315   2.8739   C.ar      1 RES1   0.0000
    55 H21     -0.4820   7.1062   2.1761   H         1 RES1   0.0000
    56 C25      3.5632   8.6333   1.7566   C.ar      1 RES1   0.0000
    57 C26      3.1722   8.5694   0.4231   C.ar      1 RES1   0.0000
    58 H22      3.5702   7.9482  -0.1427   H         1 RES1   0.0000
    59 C27      2.2127   9.4068  -0.0668   C.ar      1 RES1   0.0000
    60 H23      1.9624   9.3603  -0.9608   H         1 RES1   0.0000
    61 C28      1.6118  10.3272   0.7767   C.ar      1 RES1   0.0000
    62 C29      2.0096  10.4084   2.0976   C.ar      1 RES1   0.0000
    63 H24      1.6165  11.0351   2.6613   H         1 RES1   0.0000
    64 C30      2.9789   9.5756   2.5811   C.ar      1 RES1   0.0000
    65 H25      3.2455   9.6422   3.4699   H         1 RES1   0.0000
    66 C31      5.5406   7.3853   1.6253   C.2       1 RES1   0.0000
    67 H26      5.7756   7.8533   0.8562   H         1 RES1   0.0000
    68 C32      6.3507   6.3007   2.1343   C.ar      1 RES1   0.0000
    69 C33      6.5587   4.7618   3.8062   C.ar      1 RES1   0.0000
    70 H27      6.2330   4.3604   4.5782   H         1 RES1   0.0000
    71 C34      7.7847   4.3486   3.3196   C.ar      1 RES1   0.0000
    72 H28      8.2655   3.6872   3.7624   H         1 RES1   0.0000
    73 C35      8.2859   4.9223   2.1761   C.ar      1 RES1   0.0000
    74 H29      9.0900   4.6332   1.8122   H         1 RES1   0.0000
    75 C36      7.5698   5.9331   1.5844   C.ar      1 RES1   0.0000
    76 H30      7.8968   6.3627   0.8276   H         1 RES1   0.0000
    77 Cl1      9.0962   0.7712   2.0463   Cl        2 RES2   0.0000
    78 O4       9.5497  -0.0164   0.9456   O.3       2 RES2  -1.0000
    79 O5       7.7419   1.0828   1.9033   O.2       2 RES2   0.0000
    80 O6       9.8544   1.9658   2.0800   O.2       2 RES2   0.0000
    81 O7       9.3434   0.0803   3.2468   O.2       2 RES2   0.0000
    82 Cl2      1.0547   7.8060   8.5977   Cl        3 RES3   0.0000
    83 O8       1.6278   8.9662   7.9712   O.3       3 RES3  -1.0000
    84 O9       0.3461   8.2401   9.7721   O.2       3 RES3   0.0000
    85 O10      2.0812   6.9347   8.9813   O.2       3 RES3   0.0000
    86 O11      0.1546   7.1463   7.7215   O.2       3 RES3   0.0000
@<TRIPOS>BOND
     1     1     8    1
     2     2     3    1
     3     4     5    1
     4     6     7    1
     5     8    14   ar
     6     9     1    1
     7    10     1    1
     8    11     1    1
     9    12     1    1
    10    13     1    1
    11    14    15    1
    12    15     9    2
    13    16    15    1
    14    17     9    1
    15    18    17   ar
    16    19    18    1
    17    20    18   ar
    18    21    20    1
    19    22     2    1
    20    23    22   ar
    21    24    23    1
    22    25    17   ar
    23    26    25    1
    24    27    14   ar
    25    28    27    1
    26    29    27   ar
    27    30    29    1
    28    31    29   ar
    29    32    31    1
    30    33     8   ar
    31    34    33    1
    32    35    10    1
    33    36    35   ar
    34    37    36    1
    35    38    36   ar
    36    39    38    1
    37    40     4    1
    38    41    40   ar
    39    42    41    1
    40    43    35   ar
    41    44    43    1
    42    45    10    2
    43    46    45    1
    44    47    11   ar
    45    48    11   ar
    46    49    48    1
    47    50    48   ar
    48    51    50    1
    49    52    50   ar
    50    53    52    1
    51    54    47   ar
    52    55    54    1
    53    56    12    1
    54    57    56   ar
    55    58    57    1
    56    59    57   ar
    57    60    59    1
    58    61     6    1
    59    62    61   ar
    60    63    62    1
    61    64    56   ar
    62    65    64    1
    63    66    12    2
    64    67    66    1
    65    68    13   ar
    66    69    13   ar
    67    70    69    1
    68    71    69   ar
    69    72    71    1
    70    73    71   ar
    71    74    73    1
    72    75    68   ar
    73    76    75    1
    74    20    22   ar
    75    23    25   ar
    76    31    33   ar
    77    38    40   ar
    78    41    43   ar
    79    45    47    1
    80    52    54   ar
    81    59    61   ar
    82    62    64   ar
    83    66    68    1
    84    73    75   ar
    85    77    78    1
    86    79    77    2
    87    80    77    2
    88    81    77    2
    89    82    83    1
    90    84    82    2
    91    85    82    2
    92    86    82    2
@<TRIPOS>SUBSTRUCTURE
     1 RES1        1 GROUP             0 ****  ****    0  
     2 RES2       77 GROUP             0 ****  ****    0  
     3 RES3       82 GROUP             0 ****  ****    0  
@<TRIPOS>CRYSIN
   16.2010    9.1222   23.7870   90.0000   91.0890   90.0000    14     1
