@<TRIPOS>MOLECULE
RIZKAP
   114   123     1     0     0
SMALL
NO_CHARGES
****
Generated from the CSD

@<TRIPOS>ATOM
     1 As1      2.7434  16.9039  12.1356   As        1 RES1   0.0000
     2 Fe1      4.0038  16.2527  13.9366   Fe        1 RES1   0.0000
     3 F1       3.1126  12.5817  12.6895   F         1 RES1   0.0000
     4 F2       2.3933  14.4781  16.9016   F         1 RES1   0.0000
     5 F3       0.4671  17.1010  16.0990   F         1 RES1   0.0000
     6 F4       4.9046  18.5286  16.4810   F         1 RES1   0.0000
     7 N1       2.5157  14.8566  14.1558   N.2       1 RES1   0.0000
     8 N2       2.8261  17.7213  14.7978   N.2       1 RES1   0.0000
     9 N3       5.6215  15.4931  16.3686   N.1       1 RES1   0.0000
    10 N4       5.7365  14.3141  12.4898   N.1       1 RES1   0.0000
    11 N5       5.8417  18.5187  13.2983   N.1       1 RES1   0.0000
    12 C1       4.9172  15.7758  15.4897   C.1       1 RES1   0.0000
    13 C2       5.0237  15.0582  13.0345   C.1       1 RES1   0.0000
    14 C3       5.1611  17.6073  13.5733   C.1       1 RES1   0.0000
    15 C4       2.7738  13.6280  14.7664   C.ar      1 RES1   0.0000
    16 C5       3.0731  12.4859  14.0377   C.ar      1 RES1   0.0000
    17 C6       3.3305  11.2667  14.6033   C.ar      1 RES1   0.0000
    18 H1       3.5308  10.5299  14.0717   H         1 RES1   0.0000
    19 C7       3.2868  11.1557  15.9625   C.ar      1 RES1   0.0000
    20 H2       3.4683  10.3350  16.3610   H         1 RES1   0.0000
    21 C8       2.9801  12.2313  16.7506   C.ar      1 RES1   0.0000
    22 H3       2.9315  12.1518  17.6750   H         1 RES1   0.0000
    23 C9       2.7469  13.4340  16.1257   C.ar      1 RES1   0.0000
    24 C10      1.3824  14.8600  13.3812   C.ar      1 RES1   0.0000
    25 C11      0.2962  13.9755  13.5759   C.ar      1 RES1   0.0000
    26 H4       0.3435  13.3302  14.2435   H         1 RES1   0.0000
    27 C12     -0.8287  14.0558  12.7915   C.ar      1 RES1   0.0000
    28 H5      -1.5216  13.4533  12.9392   H         1 RES1   0.0000
    29 C13     -0.9690  14.9934  11.7957   C.ar      1 RES1   0.0000
    30 H6      -1.7478  15.0376  11.2901   H         1 RES1   0.0000
    31 C14      0.0734  15.8669  11.5658   C.ar      1 RES1   0.0000
    32 H7       0.0004  16.5136  10.9008   H         1 RES1   0.0000
    33 C15      1.2319  15.7800  12.3242   C.ar      1 RES1   0.0000
    34 C16      3.2566  16.9260  10.2974   C.ar      1 RES1   0.0000
    35 C17      2.8345  15.9383   9.4295   C.ar      1 RES1   0.0000
    36 H8       2.2178  15.3049   9.7191   H         1 RES1   0.0000
    37 C18      3.3116  15.8790   8.1444   C.ar      1 RES1   0.0000
    38 H9       3.0110  15.2117   7.5714   H         1 RES1   0.0000
    39 C19      4.2179  16.7827   7.7068   C.ar      1 RES1   0.0000
    40 H10      4.5413  16.7362   6.8358   H         1 RES1   0.0000
    41 C20      4.6556  17.7703   8.5561   C.ar      1 RES1   0.0000
    42 H11      5.2791  18.3930   8.2581   H         1 RES1   0.0000
    43 C21      4.1822  17.8444   9.8394   C.ar      1 RES1   0.0000
    44 H12      4.4856  18.5167  10.4048   H         1 RES1   0.0000
    45 C22      2.1705  18.6195  12.6673   C.ar      1 RES1   0.0000
    46 C23      1.6321  19.6389  11.8810   C.ar      1 RES1   0.0000
    47 H13      1.6261  19.5517  10.9547   H         1 RES1   0.0000
    48 C24      1.1112  20.7704  12.4615   C.ar      1 RES1   0.0000
    49 H14      0.7825  21.4641  11.9363   H         1 RES1   0.0000
    50 C25      1.0850  20.8578  13.8411   C.ar      1 RES1   0.0000
    51 H15      0.6988  21.6046  14.2384   H         1 RES1   0.0000
    52 C26      1.6158  19.8686  14.6441   C.ar      1 RES1   0.0000
    53 H16      1.5843  19.9603  15.5692   H         1 RES1   0.0000
    54 C27      2.2024  18.7237  14.0766   C.ar      1 RES1   0.0000
    55 C28      2.6998  17.7745  16.1888   C.ar      1 RES1   0.0000
    56 C29      1.5236  17.4407  16.8489   C.ar      1 RES1   0.0000
    57 C30      1.3745  17.4764  18.2119   C.ar      1 RES1   0.0000
    58 H17      0.5572  17.2704  18.6042   H         1 RES1   0.0000
    59 C31      2.4542  17.8221  18.9870   C.ar      1 RES1   0.0000
    60 H18      2.3675  17.8401  19.9124   H         1 RES1   0.0000
    61 C32      3.6514  18.1389  18.4196   C.ar      1 RES1   0.0000
    62 H19      4.3899  18.3500  18.9435   H         1 RES1   0.0000
    63 C33      3.7323  18.1360  17.0399   C.ar      1 RES1   0.0000
    64 C34      6.6846  15.2747  17.2662   C.ar      1 RES1   0.0000
    65 C35      7.9813  15.4779  16.7951   C.ar      1 RES1   0.0000
    66 C36      9.0251  15.2472  17.6704   C.ar      1 RES1   0.0000
    67 H20      9.9023  15.3588  17.3841   H         1 RES1   0.0000
    68 C37      8.7722  14.8529  18.9666   C.ar      1 RES1   0.0000
    69 H21      9.4800  14.7166  19.5534   H         1 RES1   0.0000
    70 C38      7.4861  14.6598  19.3968   C.ar      1 RES1   0.0000
    71 H22      7.3410  14.3731  20.2694   H         1 RES1   0.0000
    72 C39      6.3905  14.8800  18.5679   C.ar      1 RES1   0.0000
    73 C40      4.9826  14.6587  19.0371   C.3       1 RES1   0.0000
    74 H23      4.4836  15.4736  18.9472   H         1 RES1   0.0000
    75 H24      4.9919  14.3895  19.9592   H         1 RES1   0.0000
    76 H25      4.5727  13.9715  18.5076   H         1 RES1   0.0000
    77 C41      8.2402  15.9338  15.3802   C.3       1 RES1   0.0000
    78 H26      7.8020  15.3391  14.7673   H         1 RES1   0.0000
    79 H27      9.1848  15.9299  15.2106   H         1 RES1   0.0000
    80 H28      7.8976  16.8231  15.2635   H         1 RES1   0.0000
    81 C42      6.5665  13.3469  11.9070   C.ar      1 RES1   0.0000
    82 C43      6.8791  13.4852  10.5644   C.ar      1 RES1   0.0000
    83 C44      7.6972  12.5148  10.0229   C.ar      1 RES1   0.0000
    84 H29      7.9366  12.5689   9.1251   H         1 RES1   0.0000
    85 C45      8.1587  11.4833  10.7721   C.ar      1 RES1   0.0000
    86 H30      8.7016  10.8408  10.3760   H         1 RES1   0.0000
    87 C46      7.8436  11.3665  12.0980   C.ar      1 RES1   0.0000
    88 H31      8.1703  10.6475  12.5890   H         1 RES1   0.0000
    89 C47      7.0388  12.3182  12.7136   C.ar      1 RES1   0.0000
    90 C48      6.7312  12.2450  14.1638   C.3       1 RES1   0.0000
    91 H32      7.2826  12.8709  14.6388   H         1 RES1   0.0000
    92 H33      6.9068  11.3569  14.4829   H         1 RES1   0.0000
    93 H34      5.8068  12.4597  14.3058   H         1 RES1   0.0000
    94 C49      6.3656  14.6094   9.7337   C.3       1 RES1   0.0000
    95 H35      6.7705  14.5756   8.8647   H         1 RES1   0.0000
    96 H36      6.5819  15.4436  10.1564   H         1 RES1   0.0000
    97 H37      5.4124  14.5324   9.6467   H         1 RES1   0.0000
    98 C50      6.6429  19.5987  12.9176   C.ar      1 RES1   0.0000
    99 C51      6.1950  20.8804  13.2125   C.ar      1 RES1   0.0000
   100 C52      7.0206  21.9303  12.8138   C.ar      1 RES1   0.0000
   101 H38      6.7700  22.8072  12.9959   H         1 RES1   0.0000
   102 C53      8.1995  21.6857  12.1573   C.ar      1 RES1   0.0000
   103 H39      8.7309  22.3974  11.8837   H         1 RES1   0.0000
   104 C54      8.5969  20.4206  11.9014   C.ar      1 RES1   0.0000
   105 H40      9.4102  20.2786  11.4738   H         1 RES1   0.0000
   106 C55      7.8274  19.3373  12.2612   C.ar      1 RES1   0.0000
   107 C56      8.2730  17.9483  11.9608   C.3       1 RES1   0.0000
   108 H41      8.4146  17.4733  12.7834   H         1 RES1   0.0000
   109 H42      9.0934  17.9758  11.4627   H         1 RES1   0.0000
   110 H43      7.5998  17.5001  11.4443   H         1 RES1   0.0000
   111 C57      4.8990  21.1156  13.9246   C.3       1 RES1   0.0000
   112 H44      4.1738  20.7970  13.3835   H         1 RES1   0.0000
   113 H45      4.7894  22.0553  14.0874   H         1 RES1   0.0000
   114 H46      4.9044  20.6449  14.7621   H         1 RES1   0.0000
@<TRIPOS>BOND
     1     1     2    1
     2     2     7    1
     3     3    16    1
     4     4    23    1
     5     5    56    1
     6     6    63    1
     7     7    15    1
     8     8     2    1
     9     9    12    3
    10    10    13    3
    11    11    14    3
    12    12     2    1
    13    13     2    1
    14    14     2    1
    15    15    16   ar
    16    16    17   ar
    17    17    18    1
    18    19    17   ar
    19    20    19    1
    20    21    19   ar
    21    22    21    1
    22    23    15   ar
    23    24     7    1
    24    25    24   ar
    25    26    25    1
    26    27    25   ar
    27    28    27    1
    28    29    27   ar
    29    30    29    1
    30    31    29   ar
    31    32    31    1
    32    33     1    1
    33    34     1    1
    34    35    34   ar
    35    36    35    1
    36    37    35   ar
    37    38    37    1
    38    39    37   ar
    39    40    39    1
    40    41    39   ar
    41    42    41    1
    42    43    34   ar
    43    44    43    1
    44    45     1    1
    45    46    45   ar
    46    47    46    1
    47    48    46   ar
    48    49    48    1
    49    50    48   ar
    50    51    50    1
    51    52    50   ar
    52    53    52    1
    53    54     8    1
    54    55     8    1
    55    56    55   ar
    56    57    56   ar
    57    58    57    1
    58    59    57   ar
    59    60    59    1
    60    61    59   ar
    61    62    61    1
    62    63    55   ar
    63    64     9    1
    64    65    64   ar
    65    66    65   ar
    66    67    66    1
    67    68    66   ar
    68    69    68    1
    69    70    68   ar
    70    71    70    1
    71    72    64   ar
    72    73    72    1
    73    74    73    1
    74    75    73    1
    75    76    73    1
    76    77    65    1
    77    78    77    1
    78    79    77    1
    79    80    77    1
    80    81    10    1
    81    82    81   ar
    82    83    82   ar
    83    84    83    1
    84    85    83   ar
    85    86    85    1
    86    87    85   ar
    87    88    87    1
    88    89    81   ar
    89    90    89    1
    90    91    90    1
    91    92    90    1
    92    93    90    1
    93    94    82    1
    94    95    94    1
    95    96    94    1
    96    97    94    1
    97    98    11    1
    98    99    98   ar
    99   100    99   ar
   100   101   100    1
   101   102   100   ar
   102   103   102    1
   103   104   102   ar
   104   105   104    1
   105   106    98   ar
   106   107   106    1
   107   108   107    1
   108   109   107    1
   109   110   107    1
   110   111    99    1
   111   112   111    1
   112   113   111    1
   113   114   111    1
   114    21    23   ar
   115    24    33   ar
   116    31    33   ar
   117    41    43   ar
   118    45    54   ar
   119    52    54   ar
   120    61    63   ar
   121    70    72   ar
   122    87    89   ar
   123   104   106   ar
@<TRIPOS>SUBSTRUCTURE
     1 RES1        1 GROUP             0 ****  ****    0  
@<TRIPOS>CRYSIN
   11.1442   26.2475   18.8463   90.0000  100.2790   90.0000    14     1
