@<TRIPOS>MOLECULE
ROCDUK
    81    87     2     0     0
SMALL
USER_CHARGES
****
Generated from the CSD

@<TRIPOS>ATOM
     1 Fe1      1.8058   9.8776   8.8734   Fe        1 RES1   1.0000
     2 Cl1      1.7567   8.2932   7.2390   Cl        1 RES1   0.0000
     3 S1       1.9732   8.1429  10.8088   S.3       1 RES1   0.0000
     4 C1       2.1007  12.0756   6.5135   C.ar      1 RES1   0.0000
     5 H1       2.5806  11.4224   6.0183   H         1 RES1   0.0000
     6 C2       1.8674  13.3148   5.9325   C.ar      1 RES1   0.0000
     7 H2       2.1884  13.5046   5.0595   H         1 RES1   0.0000
     8 C3       1.1633  14.2675   6.6411   C.ar      1 RES1   0.0000
     9 H3       0.9836  15.1184   6.2580   H         1 RES1   0.0000
    10 C4       0.7216  13.9612   7.9238   C.ar      1 RES1   0.0000
    11 H4       0.2356  14.5981   8.4360   H         1 RES1   0.0000
    12 C5       1.0037  12.7100   8.4375   C.ar      1 RES1   0.0000
    13 C6       0.5554  12.2653   9.8098   C.3       1 RES1   0.0000
    14 H5       0.3199  13.0522  10.3820   H         1 RES1   0.0000
    15 C7      -0.6459  11.3546   9.6190   C.ar      1 RES1   0.0000
    16 C8      -1.9447  11.7476   9.8693   C.ar      1 RES1   0.0000
    17 H6      -2.1334  12.6158  10.2067   H         1 RES1   0.0000
    18 C9      -2.9709  10.8422   9.6170   C.ar      1 RES1   0.0000
    19 H7      -3.8734  11.0809   9.7917   H         1 RES1   0.0000
    20 C10     -2.6633   9.5939   9.1110   C.ar      1 RES1   0.0000
    21 H8      -3.3498   8.9598   8.9360   H         1 RES1   0.0000
    22 C11     -1.3335   9.2814   8.8628   C.ar      1 RES1   0.0000
    23 H9      -1.1221   8.4305   8.4978   H         1 RES1   0.0000
    24 C12      1.2042  11.0700  11.8112   C.3       1 RES1   0.0000
    25 H10      0.3776  10.5306  11.7403   H         1 RES1   0.0000
    26 H11      0.9831  11.8918  12.3176   H         1 RES1   0.0000
    27 C13      2.2308  10.2840  12.5862   C.ar      1 RES1   0.0000
    28 C14      2.8203  10.8742  13.7056   C.ar      1 RES1   0.0000
    29 H12      2.5571  11.7490  13.9672   H         1 RES1   0.0000
    30 C15      3.7829  10.2041  14.4425   C.ar      1 RES1   0.0000
    31 H13      4.1823  10.6275  15.1941   H         1 RES1   0.0000
    32 C16      4.1624   8.9268  14.0919   C.ar      1 RES1   0.0000
    33 H14      4.8211   8.4684  14.6012   H         1 RES1   0.0000
    34 C17      3.5788   8.3127  12.9952   C.ar      1 RES1   0.0000
    35 H15      3.8368   7.4299  12.7558   H         1 RES1   0.0000
    36 C18      2.6201   8.9791  12.2437   C.ar      1 RES1   0.0000
    37 C19      0.3382   7.5832  11.3673   C.3       1 RES1   0.0000
    38 H16     -0.2131   8.3746  11.5882   H         1 RES1   0.0000
    39 H17     -0.1085   7.1023  10.6268   H         1 RES1   0.0000
    40 C20      0.4003   6.6689  12.5823   C.3       1 RES1   0.0000
    41 H18      0.7418   7.1802  13.3589   H         1 RES1   0.0000
    42 H19     -0.5124   6.3563  12.8022   H         1 RES1   0.0000
    43 C21      1.2567   5.5195  12.3534   C.1       1 RES1   0.0000
    44 C22      2.9518  12.1445  10.4768   C.3       1 RES1   0.0000
    45 H20      3.0404  12.6248  11.3382   H         1 RES1   0.0000
    46 H21      2.9843  12.8165   9.7505   H         1 RES1   0.0000
    47 C23      4.1118  11.1906  10.3204   C.ar      1 RES1   0.0000
    48 C24      5.2899  11.4510  10.9908   C.ar      1 RES1   0.0000
    49 H22      5.3554  12.1934  11.5805   H         1 RES1   0.0000
    50 C25      6.3726  10.6138  10.7905   C.ar      1 RES1   0.0000
    51 H23      7.1992  10.7883  11.2248   H         1 RES1   0.0000
    52 C26      6.2465   9.5289   9.9585   C.ar      1 RES1   0.0000
    53 H24      6.9807   8.9438   9.8098   H         1 RES1   0.0000
    54 C27      5.0146   9.3029   9.3329   C.ar      1 RES1   0.0000
    55 C28      5.6940   7.2083   8.1597   C.2       1 RES1   0.0000
    56 C29      5.1020   5.9720   7.4777   C.3       1 RES1   0.0000
    57 C30      4.5573   6.3264   6.0797   C.3       1 RES1   0.0000
    58 H25      3.8621   7.0124   6.1653   H         1 RES1   0.0000
    59 H26      4.1771   5.5255   5.6652   H         1 RES1   0.0000
    60 H27      5.2872   6.6679   5.5209   H         1 RES1   0.0000
    61 C31      6.2118   4.9303   7.3151   C.3       1 RES1   0.0000
    62 H28      6.9025   5.2788   6.7143   H         1 RES1   0.0000
    63 H29      5.8340   4.1074   6.9385   H         1 RES1   0.0000
    64 H30      6.6088   4.7355   8.1911   H         1 RES1   0.0000
    65 C32      3.9895   5.3815   8.3556   C.3       1 RES1   0.0000
    66 H31      4.3242   5.2558   9.2685   H         1 RES1   0.0000
    67 H32      3.7070   4.5168   7.9901   H         1 RES1   0.0000
    68 H33      3.2239   5.9938   8.3690   H         1 RES1   0.0000
    69 N1       1.6778  11.7662   7.7437   N.ar      1 RES1   0.0000
    70 N2      -0.3401  10.1402   9.1200   N.ar      1 RES1   0.0000
    71 N3       1.6450  11.4541  10.4397   N.3       1 RES1   0.0000
    72 N4       1.9542   4.6427  12.1694   N.1       1 RES1   0.0000
    73 N5       3.9611  10.1325   9.4922   N.ar      1 RES1   0.0000
    74 N6       4.7816   8.1738   8.5388   N.am      1 RES1   0.0000
    75 H34      4.0157   8.0890   8.2839   H         1 RES1   0.0000
    76 O1       6.8863   7.3156   8.3757   O.2       1 RES1   0.0000
    77 B1      -2.3948   5.6233  10.1928   B         2 RES2  -1.0000
    78 F1      -2.0240   6.0812   8.9561   F         2 RES2   0.0000
    79 F2      -1.2893   4.9583  10.7464   F         2 RES2   0.0000
    80 F3      -3.4305   4.7115  10.1219   F         2 RES2   0.0000
    81 F4      -2.7262   6.6874  11.0173   F         2 RES2   0.0000
@<TRIPOS>BOND
     1     1     2    1
     2     3     1    1
     3     4     5    1
     4     6     4   ar
     5     7     6    1
     6     8     6   ar
     7     9     8    1
     8    10     8   ar
     9    11    10    1
    10    12    10   ar
    11    13    12    1
    12    14    13    1
    13    15    13    1
    14    16    15   ar
    15    17    16    1
    16    18    16   ar
    17    19    18    1
    18    20    18   ar
    19    21    20    1
    20    22    20   ar
    21    23    22    1
    22    24    25    1
    23    26    24    1
    24    27    24    1
    25    28    27   ar
    26    29    28    1
    27    30    28   ar
    28    31    30    1
    29    32    30   ar
    30    33    32    1
    31    34    32   ar
    32    35    34    1
    33    36     3    1
    34    37     3    1
    35    38    37    1
    36    39    37    1
    37    40    37    1
    38    41    40    1
    39    42    40    1
    40    43    40    1
    41    44    45    1
    42    46    44    1
    43    47    44    1
    44    48    47   ar
    45    49    48    1
    46    50    48   ar
    47    51    50    1
    48    52    50   ar
    49    53    52    1
    50    54    52   ar
    51    55    56    1
    52    56    57    1
    53    57    58    1
    54    59    57    1
    55    60    57    1
    56    61    56    1
    57    62    61    1
    58    63    61    1
    59    64    61    1
    60    65    56    1
    61    66    65    1
    62    67    65    1
    63    68    65    1
    64    69     1    1
    65    70     1    1
    66    71     1    1
    67    72    43    3
    68    73     1    1
    69    74    54    1
    70    75    74    1
    71    76    55    2
    72     4    69   ar
    73    12    69   ar
    74    13    71    1
    75    15    70   ar
    76    22    70   ar
    77    24    71    1
    78    27    36   ar
    79    34    36   ar
    80    44    71    1
    81    47    73   ar
    82    54    73   ar
    83    55    74   am
    84    77    78    1
    85    79    77    1
    86    80    77    1
    87    81    77    1
@<TRIPOS>SUBSTRUCTURE
     1 RES1        1 GROUP             0 ****  ****    0  
     2 RES2       77 GROUP             0 ****  ****    0  
@<TRIPOS>CRYSIN
   25.4707    9.9864   25.8674   90.0000   94.8579   90.0000    15     1
