@<TRIPOS>MOLECULE
ROFGEC02
    84    89     2     0     0
SMALL
USER_CHARGES
****
Generated from the CSD

@<TRIPOS>ATOM
     1 Fe1      2.9095   7.4650   7.2327   Fe        1 RES1   2.0000
     2 N1       2.1733   8.0930   5.4104   N.ar      1 RES1   0.0000
     3 N2       3.7690   6.9376   9.0439   N.ar      1 RES1   0.0000
     4 N3       4.6929   7.3285   6.0227   N.3       1 RES1   0.0000
     5 N4       2.4328   5.5686   6.8395   N.1       1 RES1   0.0000
     6 N5       3.7461   9.3253   7.8429   N.3       1 RES1   0.0000
     7 N6       1.2159   7.9417   8.1309   N.1       1 RES1   0.0000
     8 C1       3.6904   9.3366   9.3319   C.3       1 RES1   0.0000
     9 H1       2.7828   9.5937   9.6297   H         1 RES1   0.0000
    10 H2       4.3334  10.0015   9.6857   H         1 RES1   0.0000
    11 C2       2.9828   7.8408   4.3559   C.ar      1 RES1   0.0000
    12 C3       6.9624   3.7353   4.0502   C.ar      1 RES1   0.0000
    13 H3       6.6314   3.0414   3.4939   H         1 RES1   0.0000
    14 C4       3.5370  11.8657   7.8390   C.ar      1 RES1   0.0000
    15 C5       7.9173   5.7555   5.6915   C.ar      1 RES1   0.0000
    16 H4       8.2536   6.4323   6.2665   H         1 RES1   0.0000
    17 C6       8.3282   4.0164   4.0787   C.ar      1 RES1   0.0000
    18 H5       8.9313   3.5280   3.5303   H         1 RES1   0.0000
    19 C7       4.0319   5.6921   9.5049   C.ar      1 RES1   0.0000
    20 H6       3.8484   4.9519   8.9388   H         1 RES1   0.0000
    21 C8       4.1900   6.9926   4.6674   C.3       1 RES1   0.0000
    22 H7       3.9460   6.0348   4.6281   H         1 RES1   0.0000
    23 H8       4.8991   7.1605   3.9962   H         1 RES1   0.0000
    24 C9       6.5437   5.5122   5.6355   C.ar      1 RES1   0.0000
    25 C10      1.4954   8.9614   2.8571   C.ar      1 RES1   0.0000
    26 H9       1.2639   9.2561   1.9843   H         1 RES1   0.0000
    27 C11      6.0850   4.4738   4.8365   C.ar      1 RES1   0.0000
    28 H10      5.1588   4.2631   4.8276   H         1 RES1   0.0000
    29 C12      4.5632   7.8100  11.1305   C.ar      1 RES1   0.0000
    30 H11      4.7510   8.5639  11.6769   H         1 RES1   0.0000
    31 C13      5.1693   9.2835   7.4056   C.3       1 RES1   0.0000
    32 H12      5.6932   8.7369   8.0434   H         1 RES1   0.0000
    33 H13      5.5422  10.2002   7.4095   H         1 RES1   0.0000
    34 C14      2.2882   4.4481   6.6911   C.1       1 RES1   0.0000
    35 C15      0.6571   9.1961   3.9234   C.ar      1 RES1   0.0000
    36 H14     -0.1676   9.6502   3.7976   H         1 RES1   0.0000
    37 C16      4.5260  12.5751   7.1618   C.ar      1 RES1   0.0000
    38 H15      4.8604  12.2478   6.3353   H         1 RES1   0.0000
    39 C17      4.8157   6.5197  11.5845   C.ar      1 RES1   0.0000
    40 H16      5.1658   6.3758  12.4563   H         1 RES1   0.0000
    41 C18      3.0256  12.3986   9.0204   C.ar      1 RES1   0.0000
    42 H17      2.3272  11.9445   9.4764   H         1 RES1   0.0000
    43 C19      8.7922   5.0153   4.9141   C.ar      1 RES1   0.0000
    44 H18      9.7239   5.1952   4.9554   H         1 RES1   0.0000
    45 C20      3.0370  10.5463   7.3024   C.3       1 RES1   0.0000
    46 H19      3.1284  10.5515   6.3166   H         1 RES1   0.0000
    47 H20      2.0728  10.4658   7.5117   H         1 RES1   0.0000
    48 C21      5.0273  13.7625   7.6867   C.ar      1 RES1   0.0000
    49 H21      5.7060  14.2354   7.2198   H         1 RES1   0.0000
    50 C22      5.2963   8.6992   6.0247   C.3       1 RES1   0.0000
    51 H22      4.7249   9.2613   5.4262   H         1 RES1   0.0000
    52 C23      0.3192   8.5365   8.5250   C.1       1 RES1   0.0000
    53 C24      4.0310   7.9710   9.8597   C.ar      1 RES1   0.0000
    54 C25      2.6887   8.2812   3.0831   C.ar      1 RES1   0.0000
    55 H23      3.2940   8.1218   2.3686   H         1 RES1   0.0000
    56 C26      4.5499   5.4488  10.7511   C.ar      1 RES1   0.0000
    57 H24      4.7228   4.5595  11.0371   H         1 RES1   0.0000
    58 C27      1.0310   8.7609   5.1775   C.ar      1 RES1   0.0000
    59 H25      0.4551   8.9425   5.9097   H         1 RES1   0.0000
    60 C28      5.5825   6.2421   6.5751   C.3       1 RES1   0.0000
    61 H26      4.9967   5.5585   6.9889   H         1 RES1   0.0000
    62 H27      6.1229   6.6397   7.3024   H         1 RES1   0.0000
    63 C29      6.7210   8.8106   5.4940   C.3       1 RES1   0.0000
    64 H28      7.3460   8.4439   6.1535   H         1 RES1   0.0000
    65 H29      6.9356   9.7530   5.3298   H         1 RES1   0.0000
    66 H30      6.7983   8.3086   4.6556   H         1 RES1   0.0000
    67 C30      3.5215  13.5792   9.5373   C.ar      1 RES1   0.0000
    68 H31      3.1649  13.9321  10.3442   H         1 RES1   0.0000
    69 C31      4.5450  14.2543   8.8759   C.ar      1 RES1   0.0000
    70 H32      4.9086  15.0510   9.2444   H         1 RES1   0.0000
    71 B1      -0.8593   9.5183   9.0027   B         1 RES1  -1.0000
    72 B2       2.1299   2.8820   6.5024   B         1 RES1  -1.0000
    73 H33     -1.0910  10.1780   8.0886   H         1 RES1   0.0000
    74 H34      2.0543   2.4845   7.5874   H         1 RES1   0.0000
    75 H35     -0.4144  10.1608   9.8282   H         1 RES1   0.0000
    76 H36      3.1145   2.5359   5.9363   H         1 RES1   0.0000
    77 H37      1.1149   2.5188   6.0149   H         1 RES1   0.0000
    78 H38     -1.7166   8.8586   9.3565   H         1 RES1   0.0000
    79 O1      -1.4681  10.9541   2.0688   O.3       2 RES2   0.0000
    80 H39     -2.1261  11.4031   2.3362   H         2 RES2   0.0000
    81 C32     -0.5386  11.8143   1.4192   C.3       2 RES2   0.0000
    82 H40     -0.2420  11.4014   0.5818   H         2 RES2   0.0000
    83 H41      0.2355  11.9600   2.0030   H         2 RES2   0.0000
    84 H42     -0.9680  12.6728   1.2246   H         2 RES2   0.0000
@<TRIPOS>BOND
     1     1     2    1
     2     2    11   ar
     3     3     1    1
     4     4     1    1
     5     5     1    1
     6     6     1    1
     7     7     1    1
     8     8     6    1
     9     9     8    1
    10    10     8    1
    11    11    21    1
    12    12    13    1
    13    14    37   ar
    14    15    16    1
    15    17    12   ar
    16    18    17    1
    17    19     3   ar
    18    20    19    1
    19    21     4    1
    20    22    21    1
    21    23    21    1
    22    24    15   ar
    23    25    26    1
    24    27    12   ar
    25    28    27    1
    26    29    30    1
    27    31     6    1
    28    32    31    1
    29    33    31    1
    30    34     5    3
    31    35    25   ar
    32    36    35    1
    33    37    38    1
    34    39    29   ar
    35    40    39    1
    36    41    14   ar
    37    42    41    1
    38    43    15   ar
    39    44    43    1
    40    45     6    1
    41    46    45    1
    42    47    45    1
    43    48    37   ar
    44    49    48    1
    45    50     4    1
    46    51    50    1
    47    52     7    3
    48    53     3   ar
    49    54    11   ar
    50    55    54    1
    51    56    19   ar
    52    57    56    1
    53    58     2   ar
    54    59    58    1
    55    60     4    1
    56    61    60    1
    57    62    60    1
    58    63    50    1
    59    64    63    1
    60    65    63    1
    61    66    63    1
    62    67    41   ar
    63    68    67    1
    64    69    48   ar
    65    70    69    1
    66    71    52    1
    67    72    34    1
    68    73    71    1
    69    74    72    1
    70    75    71    1
    71    76    72    1
    72    77    72    1
    73    78    71    1
    74     8    53    1
    75    14    45    1
    76    17    43   ar
    77    24    27   ar
    78    24    60    1
    79    25    54   ar
    80    29    53   ar
    81    31    50    1
    82    35    58   ar
    83    39    56   ar
    84    67    69   ar
    85    79    80    1
    86    81    79    1
    87    82    81    1
    88    83    81    1
    89    84    81    1
@<TRIPOS>SUBSTRUCTURE
     1 RES1        1 GROUP             0 ****  ****    0  
     2 RES2       79 GROUP             0 ****  ****    0  
@<TRIPOS>CRYSIN
    9.4661   17.1346   10.1788   90.0000  105.0810   90.0000     4     1
