@<TRIPOS>MOLECULE
ROFGEC
    84    89     2     0     0
SMALL
USER_CHARGES
****
Generated from the CSD

@<TRIPOS>ATOM
     1 Fe1      3.9470   9.6764   2.5808   Fe        1 RES1   2.0000
     2 N1       4.6814   9.0386   4.4325   N.ar      1 RES1   0.0000
     3 N2       2.1421   9.8027   3.8031   N.3       1 RES1   0.0000
     4 N3       3.0659   7.7932   1.9670   N.3       1 RES1   0.0000
     5 N4       3.0699  10.1950   0.7466   N.ar      1 RES1   0.0000
     6 N5       4.4196  11.5981   2.9589   N.1       1 RES1   0.0000
     7 N6       5.6790   9.1671   1.6745   N.1       1 RES1   0.0000
     8 C1       5.8076   8.3688   4.6718   C.ar      1 RES1   0.0000
     9 H1       6.3942   8.1940   3.9439   H         1 RES1   0.0000
    10 C2       6.1656   7.9148   5.9326   C.ar      1 RES1   0.0000
    11 H2       6.9856   7.4540   6.0685   H         1 RES1   0.0000
    12 C3       5.3117   8.1444   6.9737   C.ar      1 RES1   0.0000
    13 H3       5.5275   7.8377   7.8464   H         1 RES1   0.0000
    14 C4       4.1213   8.8348   6.7442   C.ar      1 RES1   0.0000
    15 H4       3.5085   8.9890   7.4534   H         1 RES1   0.0000
    16 C5       3.8462   9.2888   5.4638   C.ar      1 RES1   0.0000
    17 C6       2.6503  10.1282   5.1564   C.3       1 RES1   0.0000
    18 H5       1.9425   9.9603   5.8282   H         1 RES1   0.0000
    19 H6       2.8963  11.0876   5.1988   H         1 RES1   0.0000
    20 C7       1.5322   8.4322   3.8040   C.3       1 RES1   0.0000
    21 H7       2.0994   7.8651   4.4029   H         1 RES1   0.0000
    22 C8       1.6619   7.8566   2.4093   C.3       1 RES1   0.0000
    23 H8       1.2756   6.9452   2.3955   H         1 RES1   0.0000
    24 H9       1.1457   8.4168   1.7759   H         1 RES1   0.0000
    25 C9       0.1064   8.3174   4.3162   C.3       1 RES1   0.0000
    26 H10      0.0270   8.7902   5.1712   H         1 RES1   0.0000
    27 H11     -0.1203   7.3734   4.4443   H         1 RES1   0.0000
    28 H12     -0.5081   8.7166   3.6652   H         1 RES1   0.0000
    29 C10      3.1442   7.7829   0.4856   C.3       1 RES1   0.0000
    30 H13      2.5141   7.1096   0.1231   H         1 RES1   0.0000
    31 H14      4.0588   7.5328   0.2009   H         1 RES1   0.0000
    32 C11      2.7965   9.1517  -0.0601   C.ar      1 RES1   0.0000
    33 C12      2.2675   9.2990  -1.3258   C.ar      1 RES1   0.0000
    34 H15      2.0794   8.5418  -1.8666   H         1 RES1   0.0000
    35 C13      2.0137  10.5925  -1.7917   C.ar      1 RES1   0.0000
    36 H16      1.6601  10.7295  -2.6624   H         1 RES1   0.0000
    37 C14      2.2834  11.6666  -0.9712   C.ar      1 RES1   0.0000
    38 H17      2.1125  12.5540  -1.2637   H         1 RES1   0.0000
    39 C15      2.8037  11.4268   0.2778   C.ar      1 RES1   0.0000
    40 H18      2.9850  12.1720   0.8402   H         1 RES1   0.0000
    41 C16      1.2498  10.9008   3.2515   C.3       1 RES1   0.0000
    42 H19      1.8379  11.5861   2.8476   H         1 RES1   0.0000
    43 H20      0.7156  10.5085   2.5167   H         1 RES1   0.0000
    44 C17      0.2873  11.6169   4.1793   C.ar      1 RES1   0.0000
    45 C18     -1.0801  11.3839   4.1251   C.ar      1 RES1   0.0000
    46 H21     -1.4145  10.7107   3.5440   H         1 RES1   0.0000
    47 C19     -1.9664  12.1086   4.9003   C.ar      1 RES1   0.0000
    48 H22     -2.8962  11.9236   4.8521   H         1 RES1   0.0000
    49 C20     -1.5025  13.1074   5.7484   C.ar      1 RES1   0.0000
    50 H23     -2.1065  13.5922   6.2990   H         1 RES1   0.0000
    51 C21     -0.1393  13.3849   5.7799   C.ar      1 RES1   0.0000
    52 H24      0.1914  14.0736   6.3463   H         1 RES1   0.0000
    53 C22      0.7384  12.6620   4.9870   C.ar      1 RES1   0.0000
    54 H25      1.6626  12.8795   4.9929   H         1 RES1   0.0000
    55 C23      3.7845   6.5785   2.5098   C.3       1 RES1   0.0000
    56 H26      3.7092   6.5820   3.4967   H         1 RES1   0.0000
    57 H27      4.7447   6.6522   2.2842   H         1 RES1   0.0000
    58 C24      3.2691   5.2508   1.9926   C.ar      1 RES1   0.0000
    59 C25      3.7611   4.7163   0.8057   C.ar      1 RES1   0.0000
    60 H28      4.4528   5.1686   0.3369   H         1 RES1   0.0000
    61 C26      3.2476   3.5308   0.3024   C.ar      1 RES1   0.0000
    62 H29      3.5873   3.1745  -0.5102   H         1 RES1   0.0000
    63 C27      2.2463   2.8695   0.9781   C.ar      1 RES1   0.0000
    64 H30      1.8770   2.0712   0.6176   H         1 RES1   0.0000
    65 C28      1.7804   3.3646   2.1739   C.ar      1 RES1   0.0000
    66 H31      1.1080   2.8935   2.6516   H         1 RES1   0.0000
    67 C29      2.2936   4.5553   2.6851   C.ar      1 RES1   0.0000
    68 H32      1.9714   4.8911   3.5135   H         1 RES1   0.0000
    69 C30      4.5672  12.7134   3.1027   C.1       1 RES1   0.0000
    70 C31      6.5379   8.5315   1.2913   C.1       1 RES1   0.0000
    71 B1       4.7262  14.2843   3.3096   B         1 RES1  -1.0000
    72 B2       7.6919   7.5328   0.8077   B         1 RES1  -1.0000
    73 H33      5.7580  14.5105   3.8809   H         1 RES1   0.0000
    74 H34      8.5378   8.2403   0.4235   H         1 RES1   0.0000
    75 H35      7.9201   6.8869   1.6942   H         1 RES1   0.0000
    76 H36      7.1873   6.9726  -0.0788   H         1 RES1   0.0000
    77 H37      4.7256  14.7503   2.2359   H         1 RES1   0.0000
    78 H38      3.8799  14.7332   3.9301   H         1 RES1   0.0000
    79 O1       8.2650   6.1520   7.7805   O.3       2 RES2   0.0000
    80 H39      8.8750   5.6928   7.4288   H         2 RES2   0.0000
    81 C32      7.3353   5.2817   8.4503   C.3       2 RES2   0.0000
    82 H40      6.6106   5.0418   7.8356   H         2 RES2   0.0000
    83 H41      6.9622   5.7408   9.2323   H         2 RES2   0.0000
    84 H42      7.7995   4.4679   8.7398   H         2 RES2   0.0000
@<TRIPOS>BOND
     1     1     2    1
     2     2     8   ar
     3     3     1    1
     4     4     1    1
     5     5     1    1
     6     6     1    1
     7     7     1    1
     8     8     9    1
     9    10     8   ar
    10    11    10    1
    11    12    10   ar
    12    13    12    1
    13    14    12   ar
    14    15    14    1
    15    16     2   ar
    16    17     3    1
    17    18    17    1
    18    19    17    1
    19    20     3    1
    20    21    20    1
    21    22     4    1
    22    23    22    1
    23    24    22    1
    24    25    20    1
    25    26    25    1
    26    27    25    1
    27    28    25    1
    28    29     4    1
    29    30    29    1
    30    31    29    1
    31    32     5   ar
    32    33    32   ar
    33    34    33    1
    34    35    33   ar
    35    36    35    1
    36    37    35   ar
    37    38    37    1
    38    39     5   ar
    39    40    39    1
    40    41     3    1
    41    42    41    1
    42    43    41    1
    43    44    41    1
    44    45    44   ar
    45    46    45    1
    46    47    45   ar
    47    48    47    1
    48    49    47   ar
    49    50    49    1
    50    51    49   ar
    51    52    51    1
    52    53    44   ar
    53    54    53    1
    54    55     4    1
    55    56    55    1
    56    57    55    1
    57    58    55    1
    58    59    58   ar
    59    60    59    1
    60    61    59   ar
    61    62    61    1
    62    63    61   ar
    63    64    63    1
    64    65    63   ar
    65    66    65    1
    66    67    58   ar
    67    68    67    1
    68    69     6    3
    69    70     7    3
    70    71    69    1
    71    72    70    1
    72    73    71    1
    73    74    72    1
    74    75    72    1
    75    76    72    1
    76    77    71    1
    77    78    71    1
    78    14    16   ar
    79    16    17    1
    80    20    22    1
    81    29    32    1
    82    37    39   ar
    83    51    53   ar
    84    65    67   ar
    85    79    80    1
    86    81    79    1
    87    82    81    1
    88    83    81    1
    89    84    81    1
@<TRIPOS>SUBSTRUCTURE
     1 RES1        1 GROUP             0 ****  ****    0  
     2 RES2       79 GROUP             0 ****  ****    0  
@<TRIPOS>CRYSIN
    9.4663   17.1316   10.2029   90.0000  105.1150   90.0000     4     1
