@<TRIPOS>MOLECULE
ROFGUS01
    84    89     2     0     0
SMALL
USER_CHARGES
****
Generated from the CSD

@<TRIPOS>ATOM
     1 B1       3.3587   2.8646   8.2066   B         1 RES1  -1.0000
     2 H1       3.4282   2.4271   7.2706   H         1 RES1   0.0000
     3 H2       4.4560   2.6493   8.7914   H         1 RES1   0.0000
     4 H3       2.4269   2.4271   8.7227   H         1 RES1   0.0000
     5 B2       6.3512   9.5151   5.7242   B         1 RES1  -1.0000
     6 H4       6.6580  10.2381   6.5837   H         1 RES1   0.0000
     7 H5       5.9994  10.2723   4.9255   H         1 RES1   0.0000
     8 H6       7.1874   8.8195   5.2984   H         1 RES1   0.0000
     9 C1       4.4588   8.7391   9.5518   C.ar      1 RES1   0.0000
    10 H7       5.0416   8.9186   8.8238   H         1 RES1   0.0000
    11 C2       4.8220   9.1801  10.8146   C.ar      1 RES1   0.0000
    12 H8       5.6441   9.6365  10.9500   H         1 RES1   0.0000
    13 C3       3.9726   8.9460  11.8644   C.ar      1 RES1   0.0000
    14 H9       4.1932   9.2485  12.7377   H         1 RES1   0.0000
    15 C4       2.7850   8.2589  11.6368   C.ar      1 RES1   0.0000
    16 H10      2.1792   8.0999  12.3521   H         1 RES1   0.0000
    17 C5       2.4897   7.8042  10.3544   C.ar      1 RES1   0.0000
    18 C6       1.3036   6.9667  10.0443   C.3       1 RES1   0.0000
    19 H11      0.5948   7.1308  10.7165   H         1 RES1   0.0000
    20 H12      1.5508   6.0095  10.0836   H         1 RES1   0.0000
    21 C7       0.1895   8.6725   8.7050   C.3       1 RES1   0.0000
    22 H13      0.7546   9.2348   9.3085   H         1 RES1   0.0000
    23 C8       0.3120   9.2519   7.3019   C.3       1 RES1   0.0000
    24 H14     -0.2041   8.6947   6.6681   H         1 RES1   0.0000
    25 H15     -0.0699  10.1663   7.2872   H         1 RES1   0.0000
    26 C9      -1.2485   8.7767   9.2103   C.3       1 RES1   0.0000
    27 H16     -1.8580   8.4007   8.5402   H         1 RES1   0.0000
    28 H17     -1.4736   9.7185   9.3654   H         1 RES1   0.0000
    29 H18     -1.3378   8.2777  10.0483   H         1 RES1   0.0000
    30 C10      1.8048   9.3186   5.3808   C.3       1 RES1   0.0000
    31 H19      2.7143   9.5766   5.0864   H         1 RES1   0.0000
    32 H20      1.1638   9.9851   5.0256   H         1 RES1   0.0000
    33 C11      1.4649   7.9512   4.8490   C.ar      1 RES1   0.0000
    34 C12      0.9296   7.7905   3.5813   C.ar      1 RES1   0.0000
    35 H21      0.7326   8.5460   3.0397   H         1 RES1   0.0000
    36 C13      0.6878   6.5086   3.1172   C.ar      1 RES1   0.0000
    37 H22      0.3464   6.3685   2.2420   H         1 RES1   0.0000
    38 C14      0.9504   5.4387   3.9443   C.ar      1 RES1   0.0000
    39 H23      0.7718   4.5516   3.6559   H         1 RES1   0.0000
    40 C15      1.4817   5.6763   5.2091   C.ar      1 RES1   0.0000
    41 H24      1.6695   4.9362   5.7742   H         1 RES1   0.0000
    42 C16     -0.0931   6.2027   8.1369   C.3       1 RES1   0.0000
    43 H25      0.4960   5.5156   7.7376   H         1 RES1   0.0000
    44 H26     -0.6255   6.5924   7.3991   H         1 RES1   0.0000
    45 C17     -1.0610   5.4882   9.0681   C.ar      1 RES1   0.0000
    46 C18     -2.4322   5.7224   9.0102   C.ar      1 RES1   0.0000
    47 H27     -2.7676   6.3958   8.4303   H         1 RES1   0.0000
    48 C19     -3.3153   4.9857   9.7863   C.ar      1 RES1   0.0000
    49 H28     -4.2466   5.1652   9.7421   H         1 RES1   0.0000
    50 C20     -2.8420   3.9927  10.6262   C.ar      1 RES1   0.0000
    51 H29     -3.4414   3.5056  11.1786   H         1 RES1   0.0000
    52 C21     -1.4830   3.7141  10.6527   C.ar      1 RES1   0.0000
    53 H30     -1.1527   3.0219  11.2129   H         1 RES1   0.0000
    54 C22     -0.6082   4.4439   9.8648   C.ar      1 RES1   0.0000
    55 H31      0.3167   4.2286   9.8697   H         1 RES1   0.0000
    56 C23      2.4472  10.5184   7.4128   C.3       1 RES1   0.0000
    57 H32      3.4099  10.4466   7.1950   H         1 RES1   0.0000
    58 H33      2.3641  10.5167   8.3989   H         1 RES1   0.0000
    59 C24      1.9342  11.8448   6.8899   C.ar      1 RES1   0.0000
    60 C25      2.4277  12.3849   5.7085   C.ar      1 RES1   0.0000
    61 H34      3.1224  11.9319   5.2454   H         1 RES1   0.0000
    62 C26      1.9300  13.5659   5.1924   C.ar      1 RES1   0.0000
    63 H35      2.2847  13.9197   4.3859   H         1 RES1   0.0000
    64 C27      0.9148  14.2291   5.8547   C.ar      1 RES1   0.0000
    65 H36      0.5502  15.0273   5.4936   H         1 RES1   0.0000
    66 C28      0.4342  13.7232   7.0439   C.ar      1 RES1   0.0000
    67 H37     -0.2546  14.1847   7.5100   H         1 RES1   0.0000
    68 C29      0.9474  12.5489   7.5629   C.ar      1 RES1   0.0000
    69 H38      0.6197  12.2191   8.3920   H         1 RES1   0.0000
    70 C30      3.2093   4.4080   8.0064   C.1       1 RES1   0.0000
    71 C31      5.1858   8.5272   6.2030   C.1       1 RES1   0.0000
    72 Fe1      2.5847   7.4413   7.4830   Fe        1 RES1   2.0000
    73 N1       3.3150   8.0657   9.3094   N.ar      1 RES1   0.0000
    74 N2       0.7933   7.3000   8.6844   N.3       1 RES1   0.0000
    75 N3       1.7414   9.3049   6.8702   N.3       1 RES1   0.0000
    76 N4       1.7341   6.9103   5.6585   N.ar      1 RES1   0.0000
    77 N5       3.0618   5.5429   7.8651   N.1       1 RES1   0.0000
    78 N6       4.3081   7.9324   6.5827   N.1       1 RES1   0.0000
    79 C32     -0.8020  11.7849   3.5028   C.3       2 RES2   0.0000
    80 H39     -1.5347  12.0088   2.8915   H         2 RES2   0.0000
    81 H40     -0.3444  12.6053   3.7795   H         2 RES2   0.0000
    82 H41     -1.1636  11.3303   4.2927   H         2 RES2   0.0000
    83 O1       0.1408  10.9081   2.8278   O.3       2 RES2   0.0000
    84 H42      0.7846  11.3611   2.5344   H         2 RES2   0.0000
@<TRIPOS>BOND
     1     1     2    1
     2     3     1    1
     3     4     1    1
     4     5     6    1
     5     7     5    1
     6     8     5    1
     7     9    10    1
     8    11     9   ar
     9    12    11    1
    10    13    11   ar
    11    14    13    1
    12    15    13   ar
    13    16    15    1
    14    17    15   ar
    15    18    17    1
    16    19    18    1
    17    20    18    1
    18    21    22    1
    19    23    21    1
    20    24    23    1
    21    25    23    1
    22    26    21    1
    23    27    26    1
    24    28    26    1
    25    29    26    1
    26    30    31    1
    27    32    30    1
    28    33    30    1
    29    34    33   ar
    30    35    34    1
    31    36    34   ar
    32    37    36    1
    33    38    36   ar
    34    39    38    1
    35    40    38   ar
    36    41    40    1
    37    42    43    1
    38    44    42    1
    39    45    42    1
    40    46    45   ar
    41    47    46    1
    42    48    46   ar
    43    49    48    1
    44    50    48   ar
    45    51    50    1
    46    52    50   ar
    47    53    52    1
    48    54    45   ar
    49    55    54    1
    50    56    57    1
    51    58    56    1
    52    59    56    1
    53    60    59   ar
    54    61    60    1
    55    62    60   ar
    56    63    62    1
    57    64    62   ar
    58    65    64    1
    59    66    64   ar
    60    67    66    1
    61    68    59   ar
    62    69    68    1
    63    70     1    1
    64    71     5    1
    65    72    73    1
    66    73     9   ar
    67    74    18    1
    68    75    23    1
    69    76    33   ar
    70    77    70    3
    71    78    71    3
    72    17    73   ar
    73    21    74    1
    74    30    75    1
    75    40    76   ar
    76    42    74    1
    77    52    54   ar
    78    56    75    1
    79    66    68   ar
    80    72    74    1
    81    72    75    1
    82    72    76    1
    83    72    77    1
    84    72    78    1
    85    79    80    1
    86    81    79    1
    87    82    79    1
    88    83    79    1
    89    84    83    1
@<TRIPOS>SUBSTRUCTURE
     1 RES1        1 GROUP             0 ****  ****    0  
     2 RES2       79 GROUP             0 ****  ****    0  
@<TRIPOS>CRYSIN
    9.4804   17.0920   10.1676   90.0000  105.2020   90.0000     4     1
