@<TRIPOS>MOLECULE
ROFGEC03
    84    89     2     0     0
SMALL
USER_CHARGES
****
Generated from the CSD

@<TRIPOS>ATOM
     1 B1       4.7033  14.2451   3.3093   B         1 RES1  -1.0000
     2 H1       4.7314  14.6915   2.3498   H         1 RES1   0.0000
     3 H2       5.7106  14.4349   3.9032   H         1 RES1   0.0000
     4 H3       3.8135  14.5889   3.9130   H         1 RES1   0.0000
     5 B2       7.6647   7.5869   0.8288   B         1 RES1  -1.0000
     6 H4       7.2937   6.8925   0.0688   H         1 RES1   0.0000
     7 H5       8.0320   6.9096   1.6026   H         1 RES1   0.0000
     8 H6       8.4343   8.1923   0.4719   H         1 RES1   0.0000
     9 C1       3.8114   9.2972   5.4635   C.ar      1 RES1   0.0000
    10 C2       5.7718   8.3719   4.6533   C.ar      1 RES1   0.0000
    11 H7       6.3522   8.1923   3.9228   H         1 RES1   0.0000
    12 C3       6.1453   7.9290   5.9265   C.ar      1 RES1   0.0000
    13 H8       6.9707   7.4791   6.0642   H         1 RES1   0.0000
    14 C4       5.2848   8.1598   6.9726   C.ar      1 RES1   0.0000
    15 H9       5.4965   7.8503   7.8447   H         1 RES1   0.0000
    16 C5       4.1079   8.8508   6.7445   C.ar      1 RES1   0.0000
    17 H10      3.5059   9.0184   7.4603   H         1 RES1   0.0000
    18 C6       2.6316  10.1369   5.1449   C.3       1 RES1   0.0000
    19 H11      2.8838  11.0930   5.1823   H         1 RES1   0.0000
    20 H12      1.9207   9.9796   5.8154   H         1 RES1   0.0000
    21 C7       1.5181   8.4284   3.8029   C.3       1 RES1   0.0000
    22 H13      2.0832   7.8657   4.4066   H         1 RES1   0.0000
    23 C8       1.6519   7.8537   2.3989   C.3       1 RES1   0.0000
    24 H14      1.2670   6.9421   2.3793   H         1 RES1   0.0000
    25 H15      1.1396   8.4164   1.7648   H         1 RES1   0.0000
    26 C9       0.0873   8.3343   4.3132   C.3       1 RES1   0.0000
    27 H16     -0.5245   8.7071   3.6446   H         1 RES1   0.0000
    28 H17      0.0040   8.8388   5.1488   H         1 RES1   0.0000
    29 H18     -0.1408   7.3936   4.4764   H         1 RES1   0.0000
    30 C10      3.1365   7.7836   0.4759   C.3       1 RES1   0.0000
    31 H19      2.4962   7.1200   0.1170   H         1 RES1   0.0000
    32 H20      4.0473   7.5270   0.1848   H         1 RES1   0.0000
    33 C11      2.7954   9.1638  -0.0531   C.ar      1 RES1   0.0000
    34 C12      2.2586   9.3092  -1.3214   C.ar      1 RES1   0.0000
    35 H21      2.0574   8.5498  -1.8562   H         1 RES1   0.0000
    36 C13      2.0215  10.6056  -1.7903   C.ar      1 RES1   0.0000
    37 H22      1.6842  10.7475  -2.6673   H         1 RES1   0.0000
    38 C14      2.2866  11.6745  -0.9576   C.ar      1 RES1   0.0000
    39 H23      2.1187  12.5639  -1.2457   H         1 RES1   0.0000
    40 C15      2.8018  11.4282   0.3028   C.ar      1 RES1   0.0000
    41 H24      2.9754  12.1688   0.8731   H         1 RES1   0.0000
    42 C16      1.2412  10.9032   3.2366   C.3       1 RES1   0.0000
    43 H25      0.7153  10.5149   2.4923   H         1 RES1   0.0000
    44 H26      1.8338  11.5924   2.8443   H         1 RES1   0.0000
    45 C17      0.2593  11.6198   4.1686   C.ar      1 RES1   0.0000
    46 C18     -1.0977  11.3906   4.1185   C.ar      1 RES1   0.0000
    47 H27     -1.4332  10.7150   3.5414   H         1 RES1   0.0000
    48 C19     -1.9844  12.1192   4.8883   C.ar      1 RES1   0.0000
    49 H28     -2.9166  11.9413   4.8401   H         1 RES1   0.0000
    50 C20     -1.5071  13.1112   5.7279   C.ar      1 RES1   0.0000
    51 H29     -2.1065  13.5952   6.2844   H         1 RES1   0.0000
    52 C21     -0.1622  13.3916   5.7525   C.ar      1 RES1   0.0000
    53 H30      0.1625  14.0895   6.3070   H         1 RES1   0.0000
    54 C22      0.7175  12.6682   4.9807   C.ar      1 RES1   0.0000
    55 H31      1.6431  12.8820   4.9974   H         1 RES1   0.0000
    56 C23      3.7648   6.5761   2.5081   C.3       1 RES1   0.0000
    57 H32      4.7290   6.6514   2.2957   H         1 RES1   0.0000
    58 H33      3.6781   6.5744   3.4952   H         1 RES1   0.0000
    59 C24      3.2649   5.2575   1.9850   C.ar      1 RES1   0.0000
    60 C25      3.7630   4.7102   0.8052   C.ar      1 RES1   0.0000
    61 H34      4.4680   5.1548   0.3480   H         1 RES1   0.0000
    62 C26      3.2590   3.5369   0.2832   C.ar      1 RES1   0.0000
    63 H35      3.6036   3.1897  -0.5309   H         1 RES1   0.0000
    64 C27      2.2566   2.8733   0.9458   C.ar      1 RES1   0.0000
    65 H36      1.9005   2.0678   0.5870   H         1 RES1   0.0000
    66 C28      1.7626   3.3796   2.1453   C.ar      1 RES1   0.0000
    67 H37      1.0747   2.9178   2.6093   H         1 RES1   0.0000
    68 C29      2.2709   4.5511   2.6585   C.ar      1 RES1   0.0000
    69 H38      1.9391   4.8812   3.4843   H         1 RES1   0.0000
    70 C30      4.5473  12.7007   3.1098   C.1       1 RES1   0.0000
    71 C31      6.5095   8.5789   1.3007   C.1       1 RES1   0.0000
    72 Fe1      3.9132   9.6642   2.5834   Fe        1 RES1   2.0000
    73 N1       4.6507   9.0304   4.4184   N.ar      1 RES1   0.0000
    74 N2       2.1219   9.8069   3.7911   N.3       1 RES1   0.0000
    75 N3       3.0661   7.7990   1.9742   N.3       1 RES1   0.0000
    76 N4       3.0673  10.1951   0.7580   N.ar      1 RES1   0.0000
    77 N5       4.3945  11.5616   2.9613   N.1       1 RES1   0.0000
    78 N6       5.6273   9.1723   1.6783   N.1       1 RES1   0.0000
    79 C32      0.5307   5.3139  -1.4040   C.3       2 RES2   0.0000
    80 H39     -0.0913   4.9376  -2.0597   H         2 RES2   0.0000
    81 H40      0.0300   5.8253  -0.7334   H         2 RES2   0.0000
    82 H41      1.0196   4.5887  -0.9625   H         2 RES2   0.0000
    83 O1       1.4702   6.1896  -2.0755   O.3       2 RES2   0.0000
    84 H42      2.1038   5.7346  -2.3852   H         2 RES2   0.0000
@<TRIPOS>BOND
     1     1     2    1
     2     3     1    1
     3     4     1    1
     4     5     6    1
     5     7     5    1
     6     8     5    1
     7     9    16   ar
     8    10    11    1
     9    12    10   ar
    10    13    12    1
    11    14    12   ar
    12    15    14    1
    13    16    14   ar
    14    17    16    1
    15    18     9    1
    16    19    18    1
    17    20    18    1
    18    21    22    1
    19    23    21    1
    20    24    23    1
    21    25    23    1
    22    26    21    1
    23    27    26    1
    24    28    26    1
    25    29    26    1
    26    30    31    1
    27    32    30    1
    28    33    30    1
    29    34    33   ar
    30    35    34    1
    31    36    34   ar
    32    37    36    1
    33    38    36   ar
    34    39    38    1
    35    40    38   ar
    36    41    40    1
    37    42    43    1
    38    44    42    1
    39    45    42    1
    40    46    45   ar
    41    47    46    1
    42    48    46   ar
    43    49    48    1
    44    50    48   ar
    45    51    50    1
    46    52    50   ar
    47    53    52    1
    48    54    45   ar
    49    55    54    1
    50    56    57    1
    51    58    56    1
    52    59    56    1
    53    60    59   ar
    54    61    60    1
    55    62    60   ar
    56    63    62    1
    57    64    62   ar
    58    65    64    1
    59    66    64   ar
    60    67    66    1
    61    68    59   ar
    62    69    68    1
    63    70     1    1
    64    71     5    1
    65    72    73    1
    66    73     9   ar
    67    74    18    1
    68    75    23    1
    69    76    33   ar
    70    77    70    3
    71    78    71    3
    72    10    73   ar
    73    21    74    1
    74    30    75    1
    75    40    76   ar
    76    42    74    1
    77    52    54   ar
    78    56    75    1
    79    66    68   ar
    80    72    74    1
    81    72    75    1
    82    72    76    1
    83    72    77    1
    84    72    78    1
    85    79    80    1
    86    81    79    1
    87    82    79    1
    88    83    79    1
    89    84    83    1
@<TRIPOS>SUBSTRUCTURE
     1 RES1        1 GROUP             0 ****  ****    0  
     2 RES2       79 GROUP             0 ****  ****    0  
@<TRIPOS>CRYSIN
    9.4720   17.1030   10.1890   90.0000  105.2190   90.0000     4     1
