@<TRIPOS>MOLECULE
ROFGUS
    84    89     2     0     0
SMALL
USER_CHARGES
****
Generated from the CSD

@<TRIPOS>ATOM
     1 Fe1      2.8091   7.5050   7.3616   Fe        1 RES1   2.0000
     2 N1       2.1071   8.1600   5.4231   N.ar      1 RES1   0.0000
     3 N2       3.7869   7.0257   9.2602   N.ar      1 RES1   0.0000
     4 N3       4.7003   7.4303   6.0711   N.3       1 RES1   0.0000
     5 N4       2.3773   5.4763   6.9784   N.1       1 RES1   0.0000
     6 N5       3.7514   9.4396   7.9692   N.3       1 RES1   0.0000
     7 N6       0.9866   8.0701   8.2763   N.1       1 RES1   0.0000
     8 C1       3.7126   9.4431   9.4629   C.3       1 RES1   0.0000
     9 H1       2.8045   9.6955   9.7670   H         1 RES1   0.0000
    10 H2       4.3484  10.1192   9.8058   H         1 RES1   0.0000
    11 C2       2.9482   7.9421   4.3916   C.ar      1 RES1   0.0000
    12 C3       7.0023   3.8440   4.1292   C.ar      1 RES1   0.0000
    13 H3       6.6783   3.1592   3.5558   H         1 RES1   0.0000
    14 C4       3.5814  11.9815   7.9195   C.ar      1 RES1   0.0000
    15 C5       7.9118   5.8602   5.7859   C.ar      1 RES1   0.0000
    16 H4       8.2360   6.5467   6.3583   H         1 RES1   0.0000
    17 C6       8.3470   4.1206   4.1948   C.ar      1 RES1   0.0000
    18 H5       8.9588   3.6261   3.6601   H         1 RES1   0.0000
    19 C7       4.0718   5.7979   9.7759   C.ar      1 RES1   0.0000
    20 H6       3.8643   5.0354   9.2492   H         1 RES1   0.0000
    21 C8       4.1764   7.1017   4.7324   C.3       1 RES1   0.0000
    22 H7       3.9364   6.1420   4.7016   H         1 RES1   0.0000
    23 H8       4.8813   7.2626   4.0567   H         1 RES1   0.0000
    24 C9       6.5445   5.6095   5.7044   C.ar      1 RES1   0.0000
    25 C10      1.5287   9.0972   2.8820   C.ar      1 RES1   0.0000
    26 H9       1.3304   9.4206   2.0104   H         1 RES1   0.0000
    27 C11      6.1220   4.5789   4.9143   C.ar      1 RES1   0.0000
    28 H10      5.1985   4.3575   4.9014   H         1 RES1   0.0000
    29 C12      4.6202   7.9663  11.2766   C.ar      1 RES1   0.0000
    30 H11      4.8044   8.7358  11.8013   H         1 RES1   0.0000
    31 C13      5.1804   9.3497   7.5131   C.3       1 RES1   0.0000
    32 H12      5.6863   8.7600   8.1272   H         1 RES1   0.0000
    33 H13      5.5927  10.2488   7.5419   H         1 RES1   0.0000
    34 C14      2.2589   4.3645   6.8502   C.1       1 RES1   0.0000
    35 C15      0.6510   9.2874   3.9215   C.ar      1 RES1   0.0000
    36 H14     -0.1714   9.7387   3.7734   H         1 RES1   0.0000
    37 C16      4.5362  12.6818   7.2090   C.ar      1 RES1   0.0000
    38 H15      4.8500  12.3342   6.3821   H         1 RES1   0.0000
    39 C17      4.9055   6.6798  11.7695   C.ar      1 RES1   0.0000
    40 H16      5.2836   6.5657  12.6331   H         1 RES1   0.0000
    41 C18      3.1240  12.5469   9.1191   C.ar      1 RES1   0.0000
    42 H17      2.4462  12.1043   9.6150   H         1 RES1   0.0000
    43 C19      8.8064   5.1045   5.0256   C.ar      1 RES1   0.0000
    44 H18      9.7391   5.2740   5.0862   H         1 RES1   0.0000
    45 C20      3.0534  10.6604   7.4346   C.3       1 RES1   0.0000
    46 H19      3.1144  10.6466   6.4467   H         1 RES1   0.0000
    47 H20      2.0951  10.6016   7.6731   H         1 RES1   0.0000
    48 C21      5.0437  13.8749   7.6781   C.ar      1 RES1   0.0000
    49 H21      5.6939  14.3418   7.1672   H         1 RES1   0.0000
    50 C22      5.2671   8.8015   6.1079   C.3       1 RES1   0.0000
    51 H22      4.6933   9.3791   5.5265   H         1 RES1   0.0000
    52 C23      0.1680   8.7721   8.6241   C.1       1 RES1   0.0000
    53 C24      4.0703   8.0926  10.0244   C.ar      1 RES1   0.0000
    54 C25      2.7188   8.4159   3.1404   C.ar      1 RES1   0.0000
    55 H23      3.3587   8.2862   2.4507   H         1 RES1   0.0000
    56 C26      4.6255   5.5991  10.9784   C.ar      1 RES1   0.0000
    57 H24      4.8221   4.7189  11.2786   H         1 RES1   0.0000
    58 C27      0.9625   8.8309   5.1588   C.ar      1 RES1   0.0000
    59 H25      0.3514   8.9883   5.8693   H         1 RES1   0.0000
    60 C28      5.5897   6.3374   6.6505   C.3       1 RES1   0.0000
    61 H26      5.0024   5.6596   7.0689   H         1 RES1   0.0000
    62 H27      6.1310   6.7403   7.3749   H         1 RES1   0.0000
    63 C29      6.7050   8.9329   5.6040   C.3       1 RES1   0.0000
    64 H28      7.3175   8.5300   6.2549   H         1 RES1   0.0000
    65 H29      6.9266   9.8805   5.4897   H         1 RES1   0.0000
    66 H30      6.7928   8.4713   4.7444   H         1 RES1   0.0000
    67 C30      3.6423  13.7383   9.5901   C.ar      1 RES1   0.0000
    68 H31      3.3261  14.1049  10.4080   H         1 RES1   0.0000
    69 C31      4.6163  14.3920   8.8756   C.ar      1 RES1   0.0000
    70 H32      4.9924  15.1978   9.2075   H         1 RES1   0.0000
    71 B1      -0.9038   9.8494   9.0942   B         1 RES1  -1.0000
    72 B2       2.1135   2.8220   6.6336   B         1 RES1  -1.0000
    73 H33     -1.0172  10.5134   8.1193   H         1 RES1   0.0000
    74 H34      2.4178   2.2998   7.6621   H         1 RES1   0.0000
    75 H35     -0.3773  10.4270   9.9379   H         1 RES1   0.0000
    76 H36      2.8196   2.3517   5.8038   H         1 RES1   0.0000
    77 H37      1.0111   2.4381   6.3901   H         1 RES1   0.0000
    78 H38     -1.7713   9.2165   9.5106   H         1 RES1   0.0000
    79 O1       8.2562   2.5661   7.9454   O.3       2 RES2   0.0000
    80 H39      8.1623   2.6076   7.1116   H         2 RES2   0.0000
    81 C32      7.3406   3.4324   8.5665   C.3       2 RES2   0.0000
    82 H40      7.1681   3.1281   9.4788   H         2 RES2   0.0000
    83 H41      6.4982   3.4324   8.0577   H         2 RES2   0.0000
    84 H42      7.7077   4.3402   8.5824   H         2 RES2   0.0000
@<TRIPOS>BOND
     1     1     2    1
     2     2    11   ar
     3     3     1    1
     4     4     1    1
     5     5     1    1
     6     6     1    1
     7     7     1    1
     8     8     6    1
     9     9     8    1
    10    10     8    1
    11    11    21    1
    12    12    13    1
    13    14    37   ar
    14    15    16    1
    15    17    12   ar
    16    18    17    1
    17    19     3   ar
    18    20    19    1
    19    21     4    1
    20    22    21    1
    21    23    21    1
    22    24    15   ar
    23    25    26    1
    24    27    12   ar
    25    28    27    1
    26    29    30    1
    27    31     6    1
    28    32    31    1
    29    33    31    1
    30    34     5    3
    31    35    25   ar
    32    36    35    1
    33    37    38    1
    34    39    29   ar
    35    40    39    1
    36    41    14   ar
    37    42    41    1
    38    43    15   ar
    39    44    43    1
    40    45     6    1
    41    46    45    1
    42    47    45    1
    43    48    37   ar
    44    49    48    1
    45    50     4    1
    46    51    50    1
    47    52     7    3
    48    53     3   ar
    49    54    11   ar
    50    55    54    1
    51    56    19   ar
    52    57    56    1
    53    58     2   ar
    54    59    58    1
    55    60     4    1
    56    61    60    1
    57    62    60    1
    58    63    50    1
    59    64    63    1
    60    65    63    1
    61    66    63    1
    62    67    41   ar
    63    68    67    1
    64    69    48   ar
    65    70    69    1
    66    71    52    1
    67    72    34    1
    68    73    71    1
    69    74    72    1
    70    75    71    1
    71    76    72    1
    72    77    72    1
    73    78    71    1
    74     8    53    1
    75    14    45    1
    76    17    43   ar
    77    24    27   ar
    78    24    60    1
    79    25    54   ar
    80    29    53   ar
    81    31    50    1
    82    35    58   ar
    83    39    56   ar
    84    67    69   ar
    85    79    80    1
    86    81    79    1
    87    82    81    1
    88    83    81    1
    89    84    81    1
@<TRIPOS>SUBSTRUCTURE
     1 RES1        1 GROUP             0 ****  ****    0  
     2 RES2       79 GROUP             0 ****  ****    0  
@<TRIPOS>CRYSIN
    9.5467   17.2918   10.2875   90.0000  104.9790   90.0000     4     1
