@<TRIPOS>MOLECULE
ROFGEC01
    84    89     2     0     0
SMALL
USER_CHARGES
****
Generated from the CSD

@<TRIPOS>ATOM
     1 Fe1      4.0887   9.7806   2.5763   Fe        1 RES1   2.0000
     2 N1       4.8088   9.1165   4.5280   N.ar      1 RES1   0.0000
     3 N2       2.1996   9.8715   3.8668   N.3       1 RES1   0.0000
     4 N3       3.1095   7.8398   1.9588   N.3       1 RES1   0.0000
     5 N4       3.1184  10.2516   0.6792   N.ar      1 RES1   0.0000
     6 N5       4.5347  11.8099   2.9437   N.1       1 RES1   0.0000
     7 N6       5.8943   9.2064   1.6620   N.1       1 RES1   0.0000
     8 C1       5.9186   8.4428   4.7889   C.ar      1 RES1   0.0000
     9 H1       6.5180   8.2683   4.0739   H         1 RES1   0.0000
    10 C2       6.2455   7.9867   6.0387   C.ar      1 RES1   0.0000
    11 H2       7.0735   7.5496   6.2000   H         1 RES1   0.0000
    12 C3       5.3318   8.1819   7.0554   C.ar      1 RES1   0.0000
    13 H3       5.5071   7.8381   7.9238   H         1 RES1   0.0000
    14 C4       4.1815   8.8643   6.8134   C.ar      1 RES1   0.0000
    15 H4       3.5614   9.0129   7.5165   H         1 RES1   0.0000
    16 C5       3.9136   9.3446   5.5328   C.ar      1 RES1   0.0000
    17 C6       2.7244  10.1704   5.1942   C.3       1 RES1   0.0000
    18 H5       2.0161  10.0114   5.8664   H         1 RES1   0.0000
    19 H6       2.9721  11.1275   5.2361   H         1 RES1   0.0000
    20 C7       1.6125   8.4877   3.8329   C.3       1 RES1   0.0000
    21 H7       2.1877   7.9124   4.4155   H         1 RES1   0.0000
    22 C8       1.7256   7.9366   2.4149   C.3       1 RES1   0.0000
    23 H8       1.3099   7.0382   2.3830   H         1 RES1   0.0000
    24 H9       1.2214   8.5257   1.7995   H         1 RES1   0.0000
    25 C9       0.1909   8.3512   4.3438   C.3       1 RES1   0.0000
    26 H10      0.0987   8.8436   5.1873   H         1 RES1   0.0000
    27 H11     -0.0139   7.4062   4.4942   H         1 RES1   0.0000
    28 H12     -0.4306   8.7192   3.6816   H         1 RES1   0.0000
    29 C10      3.1868   7.8329   0.4710   C.3       1 RES1   0.0000
    30 H13      2.5638   7.1523   0.1125   H         1 RES1   0.0000
    31 H14      4.1032   7.5893   0.1902   H         1 RES1   0.0000
    32 C11      2.8296   9.1908  -0.0976   C.ar      1 RES1   0.0000
    33 C12      2.2408   9.3066  -1.3503   C.ar      1 RES1   0.0000
    34 H15      1.9969   8.5361  -1.8502   H         1 RES1   0.0000
    35 C13      2.0185  10.5936  -1.8522   C.ar      1 RES1   0.0000
    36 H16      1.6765  10.7198  -2.7296   H         1 RES1   0.0000
    37 C14      2.3083  11.6855  -1.0367   C.ar      1 RES1   0.0000
    38 H17      2.1232  12.5666  -1.3394   H         1 RES1   0.0000
    39 C15      2.8508  11.4920   0.1753   C.ar      1 RES1   0.0000
    40 H18      3.0565  12.2504   0.7070   H         1 RES1   0.0000
    41 C16      1.3270  10.9495   3.3032   C.3       1 RES1   0.0000
    42 H19      0.8043  10.5539   2.5613   H         1 RES1   0.0000
    43 H20      1.9193  11.6371   2.9058   H         1 RES1   0.0000
    44 C17      0.3351  11.6751   4.2343   C.ar      1 RES1   0.0000
    45 C18     -1.0230  11.4350   4.1466   C.ar      1 RES1   0.0000
    46 H21     -1.3423  10.7560   3.5651   H         1 RES1   0.0000
    47 C19     -1.9269  12.1761   4.8995   C.ar      1 RES1   0.0000
    48 H22     -2.8593  12.0085   4.8317   H         1 RES1   0.0000
    49 C20     -1.4529  13.1609   5.7479   C.ar      1 RES1   0.0000
    50 H23     -2.0655  13.6498   6.2847   H         1 RES1   0.0000
    51 C21     -0.1205  13.4390   5.8246   C.ar      1 RES1   0.0000
    52 H24      0.1936  14.1231   6.4042   H         1 RES1   0.0000
    53 C22      0.7851  12.7048   5.0369   C.ar      1 RES1   0.0000
    54 H25      1.7108  12.9173   5.0588   H         1 RES1   0.0000
    55 C23      3.8280   6.6271   2.4916   C.3       1 RES1   0.0000
    56 H26      3.7865   6.6478   3.4804   H         1 RES1   0.0000
    57 H27      4.7824   6.6893   2.2326   H         1 RES1   0.0000
    58 C24      3.2865   5.2968   2.0146   C.ar      1 RES1   0.0000
    59 C25      3.7563   4.7250   0.8295   C.ar      1 RES1   0.0000
    60 H28      4.4451   5.1552   0.3366   H         1 RES1   0.0000
    61 C26      3.2276   3.5450   0.3764   C.ar      1 RES1   0.0000
    62 H29      3.5389   3.1805  -0.4431   H         1 RES1   0.0000
    63 C27      2.2677   2.8868   1.0745   C.ar      1 RES1   0.0000
    64 H30      1.9187   2.0662   0.7489   H         1 RES1   0.0000
    65 C28      1.7970   3.4189   2.2665   C.ar      1 RES1   0.0000
    66 H31      1.1166   2.9767   2.7604   H         1 RES1   0.0000
    67 C29      2.3394   4.6058   2.7186   C.ar      1 RES1   0.0000
    68 H32      2.0431   4.9565   3.5501   H         1 RES1   0.0000
    69 C30      4.6567  12.9207   3.0691   C.1       1 RES1   0.0000
    70 C31      6.7059   8.4963   1.2946   C.1       1 RES1   0.0000
    71 B1       4.8038  14.4738   3.2753   B         1 RES1  -1.0000
    72 B2       7.8033   7.4442   0.8455   B         1 RES1  -1.0000
    73 H33      5.7825  14.7883   3.8638   H         1 RES1   0.0000
    74 H34      8.5888   8.1888   0.3585   H         1 RES1   0.0000
    75 H35      8.1885   6.8758   1.6332   H         1 RES1   0.0000
    76 H36      7.1729   6.9104   0.0100   H         1 RES1   0.0000
    77 H37      4.8433  15.0474   2.2406   H         1 RES1   0.0000
    78 H38      3.8880  14.9610   3.8738   H         1 RES1   0.0000
    79 O1       8.2364   6.0881   7.9537   O.3       2 RES2   0.0000
    80 H39      8.9000   5.6527   7.6858   H         2 RES2   0.0000
    81 C32      7.2902   5.1811   8.5940   C.3       2 RES2   0.0000
    82 H40      6.4670   5.1362   8.0562   H         2 RES2   0.0000
    83 H41      7.0723   5.5110   9.4892   H         2 RES2   0.0000
    84 H42      7.6837   4.2879   8.6587   H         2 RES2   0.0000
@<TRIPOS>BOND
     1     1     2    1
     2     2     8   ar
     3     3     1    1
     4     4     1    1
     5     5     1    1
     6     6     1    1
     7     7     1    1
     8     8     9    1
     9    10     8   ar
    10    11    10    1
    11    12    10   ar
    12    13    12    1
    13    14    12   ar
    14    15    14    1
    15    16     2   ar
    16    17     3    1
    17    18    17    1
    18    19    17    1
    19    20     3    1
    20    21    20    1
    21    22     4    1
    22    23    22    1
    23    24    22    1
    24    25    20    1
    25    26    25    1
    26    27    25    1
    27    28    25    1
    28    29     4    1
    29    30    29    1
    30    31    29    1
    31    32     5   ar
    32    33    32   ar
    33    34    33    1
    34    35    33   ar
    35    36    35    1
    36    37    35   ar
    37    38    37    1
    38    39     5   ar
    39    40    39    1
    40    41     3    1
    41    42    41    1
    42    43    41    1
    43    44    41    1
    44    45    44   ar
    45    46    45    1
    46    47    45   ar
    47    48    47    1
    48    49    47   ar
    49    50    49    1
    50    51    49   ar
    51    52    51    1
    52    53    44   ar
    53    54    53    1
    54    55     4    1
    55    56    55    1
    56    57    55    1
    57    58    55    1
    58    59    58   ar
    59    60    59    1
    60    61    59   ar
    61    62    61    1
    62    63    61   ar
    63    64    63    1
    64    65    63   ar
    65    66    65    1
    66    67    58   ar
    67    68    67    1
    68    69     6    3
    69    70     7    3
    70    71    69    1
    71    72    70    1
    72    73    71    1
    73    74    72    1
    74    75    72    1
    75    76    72    1
    76    77    71    1
    77    78    71    1
    78    14    16   ar
    79    16    17    1
    80    20    22    1
    81    29    32    1
    82    37    39   ar
    83    51    53   ar
    84    65    67   ar
    85    79    80    1
    86    81    79    1
    87    82    81    1
    88    83    81    1
    89    84    81    1
@<TRIPOS>SUBSTRUCTURE
     1 RES1        1 GROUP             0 ****  ****    0  
     2 RES2       79 GROUP             0 ****  ****    0  
@<TRIPOS>CRYSIN
    9.5547   17.2760   10.3124   90.0000  105.0590   90.0000     4     1
