@<TRIPOS>MOLECULE
ROFHAZ01
    78    84     1     0     0
SMALL
USER_CHARGES
****
Generated from the CSD

@<TRIPOS>ATOM
     1 B1       4.9648  14.2414   3.0568   B         1 RES1  -1.0000
     2 H1       6.0768  14.6278   2.8556   H         1 RES1   0.0000
     3 H2       4.4684  14.7465   2.1119   H         1 RES1   0.0000
     4 H3       4.6008  14.4414   4.1445   H         1 RES1   0.0000
     5 B2       7.8175   7.0698   0.7744   B         1 RES1  -1.0000
     6 H4       7.3956   6.3562  -0.0397   H         1 RES1   0.0000
     7 H5       8.1166   6.5935   1.7946   H         1 RES1   0.0000
     8 H6       8.8212   7.5597   0.4065   H         1 RES1   0.0000
     9 C1       5.9309   8.1936   4.7305   C.ar      1 RES1   0.0000
    10 H7       6.5616   8.0462   4.0345   H         1 RES1   0.0000
    11 C2       6.1972   7.6919   5.9759   C.ar      1 RES1   0.0000
    12 H8       6.9985   7.2105   6.1414   H         1 RES1   0.0000
    13 C3       5.2924   7.8936   6.9733   C.ar      1 RES1   0.0000
    14 H9       5.4567   7.5495   7.8439   H         1 RES1   0.0000
    15 C4       4.1375   8.6021   6.7116   C.ar      1 RES1   0.0000
    16 H10      3.4898   8.7360   7.3937   H         1 RES1   0.0000
    17 C5       3.9387   9.1106   5.4494   C.ar      1 RES1   0.0000
    18 C6       2.7604   9.9836   5.1053   C.3       1 RES1   0.0000
    19 H11      2.0419   9.8429   5.7716   H         1 RES1   0.0000
    20 H12      3.0340  10.9328   5.1440   H         1 RES1   0.0000
    21 C7       1.6211   8.3140   3.7192   C.3       1 RES1   0.0000
    22 H13      2.1852   7.7326   4.3052   H         1 RES1   0.0000
    23 C8       1.7264   7.7428   2.3231   C.3       1 RES1   0.0000
    24 H14      1.2867   6.8563   2.3033   H         1 RES1   0.0000
    25 H15      1.2419   8.3360   1.6945   H         1 RES1   0.0000
    26 C9       0.1998   8.2089   4.2486   C.3       1 RES1   0.0000
    27 H16      0.1260   8.7072   5.0894   H         1 RES1   0.0000
    28 H17     -0.0208   7.2665   4.4073   H         1 RES1   0.0000
    29 H18     -0.4231   8.5835   3.5913   H         1 RES1   0.0000
    30 C10      3.1880   7.5716   0.3887   C.3       1 RES1   0.0000
    31 H19      2.5339   6.9139   0.0446   H         1 RES1   0.0000
    32 H20      4.0914   7.2834   0.1031   H         1 RES1   0.0000
    33 C11      2.8866   8.9276  -0.1943   C.ar      1 RES1   0.0000
    34 C12      2.3718   9.0564  -1.4694   C.ar      1 RES1   0.0000
    35 H21      2.2001   8.2835  -1.9959   H         1 RES1   0.0000
    36 C13      2.1082  10.3056  -1.9701   C.ar      1 RES1   0.0000
    37 H22      1.7456  10.4056  -2.8427   H         1 RES1   0.0000
    38 C14      2.3739  11.4158  -1.1928   C.ar      1 RES1   0.0000
    39 H23      2.1921  12.2921  -1.5140   H         1 RES1   0.0000
    40 C15      2.9144  11.2192   0.0724   C.ar      1 RES1   0.0000
    41 H24      3.1052  11.9769   0.6118   H         1 RES1   0.0000
    42 C16      1.3949  10.7870   3.1937   C.3       1 RES1   0.0000
    43 H25      0.8935  10.4209   2.4223   H         1 RES1   0.0000
    44 H26      2.0092  11.4768   2.8367   H         1 RES1   0.0000
    45 C17      0.3938  11.4955   4.0870   C.ar      1 RES1   0.0000
    46 C18     -0.9748  11.2734   3.9591   C.ar      1 RES1   0.0000
    47 H27     -1.2889  10.6310   3.3335   H         1 RES1   0.0000
    48 C19     -1.8797  11.9684   4.7265   C.ar      1 RES1   0.0000
    49 H28     -2.8086  11.7955   4.6324   H         1 RES1   0.0000
    50 C20     -1.4502  12.9159   5.6288   C.ar      1 RES1   0.0000
    51 H29     -2.0750  13.3888   6.1652   H         1 RES1   0.0000
    52 C21     -0.1022  13.1651   5.7419   C.ar      1 RES1   0.0000
    53 H30      0.2062  13.8176   6.3606   H         1 RES1   0.0000
    54 C22      0.8093  12.4701   4.9576   C.ar      1 RES1   0.0000
    55 H31      1.7340  12.6735   5.0260   H         1 RES1   0.0000
    56 C23      3.7721   6.3749   2.4322   C.3       1 RES1   0.0000
    57 H32      3.7284   6.4224   3.4197   H         1 RES1   0.0000
    58 H33      4.7291   6.3800   2.1764   H         1 RES1   0.0000
    59 C24      3.1669   5.0647   1.9890   C.ar      1 RES1   0.0000
    60 C25      3.5387   4.4646   0.7892   C.ar      1 RES1   0.0000
    61 H34      4.2297   4.8562   0.2677   H         1 RES1   0.0000
    62 C26      2.9241   3.3137   0.3421   C.ar      1 RES1   0.0000
    63 H35      3.1756   2.9324  -0.4908   H         1 RES1   0.0000
    64 C27      1.9471   2.7222   1.1055   C.ar      1 RES1   0.0000
    65 H36      1.5191   1.9323   0.7972   H         1 RES1   0.0000
    66 C28      1.5873   3.2697   2.3172   C.ar      1 RES1   0.0000
    67 H37      0.9189   2.8561   2.8496   H         1 RES1   0.0000
    68 C29      2.2068   4.4290   2.7534   C.ar      1 RES1   0.0000
    69 H38      1.9659   4.7952   3.5962   H         1 RES1   0.0000
    70 C30      4.7558  12.6803   2.9002   C.1       1 RES1   0.0000
    71 C31      6.7434   8.1496   1.2265   C.1       1 RES1   0.0000
    72 Fe1      4.1379   9.5320   2.4766   Fe        1 RES1   2.0000
    73 N1       4.8166   8.8869   4.4529   N.ar      1 RES1   0.0000
    74 N2       2.2427   9.6734   3.7489   N.3       1 RES1   0.0000
    75 N3       3.1265   7.5990   1.8690   N.3       1 RES1   0.0000
    76 N4       3.1752   9.9956   0.5592   N.ar      1 RES1   0.0000
    77 N5       4.6015  11.5531   2.7990   N.1       1 RES1   0.0000
    78 N6       5.9328   8.8615   1.5914   N.1       1 RES1   0.0000
@<TRIPOS>BOND
     1     1     2    1
     2     3     1    1
     3     4     1    1
     4     5     6    1
     5     7     5    1
     6     8     5    1
     7     9    10    1
     8    11     9   ar
     9    12    11    1
    10    13    11   ar
    11    14    13    1
    12    15    13   ar
    13    16    15    1
    14    17    15   ar
    15    18    17    1
    16    19    18    1
    17    20    18    1
    18    21    22    1
    19    23    21    1
    20    24    23    1
    21    25    23    1
    22    26    21    1
    23    27    26    1
    24    28    26    1
    25    29    26    1
    26    30    31    1
    27    32    30    1
    28    33    30    1
    29    34    33   ar
    30    35    34    1
    31    36    34   ar
    32    37    36    1
    33    38    36   ar
    34    39    38    1
    35    40    38   ar
    36    41    40    1
    37    42    43    1
    38    44    42    1
    39    45    42    1
    40    46    45   ar
    41    47    46    1
    42    48    46   ar
    43    49    48    1
    44    50    48   ar
    45    51    50    1
    46    52    50   ar
    47    53    52    1
    48    54    45   ar
    49    55    54    1
    50    56    57    1
    51    58    56    1
    52    59    56    1
    53    60    59   ar
    54    61    60    1
    55    62    60   ar
    56    63    62    1
    57    64    62   ar
    58    65    64    1
    59    66    64   ar
    60    67    66    1
    61    68    59   ar
    62    69    68    1
    63    70     1    1
    64    71     5    1
    65    72    73    1
    66    73     9   ar
    67    74    18    1
    68    75    23    1
    69    76    33   ar
    70    77    70    3
    71    78    71    3
    72    17    73   ar
    73    21    74    1
    74    30    75    1
    75    40    76   ar
    76    42    74    1
    77    52    54   ar
    78    56    75    1
    79    66    68   ar
    80    72    74    1
    81    72    75    1
    82    72    76    1
    83    72    77    1
    84    72    78    1
@<TRIPOS>SUBSTRUCTURE
     1 RES1        1 GROUP             0 ****  ****    0  
@<TRIPOS>CRYSIN
    9.5160   16.9500   10.3000   90.0000  105.7120   90.0000     4     1
