@<TRIPOS>MOLECULE
ROFHIH01
    78    84     1     0     0
SMALL
USER_CHARGES
****
Generated from the CSD

@<TRIPOS>ATOM
     1 B1       1.7559   2.7042   6.8689   B         1 RES1  -1.0000
     2 H1       2.2769   2.1715   7.7864   H         1 RES1   0.0000
     3 H2       2.0975   2.4599   5.7828   H         1 RES1   0.0000
     4 H3       0.6296   2.3411   6.9731   H         1 RES1   0.0000
     5 B2      -1.0966   9.9024   9.1394   B         1 RES1  -1.0000
     6 H4      -1.4311  10.3485   8.1039   H         1 RES1   0.0000
     7 H5      -0.6194  10.6030   9.9587   H         1 RES1   0.0000
     8 H6      -2.0450   9.3646   9.5421   H         1 RES1   0.0000
     9 C1       0.7916   8.7589   5.1877   C.ar      1 RES1   0.0000
    10 H7       0.1596   8.9048   5.8810   H         1 RES1   0.0000
    11 C2       0.5262   9.2662   3.9369   C.ar      1 RES1   0.0000
    12 H8      -0.2770   9.7463   3.7692   H         1 RES1   0.0000
    13 C3       1.4399   9.0643   2.9430   C.ar      1 RES1   0.0000
    14 H9       1.2843   9.4155   2.0741   H         1 RES1   0.0000
    15 C4       2.5909   8.3501   3.2048   C.ar      1 RES1   0.0000
    16 H10      3.2371   8.2093   2.5224   H         1 RES1   0.0000
    17 C5       2.7924   7.8411   4.4765   C.ar      1 RES1   0.0000
    18 C6       3.9663   6.9657   4.8197   C.3       1 RES1   0.0000
    19 H11      3.6914   6.0157   4.7810   H         1 RES1   0.0000
    20 H12      4.6857   7.1049   4.1541   H         1 RES1   0.0000
    21 C7       5.1070   8.6368   6.2054   C.3       1 RES1   0.0000
    22 H13      4.5433   9.2187   5.6191   H         1 RES1   0.0000
    23 C8       5.0086   9.2102   7.6049   C.3       1 RES1   0.0000
    24 H14      5.4908   8.6164   8.2338   H         1 RES1   0.0000
    25 H15      5.4509  10.0958   7.6238   H         1 RES1   0.0000
    26 C9       6.5305   8.7420   5.6777   C.3       1 RES1   0.0000
    27 H16      7.1507   8.3552   6.3303   H         1 RES1   0.0000
    28 H17      6.7555   9.6835   5.5309   H         1 RES1   0.0000
    29 H18      6.6011   8.2534   4.8306   H         1 RES1   0.0000
    30 C10      3.5407   9.3849   9.5372   C.3       1 RES1   0.0000
    31 H19      2.6385   9.6733   9.8228   H         1 RES1   0.0000
    32 H20      4.1959  10.0415   9.8823   H         1 RES1   0.0000
    33 C11      3.8394   8.0260  10.1273   C.ar      1 RES1   0.0000
    34 C12      4.3568   7.9022  11.4000   C.ar      1 RES1   0.0000
    35 H21      4.5311   8.6741  11.9247   H         1 RES1   0.0000
    36 C13      4.6172   6.6485  11.9029   C.ar      1 RES1   0.0000
    37 H22      4.9743   6.5467  12.7767   H         1 RES1   0.0000
    38 C14      4.3519   5.5356  11.1192   C.ar      1 RES1   0.0000
    39 H23      4.5359   4.6585  11.4367   H         1 RES1   0.0000
    40 C15      3.8082   5.7375   9.8556   C.ar      1 RES1   0.0000
    41 H24      3.6143   4.9809   9.3160   H         1 RES1   0.0000
    42 C16      5.3284   6.1633   6.7321   C.3       1 RES1   0.0000
    43 H25      4.7117   5.4745   7.0862   H         1 RES1   0.0000
    44 H26      5.8260   6.5298   7.5057   H         1 RES1   0.0000
    45 C17      6.3372   5.4525   5.8433   C.ar      1 RES1   0.0000
    46 C18      7.7048   5.6747   5.9683   C.ar      1 RES1   0.0000
    47 H27      8.0189   6.3177   6.5922   H         1 RES1   0.0000
    48 C19      8.6126   4.9758   5.1986   C.ar      1 RES1   0.0000
    49 H28      9.5425   5.1471   5.2918   H         1 RES1   0.0000
    50 C20      8.1793   4.0325   4.2979   C.ar      1 RES1   0.0000
    51 H29      8.8051   3.5592   3.7623   H         1 RES1   0.0000
    52 C21      6.8318   3.7815   4.1759   C.ar      1 RES1   0.0000
    53 H30      6.5222   3.1351   3.5530   H         1 RES1   0.0000
    54 C22      5.9266   4.4736   4.9635   C.ar      1 RES1   0.0000
    55 H31      5.0018   4.2700   4.8960   H         1 RES1   0.0000
    56 C23      2.9579  10.5911   7.4948   C.3       1 RES1   0.0000
    57 H32      2.0027  10.5911   7.7557   H         1 RES1   0.0000
    58 H33      2.9966  10.5419   6.5069   H         1 RES1   0.0000
    59 C24      3.5683  11.9008   7.9283   C.ar      1 RES1   0.0000
    60 C25      3.2084  12.4997   9.1404   C.ar      1 RES1   0.0000
    61 H34      2.5265  12.1027   9.6691   H         1 RES1   0.0000
    62 C26      3.8186  13.6482   9.5818   C.ar      1 RES1   0.0000
    63 H35      3.5670  14.0350  10.4120   H         1 RES1   0.0000
    64 C27      4.7997  14.2386   8.8121   C.ar      1 RES1   0.0000
    65 H36      5.2328  15.0274   9.1176   H         1 RES1   0.0000
    66 C28      5.1518  13.6855   7.5970   C.ar      1 RES1   0.0000
    67 H37      5.8186  14.0994   7.0614   H         1 RES1   0.0000
    68 C29      4.5353  12.5302   7.1615   C.ar      1 RES1   0.0000
    69 H38      4.7775  12.1604   6.3204   H         1 RES1   0.0000
    70 C30      1.9683   4.2683   7.0247   C.1       1 RES1   0.0000
    71 C31     -0.0217   8.8115   8.7000   C.1       1 RES1   0.0000
    72 Fe1      2.5881   7.4231   7.4493   Fe        1 RES1   2.0000
    73 N1       1.9073   8.0668   5.4704   N.ar      1 RES1   0.0000
    74 N2       4.4844   7.2762   6.1776   N.3       1 RES1   0.0000
    75 N3       3.6032   9.3593   8.0582   N.3       1 RES1   0.0000
    76 N4       3.5478   6.9564   9.3695   N.ar      1 RES1   0.0000
    77 N5       2.1217   5.3965   7.1328   N.1       1 RES1   0.0000
    78 N6       0.7872   8.0973   8.3360   N.1       1 RES1   0.0000
@<TRIPOS>BOND
     1     1     2    1
     2     3     1    1
     3     4     1    1
     4     5     6    1
     5     7     5    1
     6     8     5    1
     7     9    10    1
     8    11     9   ar
     9    12    11    1
    10    13    11   ar
    11    14    13    1
    12    15    13   ar
    13    16    15    1
    14    17    15   ar
    15    18    17    1
    16    19    18    1
    17    20    18    1
    18    21    22    1
    19    23    21    1
    20    24    23    1
    21    25    23    1
    22    26    21    1
    23    27    26    1
    24    28    26    1
    25    29    26    1
    26    30    31    1
    27    32    30    1
    28    33    30    1
    29    34    33   ar
    30    35    34    1
    31    36    34   ar
    32    37    36    1
    33    38    36   ar
    34    39    38    1
    35    40    38   ar
    36    41    40    1
    37    42    43    1
    38    44    42    1
    39    45    42    1
    40    46    45   ar
    41    47    46    1
    42    48    46   ar
    43    49    48    1
    44    50    48   ar
    45    51    50    1
    46    52    50   ar
    47    53    52    1
    48    54    45   ar
    49    55    54    1
    50    56    57    1
    51    58    56    1
    52    59    56    1
    53    60    59   ar
    54    61    60    1
    55    62    60   ar
    56    63    62    1
    57    64    62   ar
    58    65    64    1
    59    66    64   ar
    60    67    66    1
    61    68    59   ar
    62    69    68    1
    63    70     1    1
    64    71     5    1
    65    72    73    1
    66    73     9   ar
    67    74    18    1
    68    75    23    1
    69    76    33   ar
    70    77    70    3
    71    78    71    3
    72    17    73   ar
    73    21    74    1
    74    30    75    1
    75    40    76   ar
    76    42    74    1
    77    52    54   ar
    78    56    75    1
    79    66    68   ar
    80    72    74    1
    81    72    75    1
    82    72    76    1
    83    72    77    1
    84    72    78    1
@<TRIPOS>SUBSTRUCTURE
     1 RES1        1 GROUP             0 ****  ****    0  
@<TRIPOS>CRYSIN
    9.5230   16.9648   10.3037   90.0000  105.7050   90.0000     4     1
