@<TRIPOS>MOLECULE
ROFHAZ
    78    84     1     0     0
SMALL
USER_CHARGES
****
Generated from the CSD

@<TRIPOS>ATOM
     1 B1       1.6701  14.2242   6.8649   B         1 RES1  -1.0000
     2 H1       2.1841  14.7496   7.7785   H         1 RES1   0.0000
     3 H2       2.2633  14.4286   5.9057   H         1 RES1   0.0000
     4 H3       0.4003  14.5300   6.9461   H         1 RES1   0.0000
     5 B2      -1.0869   6.9947   9.1429   B         1 RES1  -1.0000
     6 H4      -0.6297   6.3357   9.8990   H         1 RES1   0.0000
     7 H5      -1.3749   6.5047   8.1451   H         1 RES1   0.0000
     8 H6      -2.0307   7.4846   9.5522   H         1 RES1   0.0000
     9 C1       0.7785   8.1672   5.1833   C.ar      1 RES1   0.0000
    10 H7       0.1447   8.0202   5.8760   H         1 RES1   0.0000
    11 C2       0.5177   7.6553   3.9289   C.ar      1 RES1   0.0000
    12 H8      -0.2847   7.1754   3.7594   H         1 RES1   0.0000
    13 C3       1.4399   7.8546   2.9281   C.ar      1 RES1   0.0000
    14 H9       1.2905   7.5015   2.0581   H         1 RES1   0.0000
    15 C4       2.5918   8.5744   3.2055   C.ar      1 RES1   0.0000
    16 H10      3.2445   8.7163   2.5297   H         1 RES1   0.0000
    17 C5       2.7783   9.0833   4.4699   C.ar      1 RES1   0.0000
    18 C6       3.9556   9.9564   4.8217   C.3       1 RES1   0.0000
    19 H11      4.6792   9.8145   4.1617   H         1 RES1   0.0000
    20 H12      3.6839  10.9076   4.7791   H         1 RES1   0.0000
    21 C7       5.0752   8.2821   6.2119   C.3       1 RES1   0.0000
    22 H13      4.5123   7.7059   5.6193   H         1 RES1   0.0000
    23 C8       4.9581   7.7059   7.6160   C.3       1 RES1   0.0000
    24 H14      5.3909   6.8156   7.6378   H         1 RES1   0.0000
    25 H15      5.4410   8.2939   8.2491   H         1 RES1   0.0000
    26 C9       6.5036   8.1706   5.6966   C.3       1 RES1   0.0000
    27 H16      6.5925   8.6859   4.8672   H         1 RES1   0.0000
    28 H17      6.7145   7.2295   5.5212   H         1 RES1   0.0000
    29 H18      7.1227   8.5237   6.3684   H         1 RES1   0.0000
    30 C10      3.4793   7.5438   9.5393   C.3       1 RES1   0.0000
    31 H19      4.1269   6.8815   9.8891   H         1 RES1   0.0000
    32 H20      2.5721   7.2599   9.8167   H         1 RES1   0.0000
    33 C11      3.7827   8.9021  10.1269   C.ar      1 RES1   0.0000
    34 C12      4.2808   9.0288  11.4121   C.ar      1 RES1   0.0000
    35 H21      4.4353   8.2584  11.9461   H         1 RES1   0.0000
    36 C13      4.5503  10.2909  11.9085   C.ar      1 RES1   0.0000
    37 H22      4.8972  10.3957  12.7864   H         1 RES1   0.0000
    38 C14      4.3102  11.3942  11.1207   C.ar      1 RES1   0.0000
    39 H23      4.5018  12.2694  11.4368   H         1 RES1   0.0000
    40 C15      3.7792  11.1948   9.8455   C.ar      1 RES1   0.0000
    41 H24      3.5992  11.9517   9.3015   H         1 RES1   0.0000
    42 C16      5.3119  10.7539   6.7450   C.3       1 RES1   0.0000
    43 H25      5.8174  10.3822   7.5099   H         1 RES1   0.0000
    44 H26      4.7007  11.4415   7.1096   H         1 RES1   0.0000
    45 C17      6.3090  11.4618   5.8373   C.ar      1 RES1   0.0000
    46 C18      7.6753  11.2269   5.9433   C.ar      1 RES1   0.0000
    47 H27      7.9914  10.5832   6.5666   H         1 RES1   0.0000
    48 C19      8.5862  11.9179   5.1556   C.ar      1 RES1   0.0000
    49 H28      9.5156  11.7355   5.2309   H         1 RES1   0.0000
    50 C20      8.1336  12.8776   4.2549   C.ar      1 RES1   0.0000
    51 H29      8.7495  13.3439   3.7010   H         1 RES1   0.0000
    52 C21      6.7845  13.1479   4.1746   C.ar      1 RES1   0.0000
    53 H30      6.4691  13.8085   3.5692   H         1 RES1   0.0000
    54 C22      5.8795  12.4569   4.9752   C.ar      1 RES1   0.0000
    55 H31      4.9550  12.6698   4.9297   H         1 RES1   0.0000
    56 C23      2.9009   6.3476   7.4911   C.3       1 RES1   0.0000
    57 H32      2.9416   6.3949   6.5032   H         1 RES1   0.0000
    58 H33      1.9460   6.3543   7.7507   H         1 RES1   0.0000
    59 C24      3.5064   5.0348   7.9311   C.ar      1 RES1   0.0000
    60 C25      3.1447   4.4435   9.1479   C.ar      1 RES1   0.0000
    61 H34      2.4686   4.8473   9.6780   H         1 RES1   0.0000
    62 C26      3.7485   3.2861   9.5938   C.ar      1 RES1   0.0000
    63 H35      3.4956   2.9060  10.4271   H         1 RES1   0.0000
    64 C27      4.7247   2.6813   8.8219   C.ar      1 RES1   0.0000
    65 H36      5.1510   1.8906   9.1310   H         1 RES1   0.0000
    66 C28      5.0831   3.2236   7.6001   C.ar      1 RES1   0.0000
    67 H37      5.7452   2.8012   7.0660   H         1 RES1   0.0000
    68 C29      4.4668   4.3928   7.1582   C.ar      1 RES1   0.0000
    69 H38      4.7074   4.7577   6.3149   H         1 RES1   0.0000
    70 C30      1.9303  12.6630   7.0194   C.1       1 RES1   0.0000
    71 C31     -0.0382   8.1047   8.6921   C.1       1 RES1   0.0000
    72 Fe1      2.5604   9.5085   7.4427   Fe        1 RES1   2.0000
    73 N1       1.8889   8.8633   5.4677   N.ar      1 RES1   0.0000
    74 N2       4.4626   9.6484   6.1861   N.3       1 RES1   0.0000
    75 N3       3.5544   7.5728   8.0529   N.3       1 RES1   0.0000
    76 N4       3.5116   9.9721   9.3589   N.ar      1 RES1   0.0000
    77 N5       2.1135  11.5351   7.1225   N.1       1 RES1   0.0000
    78 N6       0.7503   8.8447   8.3165   N.1       1 RES1   0.0000
@<TRIPOS>BOND
     1     1     2    1
     2     3     1    1
     3     4     1    1
     4     5     6    1
     5     7     5    1
     6     8     5    1
     7     9    10    1
     8    11     9   ar
     9    12    11    1
    10    13    11   ar
    11    14    13    1
    12    15    13   ar
    13    16    15    1
    14    17    15   ar
    15    18    17    1
    16    19    18    1
    17    20    18    1
    18    21    22    1
    19    23    21    1
    20    24    23    1
    21    25    23    1
    22    26    21    1
    23    27    26    1
    24    28    26    1
    25    29    26    1
    26    30    31    1
    27    32    30    1
    28    33    30    1
    29    34    33   ar
    30    35    34    1
    31    36    34   ar
    32    37    36    1
    33    38    36   ar
    34    39    38    1
    35    40    38   ar
    36    41    40    1
    37    42    43    1
    38    44    42    1
    39    45    42    1
    40    46    45   ar
    41    47    46    1
    42    48    46   ar
    43    49    48    1
    44    50    48   ar
    45    51    50    1
    46    52    50   ar
    47    53    52    1
    48    54    45   ar
    49    55    54    1
    50    56    57    1
    51    58    56    1
    52    59    56    1
    53    60    59   ar
    54    61    60    1
    55    62    60   ar
    56    63    62    1
    57    64    62   ar
    58    65    64    1
    59    66    64   ar
    60    67    66    1
    61    68    59   ar
    62    69    68    1
    63    70     1    1
    64    71     5    1
    65    72    73    1
    66    73     9   ar
    67    74    18    1
    68    75    23    1
    69    76    33   ar
    70    77    70    3
    71    78    71    3
    72    17    73   ar
    73    21    74    1
    74    30    75    1
    75    40    76   ar
    76    42    74    1
    77    52    54   ar
    78    56    75    1
    79    66    68   ar
    80    72    74    1
    81    72    75    1
    82    72    76    1
    83    72    77    1
    84    72    78    1
@<TRIPOS>SUBSTRUCTURE
     1 RES1        1 GROUP             0 ****  ****    0  
@<TRIPOS>CRYSIN
    9.4191   16.8953   10.2864   90.0000  105.5710   90.0000     4     1
