@<TRIPOS>MOLECULE
ROFHIH
    78    84     1     0     0
SMALL
USER_CHARGES
****
Generated from the CSD

@<TRIPOS>ATOM
     1 B1       1.6488   2.6634   6.8876   B         1 RES1  -1.0000
     2 H1       2.1522   2.1462   7.7696   H         1 RES1   0.0000
     3 H2       2.1710   2.4335   5.9758   H         1 RES1   0.0000
     4 H3       0.4189   2.4166   6.9569   H         1 RES1   0.0000
     5 B2      -1.0858   9.9099   9.1550   B         1 RES1  -1.0000
     6 H4      -1.3561  10.4270   8.1561   H         1 RES1   0.0000
     7 H5      -0.6035  10.6129   9.9201   H         1 RES1   0.0000
     8 H6      -1.9954   9.3961   9.5732   H         1 RES1   0.0000
     9 C1       0.7708   8.7235   5.1850   C.ar      1 RES1   0.0000
    10 H7       0.1335   8.8672   5.8738   H         1 RES1   0.0000
    11 C2       0.5154   9.2356   3.9294   C.ar      1 RES1   0.0000
    12 H8      -0.2872   9.7121   3.7569   H         1 RES1   0.0000
    13 C3       1.4450   9.0463   2.9314   C.ar      1 RES1   0.0000
    14 H9       1.3020   9.4063   2.0643   H         1 RES1   0.0000
    15 C4       2.5881   8.3230   3.2109   C.ar      1 RES1   0.0000
    16 H10      3.2416   8.1810   2.5350   H         1 RES1   0.0000
    17 C5       2.7773   7.8060   4.4774   C.ar      1 RES1   0.0000
    18 C6       3.9499   6.9305   4.8302   C.3       1 RES1   0.0000
    19 H11      3.6764   5.9807   4.7876   H         1 RES1   0.0000
    20 H12      4.6750   7.0708   4.1712   H         1 RES1   0.0000
    21 C7       5.0725   8.6067   6.2226   C.3       1 RES1   0.0000
    22 H13      4.5099   9.1849   5.6310   H         1 RES1   0.0000
    23 C8       4.9638   9.1840   7.6219   C.3       1 RES1   0.0000
    24 H14      5.4482   8.5968   8.2542   H         1 RES1   0.0000
    25 H15      5.3976  10.0738   7.6407   H         1 RES1   0.0000
    26 C9       6.5029   8.7168   5.7033   C.3       1 RES1   0.0000
    27 H16      7.1223   8.3636   6.3752   H         1 RES1   0.0000
    28 H17      6.7153   9.6564   5.5259   H         1 RES1   0.0000
    29 H18      6.5912   8.1996   4.8748   H         1 RES1   0.0000
    30 C10      3.4777   9.3471   9.5465   C.3       1 RES1   0.0000
    31 H19      2.5719   9.6327   9.8259   H         1 RES1   0.0000
    32 H20      4.1276  10.0079   9.8953   H         1 RES1   0.0000
    33 C11      3.7787   7.9884  10.1371   C.ar      1 RES1   0.0000
    34 C12      4.2781   7.8650  11.4195   C.ar      1 RES1   0.0000
    35 H21      4.4374   8.6356  11.9507   H         1 RES1   0.0000
    36 C13      4.5423   6.6009  11.9190   C.ar      1 RES1   0.0000
    37 H22      4.8852   6.4945  12.7990   H         1 RES1   0.0000
    38 C14      4.3027   5.4940  11.1281   C.ar      1 RES1   0.0000
    39 H23      4.4931   4.6169  11.4423   H         1 RES1   0.0000
    40 C15      3.7751   5.6985   9.8557   C.ar      1 RES1   0.0000
    41 H24      3.5942   4.9414   9.3106   H         1 RES1   0.0000
    42 C16      5.3061   6.1328   6.7508   C.3       1 RES1   0.0000
    43 H25      4.6952   5.4450   7.1145   H         1 RES1   0.0000
    44 H26      5.8117   6.5046   7.5169   H         1 RES1   0.0000
    45 C17      6.3093   5.4214   5.8440   C.ar      1 RES1   0.0000
    46 C18      7.6745   5.6529   5.9481   C.ar      1 RES1   0.0000
    47 H27      7.9902   6.2968   6.5704   H         1 RES1   0.0000
    48 C19      8.5825   4.9634   5.1632   C.ar      1 RES1   0.0000
    49 H28      9.5126   5.1425   5.2435   H         1 RES1   0.0000
    50 C20      8.1350   4.0119   4.2594   C.ar      1 RES1   0.0000
    51 H29      8.7520   3.5506   3.7044   H         1 RES1   0.0000
    52 C21      6.7759   3.7365   4.1742   C.ar      1 RES1   0.0000
    53 H30      6.4619   3.0774   3.5657   H         1 RES1   0.0000
    54 C22      5.8771   4.4294   4.9799   C.ar      1 RES1   0.0000
    55 H31      4.9517   4.2181   4.9372   H         1 RES1   0.0000
    56 C23      2.9062  10.5520   7.5010   C.3       1 RES1   0.0000
    57 H32      1.9496  10.5504   7.7597   H         1 RES1   0.0000
    58 H33      2.9466  10.5013   6.5130   H         1 RES1   0.0000
    59 C24      3.5122  11.8618   7.9331   C.ar      1 RES1   0.0000
    60 C25      3.1633  12.4583   9.1530   C.ar      1 RES1   0.0000
    61 H34      2.4903  12.0561   9.6892   H         1 RES1   0.0000
    62 C26      3.7721  13.6125   9.5921   C.ar      1 RES1   0.0000
    63 H35      3.5229  13.9945  10.4265   H         1 RES1   0.0000
    64 C27      4.7499  14.2159   8.8171   C.ar      1 RES1   0.0000
    65 H36      5.1835  15.0034   9.1243   H         1 RES1   0.0000
    66 C28      5.0946  13.6683   7.5922   C.ar      1 RES1   0.0000
    67 H37      5.7526  14.0891   7.0521   H         1 RES1   0.0000
    68 C29      4.4759  12.5006   7.1512   C.ar      1 RES1   0.0000
    69 H38      4.7134  12.1355   6.3078   H         1 RES1   0.0000
    70 C30      1.9179   4.2181   7.0342   C.1       1 RES1   0.0000
    71 C31     -0.0471   8.7962   8.6992   C.1       1 RES1   0.0000
    72 Fe1      2.5551   7.3820   7.4504   Fe        1 RES1   2.0000
    73 N1       1.8843   8.0284   5.4724   N.ar      1 RES1   0.0000
    74 N2       4.4569   7.2396   6.1939   N.3       1 RES1   0.0000
    75 N3       3.5506   9.3199   8.0659   N.3       1 RES1   0.0000
    76 N4       3.5132   6.9207   9.3681   N.ar      1 RES1   0.0000
    77 N5       2.1071   5.3487   7.1363   N.1       1 RES1   0.0000
    78 N6       0.7432   8.0536   8.3236   N.1       1 RES1   0.0000
@<TRIPOS>BOND
     1     1     2    1
     2     3     1    1
     3     4     1    1
     4     5     6    1
     5     7     5    1
     6     8     5    1
     7     9    10    1
     8    11     9   ar
     9    12    11    1
    10    13    11   ar
    11    14    13    1
    12    15    13   ar
    13    16    15    1
    14    17    15   ar
    15    18    17    1
    16    19    18    1
    17    20    18    1
    18    21    22    1
    19    23    21    1
    20    24    23    1
    21    25    23    1
    22    26    21    1
    23    27    26    1
    24    28    26    1
    25    29    26    1
    26    30    31    1
    27    32    30    1
    28    33    30    1
    29    34    33   ar
    30    35    34    1
    31    36    34   ar
    32    37    36    1
    33    38    36   ar
    34    39    38    1
    35    40    38   ar
    36    41    40    1
    37    42    43    1
    38    44    42    1
    39    45    42    1
    40    46    45   ar
    41    47    46    1
    42    48    46   ar
    43    49    48    1
    44    50    48   ar
    45    51    50    1
    46    52    50   ar
    47    53    52    1
    48    54    45   ar
    49    55    54    1
    50    56    57    1
    51    58    56    1
    52    59    56    1
    53    60    59   ar
    54    61    60    1
    55    62    60   ar
    56    63    62    1
    57    64    62   ar
    58    65    64    1
    59    66    64   ar
    60    67    66    1
    61    68    59   ar
    62    69    68    1
    63    70     1    1
    64    71     5    1
    65    72    73    1
    66    73     9   ar
    67    74    18    1
    68    75    23    1
    69    76    33   ar
    70    77    70    3
    71    78    71    3
    72    17    73   ar
    73    21    74    1
    74    30    75    1
    75    40    76   ar
    76    42    74    1
    77    52    54   ar
    78    56    75    1
    79    66    68   ar
    80    72    74    1
    81    72    75    1
    82    72    76    1
    83    72    77    1
    84    72    78    1
@<TRIPOS>SUBSTRUCTURE
     1 RES1        1 GROUP             0 ****  ****    0  
@<TRIPOS>CRYSIN
    9.4203   16.8995   10.2868   90.0000  105.5520   90.0000     4     1
