@<TRIPOS>MOLECULE
ROFSAG
    77    77     1     0     0
SMALL
NO_CHARGES
****
Generated from the CSD

@<TRIPOS>ATOM
     1 Fe1     -1.8113   0.4295   3.8301   Fe        1 RES1   0.0000
     2 P1      -3.2615   0.3327   2.1219   P.3       1 RES1   0.0000
     3 C1      -2.9120  -0.5306   4.7355   C.1       1 RES1   0.0000
     4 O1      -3.6689  -1.1865   5.3391   O.2       1 RES1   0.0000
     5 C2      -4.5296   1.6403   1.9824   C.3       1 RES1   0.0000
     6 C3      -4.2581  -1.1970   1.9993   C.3       1 RES1   0.0000
     7 C4      -3.4468  -2.4793   1.8951   C.3       1 RES1   0.0000
     8 Si1     -0.5613   3.5795   2.1678   Si        1 RES1   0.0000
     9 C5      -2.4763   0.4390   0.5086   C.3       1 RES1   0.0000
    10 C6       0.2153   4.9703   3.1100   C.3       1 RES1   0.0000
    11 C7      -5.5856   1.5276   3.0809   C.3       1 RES1   0.0000
    12 C8      -3.2981   0.2569  -0.7752   C.3       1 RES1   0.0000
    13 C9       0.7119   2.7089   1.1460   C.3       1 RES1   0.0000
    14 C10     -1.4311   2.4541   3.3689   C.3       1 RES1   0.0000
    15 C11     -1.7940   4.3386   0.9728   C.3       1 RES1   0.0000
    16 H1      -4.9936   1.5476   1.1475   H         1 RES1   0.0000
    17 H2      -4.1083   2.5025   1.9978   H         1 RES1   0.0000
    18 H3      -4.8750  -1.1191   1.2670   H         1 RES1   0.0000
    19 H4      -4.7703  -1.2918   2.8067   H         1 RES1   0.0000
    20 H5      -4.0112  -3.2542   1.8476   H         1 RES1   0.0000
    21 H6      -2.9459  -2.3972   1.0801   H         1 RES1   0.0000
    22 H7      -2.8410  -2.5709   2.6351   H         1 RES1   0.0000
    23 H8      -1.7783  -0.2200   0.4826   H         1 RES1   0.0000
    24 H9      -2.0545   1.3002   0.4519   H         1 RES1   0.0000
    25 H10     -0.4448   5.4177   3.6431   H         1 RES1   0.0000
    26 H11      0.8979   4.6071   3.6799   H         1 RES1   0.0000
    27 H12      0.6113   5.5956   2.4972   H         1 RES1   0.0000
    28 H13     -6.2489   2.2172   2.9982   H         1 RES1   0.0000
    29 H14     -6.0137   0.6685   3.0564   H         1 RES1   0.0000
    30 H15     -5.1201   1.6297   3.9128   H         1 RES1   0.0000
    31 H16     -2.7550   0.3401  -1.5611   H         1 RES1   0.0000
    32 H17     -3.7036  -0.6138  -0.7568   H         1 RES1   0.0000
    33 H18     -3.9835   0.9286  -0.7875   H         1 RES1   0.0000
    34 H19      1.3665   2.3004   1.7159   H         1 RES1   0.0000
    35 H20      0.2793   2.0330   0.6189   H         1 RES1   0.0000
    36 H21      1.1412   3.3405   0.5653   H         1 RES1   0.0000
    37 H22     -2.4730   4.8081   1.4631   H         1 RES1   0.0000
    38 H23     -1.3369   4.9524   0.3922   H         1 RES1   0.0000
    39 H24     -2.1995   3.6448   0.4474   H         1 RES1   0.0000
    40 P1A     -0.3610   0.3327   5.5383   P.3       1 RES1   0.0000
    41 C2A      0.9070   1.6403   5.6777   C.3       1 RES1   0.0000
    42 C7A      1.9631   1.5276   4.5792   C.3       1 RES1   0.0000
    43 H13A     2.6263   2.2172   4.6619   H         1 RES1   0.0000
    44 H14A     2.3912   0.6685   4.6037   H         1 RES1   0.0000
    45 H15A     1.4976   1.6297   3.7473   H         1 RES1   0.0000
    46 H1A      1.3711   1.5476   6.5126   H         1 RES1   0.0000
    47 H2A      0.4858   2.5025   5.6624   H         1 RES1   0.0000
    48 C3A      0.6355  -1.1970   5.6608   C.3       1 RES1   0.0000
    49 C4A     -0.1758  -2.4793   5.7650   C.3       1 RES1   0.0000
    50 H5A      0.3887  -3.2542   5.8125   H         1 RES1   0.0000
    51 H6A     -0.6767  -2.3972   6.5800   H         1 RES1   0.0000
    52 H7A     -0.7816  -2.5709   5.0250   H         1 RES1   0.0000
    53 H3A      1.2524  -1.1191   6.3931   H         1 RES1   0.0000
    54 H4A      1.1478  -1.2918   4.8534   H         1 RES1   0.0000
    55 C5A     -1.1463   0.4390   7.1515   C.3       1 RES1   0.0000
    56 C8A     -0.3244   0.2569   8.4353   C.3       1 RES1   0.0000
    57 H16A    -0.8675   0.3401   9.2212   H         1 RES1   0.0000
    58 H17A     0.0811  -0.6138   8.4169   H         1 RES1   0.0000
    59 H18A     0.3610   0.9286   8.4476   H         1 RES1   0.0000
    60 H8A     -1.8442  -0.2200   7.1775   H         1 RES1   0.0000
    61 H9A     -1.5681   1.3002   7.2082   H         1 RES1   0.0000
    62 C1A     -0.7105  -0.5306   2.9246   C.1       1 RES1   0.0000
    63 O1A      0.0463  -1.1865   2.3210   O.2       1 RES1   0.0000
    64 C10A    -2.1914   2.4541   4.2912   C.3       1 RES1   0.0000
    65 Si1A    -3.0613   3.5795   5.4923   Si        1 RES1   0.0000
    66 C6A     -3.8379   4.9703   4.5501   C.3       1 RES1   0.0000
    67 H10A    -3.1778   5.4177   4.0170   H         1 RES1   0.0000
    68 H11A    -4.5204   4.6071   3.9802   H         1 RES1   0.0000
    69 H12A    -4.2339   5.5956   5.1629   H         1 RES1   0.0000
    70 C9A     -4.3345   2.7089   6.5142   C.3       1 RES1   0.0000
    71 H19A    -4.9891   2.3004   5.9442   H         1 RES1   0.0000
    72 H20A    -3.9018   2.0330   7.0412   H         1 RES1   0.0000
    73 H21A    -4.7637   3.3405   7.0948   H         1 RES1   0.0000
    74 C11A    -1.8285   4.3386   6.6873   C.3       1 RES1   0.0000
    75 H22A    -1.1495   4.8081   6.1970   H         1 RES1   0.0000
    76 H23A    -2.2857   4.9524   7.2679   H         1 RES1   0.0000
    77 H24A    -1.4231   3.6448   7.2128   H         1 RES1   0.0000
@<TRIPOS>BOND
     1     1     2    1
     2     2     5    1
     3     3     1    1
     4     4     3    3
     5     5    11    1
     6     6     2    1
     7     7     6    1
     8     8    10    1
     9     9     2    1
    10    10    25    1
    11    11    28    1
    12    12     9    1
    13    13     8    1
    14    14     1   un
    15    15     8    1
    16    16     5    1
    17    17     5    1
    18    18     6    1
    19    19     6    1
    20    20     7    1
    21    21     7    1
    22    22     7    1
    23    23     9    1
    24    24     9    1
    25    26    10    1
    26    27    10    1
    27    29    11    1
    28    30    11    1
    29    31    12    1
    30    32    12    1
    31    33    12    1
    32    34    13    1
    33    35    13    1
    34    36    13    1
    35    37    15    1
    36    38    15    1
    37    39    15    1
    38    40     1    1
    39    41    40    1
    40    42    41    1
    41    43    42    1
    42    44    42    1
    43    45    42    1
    44    46    41    1
    45    47    41    1
    46    48    40    1
    47    49    48    1
    48    50    49    1
    49    51    49    1
    50    52    49    1
    51    53    48    1
    52    54    48    1
    53    55    40    1
    54    56    55    1
    55    57    56    1
    56    58    56    1
    57    59    56    1
    58    60    55    1
    59    61    55    1
    60    62     1    1
    61    63    62    3
    62    64     1   un
    63    65    64    1
    64    66    65    1
    65    67    66    1
    66    68    66    1
    67    69    66    1
    68    70    65    1
    69    71    70    1
    70    72    70    1
    71    73    70    1
    72    74    65    1
    73    75    74    1
    74    76    74    1
    75    77    74    1
    76     8    14    1
    77    14    64    3
@<TRIPOS>SUBSTRUCTURE
     1 RES1        1 GROUP             0 ****  ****    0  
@<TRIPOS>CRYSIN
   18.6310   10.5280   16.9470   90.0000  115.3100   90.0000    15     1
