@<TRIPOS>MOLECULE
ROFSIO
    79    79     1     0     0
SMALL
NO_CHARGES
****
Generated from the CSD

@<TRIPOS>ATOM
     1 Fe1      2.4192   7.9702   3.3571   Fe        1 RES1   0.0000
     2 P1       1.7971   9.7707   4.5607   P.3       1 RES1   0.0000
     3 P2       2.9451   6.1909   2.0761   P.3       1 RES1   0.0000
     4 Si1      3.5585  11.4603  -1.4308   Si        1 RES1   0.0000
     5 Si2      5.9977   8.6684   4.2247   Si        1 RES1   0.0000
     6 O1       2.1565   6.3230   5.7595   O.2       1 RES1   0.0000
     7 O2      -0.1523   8.1086   2.0302   O.2       1 RES1   0.0000
     8 C1       4.3908   8.6423   3.3353   C.3       1 RES1   0.0000
     9 C2       3.7942   9.0712   2.3226   C.3       1 RES1   0.0000
    10 C3       3.7942   9.8393   1.1311   C.1       1 RES1   0.0000
    11 C4       3.7293  10.4777   0.1015   C.1       1 RES1   0.0000
    12 C5       2.9830  13.1598  -0.9813   C.3       1 RES1   0.0000
    13 C6       2.3164  10.6523  -2.5184   C.3       1 RES1   0.0000
    14 C7       5.2047  11.5251  -2.2743   C.3       1 RES1   0.0000
    15 C8       6.4450  10.4440   4.5679   C.3       1 RES1   0.0000
    16 C9       7.3061   7.9465   3.1299   C.3       1 RES1   0.0000
    17 C10      5.9150   7.7146   5.8320   C.3       1 RES1   0.0000
    18 C11      0.0713   9.8393   5.1069   C.3       1 RES1   0.0000
    19 C12     -0.3748   8.7358   6.0205   C.3       1 RES1   0.0000
    20 C13      2.7454   9.9839   6.1172   C.3       1 RES1   0.0000
    21 C14      2.3270  11.1024   7.0767   C.3       1 RES1   0.0000
    22 C15      2.0207  11.4091   3.7486   C.3       1 RES1   0.0000
    23 C16      1.0577  11.6174   2.5692   C.3       1 RES1   0.0000
    24 C17      3.2226   6.5288   0.2997   C.3       1 RES1   0.0000
    25 C18      2.0603   7.1223  -0.4665   C.3       1 RES1   0.0000
    26 C19      1.8779   3.6385   1.2423   C.3       1 RES1   0.0000
    27 C20      1.6443   4.8854   2.1075   C.3       1 RES1   0.0000
    28 C21      4.4814   5.2881   2.4266   C.3       1 RES1   0.0000
    29 C22      4.5578   4.6148   3.7897   C.3       1 RES1   0.0000
    30 C23      2.2437   6.9639   4.8048   C.1       1 RES1   0.0000
    31 C24      0.9240   8.0425   2.5208   C.1       1 RES1   0.0000
    32 H1       2.1259  13.1049  -0.5511   H         1 RES1   0.0000
    33 H2       3.6136  13.5713  -0.3843   H         1 RES1   0.0000
    34 H3       2.9076  13.6860  -1.7788   H         1 RES1   0.0000
    35 H4       1.4723  10.6311  -2.0616   H         1 RES1   0.0000
    36 H5       2.2275  11.1535  -3.3329   H         1 RES1   0.0000
    37 H6       2.5919   9.7557  -2.7238   H         1 RES1   0.0000
    38 H7       5.4912  10.6361  -2.4918   H         1 RES1   0.0000
    39 H8       5.1375  12.0463  -3.0791   H         1 RES1   0.0000
    40 H9       5.8434  11.9316  -1.6846   H         1 RES1   0.0000
    41 H10      5.7770  10.8356   5.1359   H         1 RES1   0.0000
    42 H11      7.2984  10.4814   5.0054   H         1 RES1   0.0000
    43 H12      6.4879  10.9316   3.7414   H         1 RES1   0.0000
    44 H13      7.1055   7.0288   2.9317   H         1 RES1   0.0000
    45 H14      7.3431   8.4502   2.3130   H         1 RES1   0.0000
    46 H15      8.1537   7.9989   3.5770   H         1 RES1   0.0000
    47 H16      5.2275   8.0861   6.3903   H         1 RES1   0.0000
    48 H17      5.7162   6.7931   5.6483   H         1 RES1   0.0000
    49 H18      6.7606   7.7744   6.2815   H         1 RES1   0.0000
    50 H19     -0.4891   9.8168   4.3287   H         1 RES1   0.0000
    51 H20     -0.0788  10.6772   5.5516   H         1 RES1   0.0000
    52 H21     -1.2985   8.8318   6.2646   H         1 RES1   0.0000
    53 H22     -0.2470   7.8954   5.5758   H         1 RES1   0.0000
    54 H23      0.1683   8.7645   6.8132   H         1 RES1   0.0000
    55 H24      3.6633  10.1410   5.8852   H         1 RES1   0.0000
    56 H25      2.7084   9.1547   6.6006   H         1 RES1   0.0000
    57 H26      2.8874  11.1248   7.8549   H         1 RES1   0.0000
    58 H27      2.3853  11.9428   6.6175   H         1 RES1   0.0000
    59 H28      1.4182  10.9440   7.3425   H         1 RES1   0.0000
    60 H29      2.9276  11.4889   3.4441   H         1 RES1   0.0000
    61 H30      1.8575  12.1012   4.3939   H         1 RES1   0.0000
    62 H31      1.1907  12.4777   2.1631   H         1 RES1   0.0000
    63 H32      1.2304  10.9291   1.9214   H         1 RES1   0.0000
    64 H33      0.1522  11.5463   2.8785   H         1 RES1   0.0000
    65 H34      3.4833   5.7133  -0.1353   H         1 RES1   0.0000
    66 H35      3.9572   7.1435   0.2320   H         1 RES1   0.0000
    67 H36      2.2965   7.2794  -1.3849   H         1 RES1   0.0000
    68 H37      1.3254   6.5051  -0.4254   H         1 RES1   0.0000
    69 H38      1.8047   7.9515  -0.0556   H         1 RES1   0.0000
    70 H39      1.1494   3.0175   1.3051   H         1 RES1   0.0000
    71 H40      1.9935   3.9028   0.3263   H         1 RES1   0.0000
    72 H41      2.6828   3.2220   1.5589   H         1 RES1   0.0000
    73 H42      0.8258   5.3205   1.7958   H         1 RES1   0.0000
    74 H43      1.5082   4.6098   3.0163   H         1 RES1   0.0000
    75 H44      5.2119   5.9078   2.3613   H         1 RES1   0.0000
    76 H45      4.6082   4.6160   1.7523   H         1 RES1   0.0000
    77 H46      5.3982   4.1671   3.9081   H         1 RES1   0.0000
    78 H47      4.4526   5.2844   4.4713   H         1 RES1   0.0000
    79 H48      3.8432   3.9776   3.8550   H         1 RES1   0.0000
@<TRIPOS>BOND
     1     1     2    1
     2     2    18    1
     3     3     1    1
     4     4    11    1
     5     5     8    1
     6     6    30    3
     7     7    31    3
     8     8     1   un
     9     9     1   un
    10    10     9    1
    11    11    10    3
    12    12     4    1
    13    13     4    1
    14    14     4    1
    15    15     5    1
    16    16     5    1
    17    17     5    1
    18    18    19    1
    19    19    52    1
    20    20     2    1
    21    21    20    1
    22    22     2    1
    23    23    22    1
    24    24     3    1
    25    25    24    1
    26    26    27    1
    27    27     3    1
    28    28     3    1
    29    29    28    1
    30    30     1    1
    31    31     1    1
    32    32    12    1
    33    33    12    1
    34    34    12    1
    35    35    13    1
    36    36    13    1
    37    37    13    1
    38    38    14    1
    39    39    14    1
    40    40    14    1
    41    41    15    1
    42    42    15    1
    43    43    15    1
    44    44    16    1
    45    45    16    1
    46    46    16    1
    47    47    17    1
    48    48    17    1
    49    49    17    1
    50    50    18    1
    51    51    18    1
    52    53    19    1
    53    54    19    1
    54    55    20    1
    55    56    20    1
    56    57    21    1
    57    58    21    1
    58    59    21    1
    59    60    22    1
    60    61    22    1
    61    62    23    1
    62    63    23    1
    63    64    23    1
    64    65    24    1
    65    66    24    1
    66    67    25    1
    67    68    25    1
    68    69    25    1
    69    70    26    1
    70    71    26    1
    71    72    26    1
    72    73    27    1
    73    74    27    1
    74    75    28    1
    75    76    28    1
    76    77    29    1
    77    78    29    1
    78    79    29    1
    79     8     9    3
@<TRIPOS>SUBSTRUCTURE
     1 RES1        1 GROUP             0 ****  ****    0  
@<TRIPOS>CRYSIN
   10.5890   12.4690   24.2000   90.0000   87.1000   90.0000    14     1
