@<TRIPOS>MOLECULE
ROGPEL
   154   168     4     0     0
SMALL
USER_CHARGES
****
Generated from the CSD

@<TRIPOS>ATOM
     1 Fe1     14.8382  10.9672  18.7690   Fe        1 RES1   2.0000
     2 O1      13.9571  12.9623  22.1948   O.3       1 RES1   0.0000
     3 O2      11.4239   8.9637  17.8581   O.3       1 RES1   0.0000
     4 N1      14.8382  12.8835  18.7690   N.ar      1 RES1   0.0000
     5 N2      14.3370  11.3455  20.6622   N.2       1 RES1   0.0000
     6 N3      14.8382   9.0517  18.7690   N.ar      1 RES1   0.0000
     7 N4      12.9402  10.5899  18.2650   N.2       1 RES1   0.0000
     8 C1      14.8382  15.6417  18.7690   C.ar      1 RES1   0.0000
     9 H1      14.8382  16.5916  18.7690   H         1 RES1   0.0000
    10 C2      14.5189  14.9523  19.9367   C.ar      1 RES1   0.0000
    11 H2      14.2983  15.4171  20.7360   H         1 RES1   0.0000
    12 C3      14.5338  13.5615  19.8967   C.ar      1 RES1   0.0000
    13 C4      14.2627  12.6003  20.9543   C.2       1 RES1   0.0000
    14 C5      13.8418  11.7066  22.9463   C.3       1 RES1   0.0000
    15 H3      12.9583  11.6456  23.3912   H         1 RES1   0.0000
    16 H4      14.5515  11.6456  23.6340   H         1 RES1   0.0000
    17 C6      14.0033  10.5778  21.8935   C.3       1 RES1   0.0000
    18 H5      14.7702   9.9880  22.1450   H         1 RES1   0.0000
    19 C7      12.7685   9.7415  21.6747   C.ar      1 RES1   0.0000
    20 C8      11.5467  10.3525  21.3992   C.ar      1 RES1   0.0000
    21 H6      11.4932  11.2999  21.3692   H         1 RES1   0.0000
    22 C9      10.4087   9.5933  21.1682   C.ar      1 RES1   0.0000
    23 H7       9.5834  10.0190  20.9738   H         1 RES1   0.0000
    24 C10     10.4836   8.2136  21.2208   C.ar      1 RES1   0.0000
    25 H8       9.7051   7.6908  21.0689   H         1 RES1   0.0000
    26 C11     11.6911   7.5913  21.4936   C.ar      1 RES1   0.0000
    27 H9      11.7390   6.6434  21.5268   H         1 RES1   0.0000
    28 C12     12.8316   8.3509  21.7193   C.ar      1 RES1   0.0000
    29 H10     13.6586   7.9198  21.9047   H         1 RES1   0.0000
    30 C13     14.8382   6.2915  18.7690   C.ar      1 RES1   0.0000
    31 H11     14.8382   5.3419  18.7690   H         1 RES1   0.0000
    32 C14     13.6738   6.9835  18.4512   C.ar      1 RES1   0.0000
    33 H12     12.8719   6.5193  18.2385   H         1 RES1   0.0000
    34 C15     13.7176   8.3658  18.4520   C.ar      1 RES1   0.0000
    35 C16     12.6617   9.3376  18.1719   C.2       1 RES1   0.0000
    36 C17     10.6858  10.2262  17.6509   C.3       1 RES1   0.0000
    37 H13      9.8740  10.2554  18.2160   H         1 RES1   0.0000
    38 H14     10.4191  10.3248  16.7019   H         1 RES1   0.0000
    39 C18     11.6793  11.3396  18.0608   C.3       1 RES1   0.0000
    40 H15     11.3873  11.7194  18.9392   H         1 RES1   0.0000
    41 C19     11.8221  12.4700  17.0726   C.ar      1 RES1   0.0000
    42 C20     11.5702  13.7752  17.4978   C.ar      1 RES1   0.0000
    43 H16     11.3340  13.9472  18.4012   H         1 RES1   0.0000
    44 C21     11.6666  14.8099  16.5968   C.ar      1 RES1   0.0000
    45 H17     11.4868  15.6963  16.8846   H         1 RES1   0.0000
    46 C22     12.0175  14.5928  15.2955   C.ar      1 RES1   0.0000
    47 H18     12.0714  15.3196  14.6849   H         1 RES1   0.0000
    48 C23     12.2924  13.3075  14.8738   C.ar      1 RES1   0.0000
    49 H19     12.5482  13.1524  13.9717   H         1 RES1   0.0000
    50 C24     12.1964  12.2306  15.7657   C.ar      1 RES1   0.0000
    51 H20     12.3859  11.3457  15.4732   H         1 RES1   0.0000
    52 O1A     15.7193  12.9623  15.3433   O.3       1 RES1   0.0000
    53 N2A     15.3395  11.3455  16.8759   N.2       1 RES1   0.0000
    54 C2A     15.1575  14.9523  17.6014   C.ar      1 RES1   0.0000
    55 H2A     15.3781  15.4171  16.8020   H         1 RES1   0.0000
    56 C3A     15.1427  13.5615  17.6414   C.ar      1 RES1   0.0000
    57 C4A     15.4137  12.6003  16.5838   C.2       1 RES1   0.0000
    58 C5A     15.8346  11.7066  14.5918   C.3       1 RES1   0.0000
    59 H3A     16.7181  11.6456  14.1469   H         1 RES1   0.0000
    60 H4A     15.1249  11.6456  13.9041   H         1 RES1   0.0000
    61 C6A     15.6732  10.5778  15.6446   C.3       1 RES1   0.0000
    62 H5A     14.9062   9.9880  15.3931   H         1 RES1   0.0000
    63 C7A     16.9079   9.7415  15.8633   C.ar      1 RES1   0.0000
    64 C8A     18.1298  10.3525  16.1389   C.ar      1 RES1   0.0000
    65 H6A     18.1832  11.2999  16.1689   H         1 RES1   0.0000
    66 C9A     19.2678   9.5933  16.3699   C.ar      1 RES1   0.0000
    67 H7A     20.0930  10.0190  16.5643   H         1 RES1   0.0000
    68 C10A    19.1928   8.2136  16.3173   C.ar      1 RES1   0.0000
    69 H8A     19.9713   7.6908  16.4692   H         1 RES1   0.0000
    70 C11A    17.9853   7.5913  16.0445   C.ar      1 RES1   0.0000
    71 H9A     17.9374   6.6434  16.0112   H         1 RES1   0.0000
    72 C12A    16.8448   8.3509  15.8188   C.ar      1 RES1   0.0000
    73 H10A    16.0178   7.9198  15.6334   H         1 RES1   0.0000
    74 O2A     18.2525   8.9637  19.6800   O.3       1 RES1   0.0000
    75 N4A     16.7362  10.5899  19.2731   N.2       1 RES1   0.0000
    76 C14A    16.0026   6.9835  19.0869   C.ar      1 RES1   0.0000
    77 H12A    16.8045   6.5193  19.2996   H         1 RES1   0.0000
    78 C15A    15.9588   8.3658  19.0861   C.ar      1 RES1   0.0000
    79 C16A    17.0148   9.3376  19.3662   C.2       1 RES1   0.0000
    80 C17A    18.9906  10.2262  19.8872   C.3       1 RES1   0.0000
    81 H13A    19.8024  10.2554  19.3221   H         1 RES1   0.0000
    82 H14A    19.2573  10.3248  20.8361   H         1 RES1   0.0000
    83 C18A    17.9971  11.3396  19.4773   C.3       1 RES1   0.0000
    84 H15A    18.2891  11.7194  18.5989   H         1 RES1   0.0000
    85 C19A    17.8543  12.4700  20.4655   C.ar      1 RES1   0.0000
    86 C20A    18.1063  13.7752  20.0403   C.ar      1 RES1   0.0000
    87 H16A    18.3424  13.9472  19.1369   H         1 RES1   0.0000
    88 C21A    18.0098  14.8099  20.9413   C.ar      1 RES1   0.0000
    89 H17A    18.1897  15.6963  20.6535   H         1 RES1   0.0000
    90 C22A    17.6589  14.5928  22.2426   C.ar      1 RES1   0.0000
    91 H18A    17.6050  15.3196  22.8532   H         1 RES1   0.0000
    92 C23A    17.3840  13.3075  22.6642   C.ar      1 RES1   0.0000
    93 H19A    17.1282  13.1524  23.5664   H         1 RES1   0.0000
    94 C24A    17.4800  12.2306  21.7723   C.ar      1 RES1   0.0000
    95 H20A    17.2906  11.3457  22.0649   H         1 RES1   0.0000
    96 O3      11.9411   9.1931  14.3133   O.2       2 RES2   0.0000
    97 O4      13.0990   7.8001  15.3759   O.2       2 RES2   0.0000
    98 N5      12.1052   8.0971  14.7765   N.pl3     2 RES2   0.0000
    99 C25     11.0508   7.1280  14.6093   C.3       2 RES2   0.0000
   100 H21     10.4834   7.1221  15.4081   H         2 RES2   0.0000
   101 H22     11.4411   6.2386  14.4797   H         2 RES2   0.0000
   102 H23     10.5107   7.3658  13.8265   H         2 RES2   0.0000
   103 O5      12.6649   5.5546  12.2006   O.2       3 RES3   0.0000
   104 O6      13.4377   4.0153  10.8983   O.2       3 RES3   0.0000
   105 N6      13.5782   4.9076  11.7199   N.pl3     3 RES3   0.0000
   106 C26     14.9535   5.2090  12.1741   C.3       3 RES3   0.0000
   107 H24     15.3942   5.7866  11.5167   H         3 RES3   0.0000
   108 H25     15.4572   4.3743  12.2674   H         3 RES3   0.0000
   109 H26     14.9181   5.6669  13.0407   H         3 RES3   0.0000
   110 C27      7.4251  11.3745  14.3921   C.ar      4 RES4   0.0000
   111 C28      6.7742  12.3838  13.6836   C.ar      4 RES4   0.0000
   112 H27      5.8478  12.5216  13.8415   H         4 RES4   0.0000
   113 C29      7.4156  13.1986  12.7552   C.ar      4 RES4   0.0000
   114 H28      6.9259  13.8704  12.2950   H         4 RES4   0.0000
   115 C30      8.7591  13.0333  12.5017   C.ar      4 RES4   0.0000
   116 H29      9.2056  13.5941  11.8796   H         4 RES4   0.0000
   117 C31      9.4492  12.0339  13.1706   C.ar      4 RES4   0.0000
   118 H30     10.3748  11.9041  13.0007   H         4 RES4   0.0000
   119 C32      8.7931  11.2241  14.0853   C.ar      4 RES4   0.0000
   120 H31      9.2867  10.5405  14.5222   H         4 RES4   0.0000
   121 C33      7.2058   8.8895  15.3413   C.ar      4 RES4   0.0000
   122 C34      7.5231   7.9949  16.3709   C.ar      4 RES4   0.0000
   123 H32      7.5103   8.3098  17.2675   H         4 RES4   0.0000
   124 C35      7.8580   6.6619  16.1381   C.ar      4 RES4   0.0000
   125 H33      8.0580   6.0909  16.8696   H         4 RES4   0.0000
   126 C36      7.9024   6.1648  14.8466   C.ar      4 RES4   0.0000
   127 H34      8.1307   5.2562  14.6849   H         4 RES4   0.0000
   128 C37      7.6102   7.0142  13.7983   C.ar      4 RES4   0.0000
   129 H35      7.6343   6.6907  12.9056   H         4 RES4   0.0000
   130 C38      7.2820   8.3394  14.0468   C.ar      4 RES4   0.0000
   131 H36      7.0993   8.9052  13.3060   H         4 RES4   0.0000
   132 C39      5.0694  10.5253  15.3643   C.ar      4 RES4   0.0000
   133 C40      4.3204  11.5822  15.8996   C.ar      4 RES4   0.0000
   134 H37      4.7656  12.2291  16.4342   H         4 RES4   0.0000
   135 C41      2.9542  11.7283  15.6857   C.ar      4 RES4   0.0000
   136 H38      2.4876  12.4581  16.0763   H         4 RES4   0.0000
   137 C42      2.2737  10.8109  14.9056   C.ar      4 RES4   0.0000
   138 H39      1.3422  10.9084  14.7500   H         4 RES4   0.0000
   139 C43      2.9678   9.7590  14.3578   C.ar      4 RES4   0.0000
   140 H40      2.5135   9.1253  13.8140   H         4 RES4   0.0000
   141 C44      4.3360   9.6157  14.5951   C.ar      4 RES4   0.0000
   142 H41      4.7872   8.8697  14.2194   H         4 RES4   0.0000
   143 C45      7.0814  11.0310  17.0390   C.ar      4 RES4   0.0000
   144 C46      7.9869  12.0726  17.2745   C.ar      4 RES4   0.0000
   145 H42      8.4543  12.4477  16.5368   H         4 RES4   0.0000
   146 C47      8.2274  12.5802  18.5513   C.ar      4 RES4   0.0000
   147 H43      8.8350  13.3001  18.6664   H         4 RES4   0.0000
   148 C48      7.5857  12.0419  19.6522   C.ar      4 RES4   0.0000
   149 H44      7.7636  12.3753  20.5233   H         4 RES4   0.0000
   150 C49      6.6816  11.0112  19.4640   C.ar      4 RES4   0.0000
   151 H45      6.2289  10.6321  20.2080   H         4 RES4   0.0000
   152 C50      6.4399  10.5311  18.1787   C.ar      4 RES4   0.0000
   153 H46      5.8079   9.8300  18.0708   H         4 RES4   0.0000
   154 B1       6.7126  10.4472  15.5455   B         4 RES4  -1.0000
@<TRIPOS>BOND
     1     1     4    1
     2     2    13    1
     3     3    35    1
     4     4    12   ar
     5     5     1    1
     6     6     1    1
     7     7     1    1
     8     8     9    1
     9    10     8   ar
    10    11    10    1
    11    12    10   ar
    12    13     5    2
    13    14     2    1
    14    15    14    1
    15    16    14    1
    16    17     5    1
    17    18    17    1
    18    19    17    1
    19    20    19   ar
    20    21    20    1
    21    22    20   ar
    22    23    22    1
    23    24    22   ar
    24    25    24    1
    25    26    24   ar
    26    27    26    1
    27    28    19   ar
    28    29    28    1
    29    30    31    1
    30    32    30   ar
    31    33    32    1
    32    34     6   ar
    33    35     7    2
    34    36     3    1
    35    37    36    1
    36    38    36    1
    37    39     7    1
    38    40    39    1
    39    41    39    1
    40    42    41   ar
    41    43    42    1
    42    44    42   ar
    43    45    44    1
    44    46    44   ar
    45    47    46    1
    46    48    46   ar
    47    49    48    1
    48    50    41   ar
    49    51    50    1
    50    52    57    1
    51    53     1    1
    52    54     8   ar
    53    55    54    1
    54    56     4   ar
    55    57    53    2
    56    58    52    1
    57    59    58    1
    58    60    58    1
    59    61    53    1
    60    62    61    1
    61    63    61    1
    62    64    63   ar
    63    65    64    1
    64    66    64   ar
    65    67    66    1
    66    68    66   ar
    67    69    68    1
    68    70    68   ar
    69    71    70    1
    70    72    63   ar
    71    73    72    1
    72    74    79    1
    73    75     1    1
    74    76    30   ar
    75    77    76    1
    76    78     6   ar
    77    79    75    2
    78    80    74    1
    79    81    80    1
    80    82    80    1
    81    83    75    1
    82    84    83    1
    83    85    83    1
    84    86    85   ar
    85    87    86    1
    86    88    86   ar
    87    89    88    1
    88    90    88   ar
    89    91    90    1
    90    92    90   ar
    91    93    92    1
    92    94    85   ar
    93    95    94    1
    94    12    13    1
    95    14    17    1
    96    26    28   ar
    97    32    34   ar
    98    34    35    1
    99    36    39    1
   100    48    50   ar
   101    54    56   ar
   102    56    57    1
   103    58    61    1
   104    70    72   ar
   105    76    78   ar
   106    78    79    1
   107    80    83    1
   108    92    94   ar
   109    96    98    2
   110    97    98    2
   111    98    99    1
   112    99   100    1
   113   101    99    1
   114   102    99    1
   115   103   105    2
   116   104   105    2
   117   105   106    1
   118   106   107    1
   119   108   106    1
   120   109   106    1
   121   110   111   ar
   122   111   112    1
   123   113   111   ar
   124   114   113    1
   125   115   113   ar
   126   116   115    1
   127   117   115   ar
   128   118   117    1
   129   119   110   ar
   130   120   119    1
   131   121   122   ar
   132   122   123    1
   133   124   122   ar
   134   125   124    1
   135   126   124   ar
   136   127   126    1
   137   128   126   ar
   138   129   128    1
   139   130   121   ar
   140   131   130    1
   141   132   133   ar
   142   133   134    1
   143   135   133   ar
   144   136   135    1
   145   137   135   ar
   146   138   137    1
   147   139   137   ar
   148   140   139    1
   149   141   132   ar
   150   142   141    1
   151   143   144   ar
   152   144   145    1
   153   146   144   ar
   154   147   146    1
   155   148   146   ar
   156   149   148    1
   157   150   148   ar
   158   151   150    1
   159   152   143   ar
   160   153   152    1
   161   154   110    1
   162   117   119   ar
   163   121   154    1
   164   128   130   ar
   165   132   154    1
   166   139   141   ar
   167   143   154    1
   168   150   152   ar
@<TRIPOS>SUBSTRUCTURE
     1 RES1        1 GROUP             0 ****  ****    0  
     2 RES2       96 GROUP             0 ****  ****    0  
     3 RES3      103 GROUP             0 ****  ****    0  
     4 RES4      110 GROUP             0 ****  ****    0  
@<TRIPOS>CRYSIN
   22.8710   14.7730   27.2210   90.0000  113.1700   90.0000    15     1
