@<TRIPOS>MOLECULE
ROGPIP
   203   219     6     0     0
SMALL
USER_CHARGES
****
Generated from the CSD

@<TRIPOS>ATOM
     1 Fe1      6.6750   4.5608   6.5078   Fe        1 RES1   2.0000
     2 O1       8.4023   8.3620   5.8609   O.3       1 RES1   0.0000
     3 O2       2.4981   4.6481   7.1903   O.3       1 RES1   0.0000
     4 O3       8.6876   2.8904   9.8589   O.3       1 RES1   0.0000
     5 O4       7.2013   2.2901   2.9601   O.3       1 RES1   0.0000
     6 N1       8.0958   6.1518   6.1691   N.2       1 RES1   0.0000
     7 N2       5.5373   6.3497   6.5045   N.ar      1 RES1   0.0000
     8 N3       4.6190   3.9611   6.8595   N.2       1 RES1   0.0000
     9 N4       7.4444   4.2396   8.5421   N.2       1 RES1   0.0000
    10 N5       7.8012   2.7698   6.4234   N.ar      1 RES1   0.0000
    11 N6       6.5801   3.8894   4.4286   N.2       1 RES1   0.0000
    12 C1       9.5613   6.2794   5.9570   C.3       1 RES1   0.0000
    13 H1      10.0285   6.1155   6.8253   H         1 RES1   0.0000
    14 C2      10.0371   5.2640   4.9469   C.ar      1 RES1   0.0000
    15 C3      10.8766   4.2356   5.3523   C.ar      1 RES1   0.0000
    16 H2      11.1644   4.1729   6.2555   H         1 RES1   0.0000
    17 C4      11.2903   3.2892   4.4004   C.ar      1 RES1   0.0000
    18 H3      11.8857   2.5985   4.6690   H         1 RES1   0.0000
    19 C5      10.8741   3.3296   3.1303   C.ar      1 RES1   0.0000
    20 H4      11.1680   2.6710   2.5102   H         1 RES1   0.0000
    21 C6      10.0169   4.3287   2.7161   C.ar      1 RES1   0.0000
    22 H5       9.7109   4.3523   1.8174   H         1 RES1   0.0000
    23 C7       9.6036   5.3050   3.6233   C.ar      1 RES1   0.0000
    24 H6       9.0231   6.0002   3.3386   H         1 RES1   0.0000
    25 C8       9.7169   7.7753   5.5818   C.3       1 RES1   0.0000
    26 H7      10.4175   8.2053   6.1300   H         1 RES1   0.0000
    27 H8       9.9511   7.8757   4.6264   H         1 RES1   0.0000
    28 C9       7.5958   7.3287   6.1066   C.2       1 RES1   0.0000
    29 C10      6.1481   7.5290   6.3002   C.ar      1 RES1   0.0000
    30 C11      5.4505   8.7207   6.2721   C.ar      1 RES1   0.0000
    31 H9       5.8966   9.5502   6.1425   H         1 RES1   0.0000
    32 C12      4.0650   8.6605   6.4415   C.ar      1 RES1   0.0000
    33 H10      3.5521   9.4602   6.4162   H         1 RES1   0.0000
    34 C13      3.4307   7.4441   6.6448   C.ar      1 RES1   0.0000
    35 H11      2.4877   7.3950   6.7550   H         1 RES1   0.0000
    36 C14      4.2114   6.3063   6.6842   C.ar      1 RES1   0.0000
    37 C15      3.7727   4.9197   6.9142   C.2       1 RES1   0.0000
    38 C16      2.4536   3.2012   7.4654   C.3       1 RES1   0.0000
    39 H12      1.7756   2.7556   6.8981   H         1 RES1   0.0000
    40 H13      2.2401   3.0300   8.4168   H         1 RES1   0.0000
    41 C17      3.8768   2.7021   7.1208   C.3       1 RES1   0.0000
    42 H14      3.8394   2.1648   6.2781   H         1 RES1   0.0000
    43 C18      4.5895   1.9061   8.1798   C.ar      1 RES1   0.0000
    44 C19      4.6919   2.3985   9.4781   C.ar      1 RES1   0.0000
    45 H15      4.2653   3.2164   9.7071   H         1 RES1   0.0000
    46 C20      5.4113   1.7048  10.4408   C.ar      1 RES1   0.0000
    47 H16      5.4761   2.0441  11.3262   H         1 RES1   0.0000
    48 C21      6.0306   0.5151  10.1044   C.ar      1 RES1   0.0000
    49 H17      6.5273   0.0375  10.7589   H         1 RES1   0.0000
    50 C22      5.9312   0.0195   8.8217   C.ar      1 RES1   0.0000
    51 H18      6.3589  -0.7979   8.5975   H         1 RES1   0.0000
    52 C23      5.2077   0.7091   7.8550   C.ar      1 RES1   0.0000
    53 H19      5.1373   0.3615   6.9734   H         1 RES1   0.0000
    54 C24      7.4511   4.9300   9.8692   C.3       1 RES1   0.0000
    55 H20      6.5128   5.0286  10.1991   H         1 RES1   0.0000
    56 C25      8.0793   6.3020   9.7154   C.ar      1 RES1   0.0000
    57 C26      7.2760   7.4288   9.6262   C.ar      1 RES1   0.0000
    58 H21      6.3330   7.3379   9.7020   H         1 RES1   0.0000
    59 C27      7.8282   8.6887   9.4272   C.ar      1 RES1   0.0000
    60 H22      7.2652   9.4513   9.3632   H         1 RES1   0.0000
    61 C28      9.1938   8.8246   9.3212   C.ar      1 RES1   0.0000
    62 H23      9.5782   9.6840   9.1900   H         1 RES1   0.0000
    63 C29     10.0057   7.7097   9.4066   C.ar      1 RES1   0.0000
    64 H24     10.9483   7.8045   9.3330   H         1 RES1   0.0000
    65 C30      9.4560   6.4553   9.5986   C.ar      1 RES1   0.0000
    66 H25     10.0213   5.6940   9.6518   H         1 RES1   0.0000
    67 C31      8.2081   3.9284  10.7679   C.3       1 RES1   0.0000
    68 H26      8.9659   4.3713  11.2258   H         1 RES1   0.0000
    69 H27      7.6030   3.5440  11.4517   H         1 RES1   0.0000
    70 C32      8.1491   3.1832   8.6721   C.2       1 RES1   0.0000
    71 C33      8.3913   2.2908   7.5297   C.ar      1 RES1   0.0000
    72 C34      9.1199   1.1144   7.5299   C.ar      1 RES1   0.0000
    73 H28      9.5341   0.7923   8.3214   H         1 RES1   0.0000
    74 C35      9.2238   0.4232   6.3336   C.ar      1 RES1   0.0000
    75 H29      9.7095  -0.3928   6.3007   H         1 RES1   0.0000
    76 C36      8.6215   0.9116   5.1786   C.ar      1 RES1   0.0000
    77 H30      8.6935   0.4489   4.3527   H         1 RES1   0.0000
    78 C37      7.9120   2.0931   5.2770   C.ar      1 RES1   0.0000
    79 C38      7.2018   2.8000   4.1901   C.2       1 RES1   0.0000
    80 C39      6.4184   3.2292   2.1548   C.3       1 RES1   0.0000
    81 H31      5.6473   2.7744   1.7371   H         1 RES1   0.0000
    82 H32      6.9779   3.6317   1.4434   H         1 RES1   0.0000
    83 C40      5.9420   4.3140   3.1554   C.3       1 RES1   0.0000
    84 H33      6.2993   5.2067   2.8817   H         1 RES1   0.0000
    85 C41      4.4419   4.3993   3.3454   C.ar      1 RES1   0.0000
    86 C42      3.7759   5.6034   3.2520   C.ar      1 RES1   0.0000
    87 H34      4.2584   6.3949   3.0499   H         1 RES1   0.0000
    88 C43      2.3948   5.6663   3.4521   C.ar      1 RES1   0.0000
    89 H35      1.9456   6.5004   3.3863   H         1 RES1   0.0000
    90 C44      1.6822   4.5177   3.7473   C.ar      1 RES1   0.0000
    91 H36      0.7423   4.5608   3.8758   H         1 RES1   0.0000
    92 C45      2.3427   3.3090   3.8565   C.ar      1 RES1   0.0000
    93 H37      1.8607   2.5189   4.0716   H         1 RES1   0.0000
    94 C46      3.7123   3.2556   3.6519   C.ar      1 RES1   0.0000
    95 H38      4.1615   2.4220   3.7227   H         1 RES1   0.0000
    96 N7       3.7283   6.5710   9.8085   N.1       2 RES2   0.0000
    97 C47      2.8105   7.6714  11.9294   C.3       2 RES2   0.0000
    98 H39      3.0204   8.6279  11.9362   H         2 RES2   0.0000
    99 H40      3.2195   7.2427  12.7093   H         2 RES2   0.0000
   100 H41      1.8389   7.5488  11.9613   H         2 RES2   0.0000
   101 C48      3.3284   7.0745  10.7290   C.1       2 RES2   0.0000
   102 N8       0.1831   1.6213   1.3254   N.1       3 RES3   0.0000
   103 C49      1.9032   3.1260   0.3007   C.3       3 RES3   0.0000
   104 H42      1.5259   3.5452  -0.4995   H         3 RES3   0.0000
   105 H43      2.7013   2.6126   0.0552   H         3 RES3   0.0000
   106 H44      2.1475   3.8207   0.9464   H         3 RES3   0.0000
   107 C50      0.9461   2.2637   0.8778   C.1       3 RES3   0.0000
   108 N9       6.9054   7.9412   3.0873   N.1       4 RES4   0.0000
   109 C51      7.7926   9.7075   1.4685   C.3       4 RES4   0.0000
   110 H45      8.3800   9.2830   0.8083   H         4 RES4   0.0000
   111 H46      8.2889  10.3977   1.9530   H         4 RES4   0.0000
   112 H47      7.0292  10.1153   1.0091   H         4 RES4   0.0000
   113 C52      7.3175   8.7162   2.3948   C.1       4 RES4   0.0000
   114 C53     12.9928   8.2992   1.9253   C.ar      5 RES5   0.0000
   115 C54     14.0754   7.8463   1.1823   C.ar      5 RES5   0.0000
   116 H48     14.9282   8.2389   1.3354   H         5 RES5   0.0000
   117 C55     13.9639   6.8451   0.2254   C.ar      5 RES5   0.0000
   118 H49     14.7382   6.5682  -0.2510   H         5 RES5   0.0000
   119 C56     12.7825   6.2634  -0.0361   C.ar      5 RES5   0.0000
   120 H50     12.7124   5.5799  -0.6928   H         5 RES5   0.0000
   121 C57     11.6628   6.6818   0.6730   C.ar      5 RES5   0.0000
   122 H51     10.8180   6.2824   0.5020   H         5 RES5   0.0000
   123 C58     11.7731   7.6806   1.6296   C.ar      5 RES5   0.0000
   124 H52     10.9931   7.9542   2.0986   H         5 RES5   0.0000
   125 C59     13.0516   8.7918   4.5844   C.ar      5 RES5   0.0000
   126 C60     12.9889   7.4165   4.8259   C.ar      5 RES5   0.0000
   127 H53     12.8760   6.8303   4.0867   H         5 RES5   0.0000
   128 C61     13.0858   6.8665   6.1044   C.ar      5 RES5   0.0000
   129 H54     13.0629   5.9238   6.2178   H         5 RES5   0.0000
   130 C62     13.2144   7.6918   7.2091   C.ar      5 RES5   0.0000
   131 H55     13.2751   7.3247   8.0829   H         5 RES5   0.0000
   132 C63     13.2558   9.0623   7.0179   C.ar      5 RES5   0.0000
   133 H56     13.3266   9.6452   7.7641   H         5 RES5   0.0000
   134 C64     13.1894   9.5823   5.7276   C.ar      5 RES5   0.0000
   135 H57     13.2418  10.5257   5.6204   H         5 RES5   0.0000
   136 C65     14.5486  10.2441   2.9382   C.ar      5 RES5   0.0000
   137 C66     15.7208   9.7082   3.4882   C.ar      5 RES5   0.0000
   138 H58     15.6543   8.9195   4.0139   H         5 RES5   0.0000
   139 C67     16.9754  10.2754   3.3030   C.ar      5 RES5   0.0000
   140 H59     17.7414   9.8690   3.6926   H         5 RES5   0.0000
   141 C68     17.1168  11.4251   2.5569   C.ar      5 RES5   0.0000
   142 H60     17.9729  11.8179   2.4274   H         5 RES5   0.0000
   143 C69     16.0001  11.9889   2.0067   C.ar      5 RES5   0.0000
   144 H61     16.0838  12.7791   1.4835   H         5 RES5   0.0000
   145 C70     14.7329  11.4226   2.2005   C.ar      5 RES5   0.0000
   146 H62     13.9741  11.8497   1.8199   H         5 RES5   0.0000
   147 C71     11.8585  10.5214   2.8436   C.ar      5 RES5   0.0000
   148 C72     11.0115  11.0331   3.8191   C.ar      5 RES5   0.0000
   149 H63     11.1288  10.7414   4.7167   H         5 RES5   0.0000
   150 C73     10.0000  11.9522   3.5495   C.ar      5 RES5   0.0000
   151 H64      9.4553  12.2755   4.2574   H         5 RES5   0.0000
   152 C74      9.7846  12.3934   2.2620   C.ar      5 RES5   0.0000
   153 H65      9.0966  13.0194   2.0709   H         5 RES5   0.0000
   154 C75     10.5955  11.9039   1.2503   C.ar      5 RES5   0.0000
   155 H66     10.4671  12.1960   0.3565   H         5 RES5   0.0000
   156 C76     11.5941  10.9908   1.5418   C.ar      5 RES5   0.0000
   157 H67     12.1295  10.6645   0.8284   H         5 RES5   0.0000
   158 B1      13.0932   9.4697   3.0841   B         5 RES5  -1.0000
   159 C77     13.6724   0.1172   8.1510   C.ar      6 RES6   0.0000
   160 C78     12.8136   0.2942   7.0500   C.ar      6 RES6   0.0000
   161 H68     11.9156   0.5573   7.2169   H         6 RES6   0.0000
   162 C79     13.2088   0.1024   5.7314   C.ar      6 RES6   0.0000
   163 H69     12.5926   0.2458   5.0230   H         6 RES6   0.0000
   164 C80     14.5077  -0.2969   5.4552   C.ar      6 RES6   0.0000
   165 H70     14.7923  -0.4274   4.5586   H         6 RES6   0.0000
   166 C81     15.3819  -0.5022   6.5060   C.ar      6 RES6   0.0000
   167 H71     16.2724  -0.7882   6.3333   H         6 RES6   0.0000
   168 C82     14.9633  -0.2896   7.8176   C.ar      6 RES6   0.0000
   169 H72     15.5873  -0.4294   8.5197   H         6 RES6   0.0000
   170 C83     13.0682   2.0432   9.9523   C.ar      6 RES6   0.0000
   171 C84     13.3227   2.6113  11.1994   C.ar      6 RES6   0.0000
   172 H73     13.5692   2.0347  11.9111   H         6 RES6   0.0000
   173 C85     13.2377   3.9760  11.4617   C.ar      6 RES6   0.0000
   174 H74     13.4226   4.3089  12.3328   H         6 RES6   0.0000
   175 C86     12.8830   4.8446  10.4473   C.ar      6 RES6   0.0000
   176 H75     12.8373   5.7811  10.6057   H         6 RES6   0.0000
   177 C87     12.5969   4.3282   9.2018   C.ar      6 RES6   0.0000
   178 H76     12.3356   4.9105   8.4971   H         6 RES6   0.0000
   179 C88     12.6870   2.9642   8.9701   C.ar      6 RES6   0.0000
   180 H77     12.4805   2.6389   8.1005   H         6 RES6   0.0000
   181 C89     11.6401  -0.2401   9.9079   C.ar      6 RES6   0.0000
   182 C90     11.2683  -1.4468   9.2911   C.ar      6 RES6   0.0000
   183 H78     11.8645  -1.8405   8.6653   H         6 RES6   0.0000
   184 C91     10.0664  -2.0872   9.5567   C.ar      6 RES6   0.0000
   185 H79      9.8573  -2.9043   9.1222   H         6 RES6   0.0000
   186 C92      9.1722  -1.5313  10.4581   C.ar      6 RES6   0.0000
   187 H80      8.3422  -1.9561  10.6359   H         6 RES6   0.0000
   188 C93      9.5045  -0.3564  11.0910   C.ar      6 RES6   0.0000
   189 H81      8.9086   0.0212  11.7278   H         6 RES6   0.0000
   190 C94     10.7073   0.2809  10.8073   C.ar      6 RES6   0.0000
   191 H82     10.9022   1.1031  11.2433   H         6 RES6   0.0000
   192 C95     14.1428  -0.3028  10.7819   C.ar      6 RES6   0.0000
   193 C96     13.8096  -1.4573  11.5072   C.ar      6 RES6   0.0000
   194 H83     12.9469  -1.8361  11.3839   H         6 RES6   0.0000
   195 C97     14.6824  -2.0736  12.3995   C.ar      6 RES6   0.0000
   196 H84     14.4140  -2.8589  12.8624   H         6 RES6   0.0000
   197 C98     15.9413  -1.5403  12.6102   C.ar      6 RES6   0.0000
   198 H85     16.5387  -1.9506  13.2239   H         6 RES6   0.0000
   199 C99     16.3217  -0.4024  11.9171   C.ar      6 RES6   0.0000
   200 H86     17.1851  -0.0320  12.0466   H         6 RES6   0.0000
   201 C100    15.4323   0.1929  11.0297   C.ar      6 RES6   0.0000
   202 H87     15.7134   0.9746  10.5681   H         6 RES6   0.0000
   203 B2      13.1325   0.4125   9.6895   B         6 RES6  -1.0000
@<TRIPOS>BOND
     1     1     6    1
     2     2    25    1
     3     3    37    1
     4     4    67    1
     5     5    79    1
     6     6    12    1
     7     7     1    1
     8     8     1    1
     9     9     1    1
    10    10     1    1
    11    11     1    1
    12    12    13    1
    13    14    12    1
    14    15    14   ar
    15    16    15    1
    16    17    15   ar
    17    18    17    1
    18    19    17   ar
    19    20    19    1
    20    21    19   ar
    21    22    21    1
    22    23    14   ar
    23    24    23    1
    24    25    12    1
    25    26    25    1
    26    27    25    1
    27    28     2    1
    28    29     7   ar
    29    30    29   ar
    30    31    30    1
    31    32    30   ar
    32    33    32    1
    33    34    32   ar
    34    35    34    1
    35    36     7   ar
    36    37     8    2
    37    38     3    1
    38    39    38    1
    39    40    38    1
    40    41     8    1
    41    42    41    1
    42    43    41    1
    43    44    43   ar
    44    45    44    1
    45    46    44   ar
    46    47    46    1
    47    48    46   ar
    48    49    48    1
    49    50    48   ar
    50    51    50    1
    51    52    43   ar
    52    53    52    1
    53    54     9    1
    54    55    54    1
    55    56    54    1
    56    57    56   ar
    57    58    57    1
    58    59    57   ar
    59    60    59    1
    60    61    59   ar
    61    62    61    1
    62    63    61   ar
    63    64    63    1
    64    65    56   ar
    65    66    65    1
    66    67    54    1
    67    68    67    1
    68    69    67    1
    69    70     4    1
    70    71    10   ar
    71    72    71   ar
    72    73    72    1
    73    74    72   ar
    74    75    74    1
    75    76    74   ar
    76    77    76    1
    77    78    10   ar
    78    79    11    2
    79    80     5    1
    80    81    80    1
    81    82    80    1
    82    83    11    1
    83    84    83    1
    84    85    83    1
    85    86    85   ar
    86    87    86    1
    87    88    86   ar
    88    89    88    1
    89    90    88   ar
    90    91    90    1
    91    92    90   ar
    92    93    92    1
    93    94    85   ar
    94    95    94    1
    95     6    28    2
    96     9    70    2
    97    21    23   ar
    98    28    29    1
    99    34    36   ar
   100    36    37    1
   101    38    41    1
   102    50    52   ar
   103    63    65   ar
   104    70    71    1
   105    76    78   ar
   106    78    79    1
   107    80    83    1
   108    92    94   ar
   109    96   101    3
   110    97    98    1
   111    99    97    1
   112   100    97    1
   113   101    97    1
   114   102   107    3
   115   103   104    1
   116   105   103    1
   117   106   103    1
   118   107   103    1
   119   108   113    3
   120   109   110    1
   121   111   109    1
   122   112   109    1
   123   113   109    1
   124   114   115   ar
   125   115   116    1
   126   117   115   ar
   127   118   117    1
   128   119   117   ar
   129   120   119    1
   130   121   119   ar
   131   122   121    1
   132   123   114   ar
   133   124   123    1
   134   125   126   ar
   135   126   127    1
   136   128   126   ar
   137   129   128    1
   138   130   128   ar
   139   131   130    1
   140   132   130   ar
   141   133   132    1
   142   134   125   ar
   143   135   134    1
   144   136   137   ar
   145   137   138    1
   146   139   137   ar
   147   140   139    1
   148   141   139   ar
   149   142   141    1
   150   143   141   ar
   151   144   143    1
   152   145   136   ar
   153   146   145    1
   154   147   148   ar
   155   148   149    1
   156   150   148   ar
   157   151   150    1
   158   152   150   ar
   159   153   152    1
   160   154   152   ar
   161   155   154    1
   162   156   147   ar
   163   157   156    1
   164   158   114    1
   165   121   123   ar
   166   125   158    1
   167   132   134   ar
   168   136   158    1
   169   143   145   ar
   170   147   158    1
   171   154   156   ar
   172   159   160   ar
   173   160   161    1
   174   162   160   ar
   175   163   162    1
   176   164   162   ar
   177   165   164    1
   178   166   164   ar
   179   167   166    1
   180   168   159   ar
   181   169   168    1
   182   170   171   ar
   183   171   172    1
   184   173   171   ar
   185   174   173    1
   186   175   173   ar
   187   176   175    1
   188   177   175   ar
   189   178   177    1
   190   179   170   ar
   191   180   179    1
   192   181   182   ar
   193   182   183    1
   194   184   182   ar
   195   185   184    1
   196   186   184   ar
   197   187   186    1
   198   188   186   ar
   199   189   188    1
   200   190   181   ar
   201   191   190    1
   202   192   193   ar
   203   193   194    1
   204   195   193   ar
   205   196   195    1
   206   197   195   ar
   207   198   197    1
   208   199   197   ar
   209   200   199    1
   210   201   192   ar
   211   202   201    1
   212   203   159    1
   213   166   168   ar
   214   170   203    1
   215   177   179   ar
   216   181   203    1
   217   188   190   ar
   218   192   203    1
   219   199   201   ar
@<TRIPOS>SUBSTRUCTURE
     1 RES1        1 GROUP             0 ****  ****    0  
     2 RES2       96 GROUP             0 ****  ****    0  
     3 RES3      102 GROUP             0 ****  ****    0  
     4 RES4      108 GROUP             0 ****  ****    0  
     5 RES5      114 GROUP             0 ****  ****    0  
     6 RES6      159 GROUP             0 ****  ****    0  
@<TRIPOS>CRYSIN
   13.3880   13.5580   26.0020   78.9900   76.0800   65.6200     2     1
