@<TRIPOS>MOLECULE
ROGREN
   192   210     4     0     0
SMALL
USER_CHARGES
****
Generated from the CSD

@<TRIPOS>ATOM
     1 Fe1      3.2601   8.1122  29.2466   Fe        1 RES1   2.0000
     2 O1      -0.0573   9.2503  26.8270   O.3       1 RES1   0.0000
     3 O2       3.0901   9.8319  33.1315   O.3       1 RES1   0.0000
     4 O3       3.1627   3.9051  29.6618   O.3       1 RES1   0.0000
     5 O4       6.3788   9.4937  26.7193   O.3       1 RES1   0.0000
     6 N1       1.8352   8.2637  27.5748   N.2       1 RES1   0.0000
     7 N2       1.7296   9.4296  29.8918   N.ar      1 RES1   0.0000
     8 N3       3.8130   8.7134  31.3007   N.2       1 RES1   0.0000
     9 N4       2.8890   6.1216  30.0150   N.2       1 RES1   0.0000
    10 N5       4.5868   6.8070  28.1819   N.ar      1 RES1   0.0000
    11 N6       4.5563   9.3848  28.0436   N.2       1 RES1   0.0000
    12 C1       1.7156   7.7641  26.1738   C.3       1 RES1   0.0000
    13 H1       2.4690   8.0972  25.6438   H         1 RES1   0.0000
    14 C2       1.7220   6.2433  26.1715   C.ar      1 RES1   0.0000
    15 C3       2.7070   5.5643  25.4708   C.ar      1 RES1   0.0000
    16 H2       3.3472   6.0306  24.9807   H         1 RES1   0.0000
    17 C4       2.7223   4.1690  25.5107   C.ar      1 RES1   0.0000
    18 H3       3.3892   3.7091  25.0560   H         1 RES1   0.0000
    19 C5       1.7843   3.4682  26.2025   C.ar      1 RES1   0.0000
    20 H4       1.8021   2.5381  26.2034   H         1 RES1   0.0000
    21 C6       0.7929   4.1524  26.9117   C.ar      1 RES1   0.0000
    22 H5       0.1642   3.6860  27.4120   H         1 RES1   0.0000
    23 C7       0.7598   5.5373  26.8571   C.ar      1 RES1   0.0000
    24 H6       0.0764   5.9973  27.2898   H         1 RES1   0.0000
    25 C8       0.4047   8.4239  25.6838   C.3       1 RES1   0.0000
    26 H7       0.5689   8.9774  24.9055   H         1 RES1   0.0000
    27 H8      -0.2545   7.7500  25.4557   H         1 RES1   0.0000
    28 C9       0.8425   9.0453  27.7892   C.2       1 RES1   0.0000
    29 C10      0.7063   9.7128  29.0886   C.ar      1 RES1   0.0000
    30 C11     -0.3309  10.5686  29.4681   C.ar      1 RES1   0.0000
    31 H9      -1.0207  10.7839  28.8840   H         1 RES1   0.0000
    32 C12     -0.2889  11.0811  30.7495   C.ar      1 RES1   0.0000
    33 H10     -0.9634  11.6525  31.0378   H         1 RES1   0.0000
    34 C13      0.7445  10.7570  31.6054   C.ar      1 RES1   0.0000
    35 H11      0.7687  11.0862  32.4768   H         1 RES1   0.0000
    36 C14      1.7500   9.9203  31.1286   C.ar      1 RES1   0.0000
    37 C15      2.9463   9.4668  31.8504   C.2       1 RES1   0.0000
    38 C16      4.2865   9.1337  33.5909   C.3       1 RES1   0.0000
    39 H12      4.0599   8.4803  34.2733   H         1 RES1   0.0000
    40 H13      4.9266   9.7602  33.9629   H         1 RES1   0.0000
    41 C17      4.8732   8.4341  32.3391   C.3       1 RES1   0.0000
    42 H14      4.9139   7.4694  32.5004   H         1 RES1   0.0000
    43 C18      6.2082   8.9018  31.8373   C.ar      1 RES1   0.0000
    44 C19      7.0240   9.8076  32.5116   C.ar      1 RES1   0.0000
    45 H15      6.7504  10.1586  33.3280   H         1 RES1   0.0000
    46 C20      8.2611  10.1932  31.9595   C.ar      1 RES1   0.0000
    47 H16      8.7982  10.8031  32.4110   H         1 RES1   0.0000
    48 C21      8.6760   9.6782  30.7698   C.ar      1 RES1   0.0000
    49 H17      9.4829   9.9549  30.3983   H         1 RES1   0.0000
    50 C22      7.8996   8.7493  30.1104   C.ar      1 RES1   0.0000
    51 H18      8.1911   8.3842  29.3072   H         1 RES1   0.0000
    52 C23      6.6893   8.3637  30.6508   C.ar      1 RES1   0.0000
    53 H19      6.1802   7.7244  30.2054   H         1 RES1   0.0000
    54 C24      2.2056   5.4643  31.1446   C.3       1 RES1   0.0000
    55 H20      2.8305   5.4464  31.8984   H         1 RES1   0.0000
    56 C25      0.9800   6.2125  31.5833   C.ar      1 RES1   0.0000
    57 C26      0.9813   6.8455  32.8159   C.ar      1 RES1   0.0000
    58 H21      1.7232   6.7558  33.3704   H         1 RES1   0.0000
    59 C27     -0.0929   7.6116  33.2476   C.ar      1 RES1   0.0000
    60 H22     -0.0815   8.0113  34.0852   H         1 RES1   0.0000
    61 C28     -1.1658   7.7666  32.4214   C.ar      1 RES1   0.0000
    62 H23     -1.8861   8.2855  32.6979   H         1 RES1   0.0000
    63 C29     -1.1989   7.1683  31.1836   C.ar      1 RES1   0.0000
    64 H24     -1.9409   7.2759  30.6381   H         1 RES1   0.0000
    65 C30     -0.1107   6.3945  30.7542   C.ar      1 RES1   0.0000
    66 H25     -0.1222   6.0050  29.9092   H         1 RES1   0.0000
    67 C31      2.0503   4.0358  30.6409   C.3       1 RES1   0.0000
    68 H26      2.1445   3.3977  31.3623   H         1 RES1   0.0000
    69 H27      1.1900   3.9077  30.2148   H         1 RES1   0.0000
    70 C32      3.4401   5.1837  29.3378   C.2       1 RES1   0.0000
    71 C33      4.4570   5.4835  28.3103   C.ar      1 RES1   0.0000
    72 C34      5.2333   4.6162  27.5987   C.ar      1 RES1   0.0000
    73 H28      5.1073   3.6975  27.6801   H         1 RES1   0.0000
    74 C35      6.2070   5.1184  26.7612   C.ar      1 RES1   0.0000
    75 H29      6.7606   4.5406  26.2881   H         1 RES1   0.0000
    76 C36      6.3584   6.5072  26.6309   C.ar      1 RES1   0.0000
    77 H30      7.0037   6.8736  26.0718   H         1 RES1   0.0000
    78 C37      5.5146   7.3041  27.3645   C.ar      1 RES1   0.0000
    79 C38      5.4790   8.7826  27.3937   C.2       1 RES1   0.0000
    80 C39      6.1217  10.8876  27.1106   C.3       1 RES1   0.0000
    81 H31      6.1382  11.4744  26.3398   H         1 RES1   0.0000
    82 H32      6.7771  11.1951  27.7553   H         1 RES1   0.0000
    83 C40      4.7179  10.8415  27.7337   C.3       1 RES1   0.0000
    84 H33      4.0701  11.0760  27.0358   H         1 RES1   0.0000
    85 C41      4.4354  11.7025  28.9442   C.ar      1 RES1   0.0000
    86 C42      5.3224  11.7319  30.0291   C.ar      1 RES1   0.0000
    87 H34      6.1217  11.2592  29.9844   H         1 RES1   0.0000
    88 C43      5.0157  12.4661  31.1780   C.ar      1 RES1   0.0000
    89 H35      5.6024  12.4943  31.8984   H         1 RES1   0.0000
    90 C44      3.7965  13.1592  31.2118   C.ar      1 RES1   0.0000
    91 H36      3.5776  13.6537  31.9690   H         1 RES1   0.0000
    92 C45      2.9259  13.1259  30.1688   C.ar      1 RES1   0.0000
    93 H37      2.1203  13.5871  30.2196   H         1 RES1   0.0000
    94 C46      3.2454  12.4007  29.0255   C.ar      1 RES1   0.0000
    95 H38      2.6536  12.3854  28.3103   H         1 RES1   0.0000
    96 O5       5.4764   5.0454  31.3007   O.2       2 RES2   0.0000
    97 O6       5.1621   3.3401  32.6090   O.2       2 RES2   0.0000
    98 N7       5.6101   3.8551  31.5880   N.pl3     2 RES2   0.0000
    99 C47      6.2910   2.9749  30.6118   C.3       2 RES2   0.0000
   100 H39      5.6381   2.4458  30.1490   H         2 RES2   0.0000
   101 H40      6.9019   2.3958  31.0754   H         2 RES2   0.0000
   102 H41      6.7759   3.5105  29.9797   H         2 RES2   0.0000
   103 C48      9.2894   1.1313  33.8007   C.ar      3 RES3   0.0000
   104 C49      9.6471   0.0423  34.6034   C.ar      3 RES3   0.0000
   105 H42     10.5443  -0.1973  34.6542   H         3 RES3   0.0000
   106 C50      8.7180  -0.7008  35.3309   C.ar      3 RES3   0.0000
   107 H43      9.0069  -1.4183  35.8487   H         3 RES3   0.0000
   108 C51      7.3842  -0.3831  35.2928   C.ar      3 RES3   0.0000
   109 H44      6.7657  -0.8725  35.7875   H         3 RES3   0.0000
   110 C52      6.9795   0.6790  34.5079   C.ar      3 RES3   0.0000
   111 H45      6.0771   0.9032  34.4614   H         3 RES3   0.0000
   112 C53      7.9162   1.4119  33.7880   C.ar      3 RES3   0.0000
   113 H46      7.6158   2.1255  33.2716   H         3 RES3   0.0000
   114 C54     10.3229   1.4375  31.3256   C.ar      3 RES3   0.0000
   115 C55      9.2843   0.6585  30.8046   C.ar      3 RES3   0.0000
   116 H47      8.5844   0.4100  31.3623   H         3 RES3   0.0000
   117 C56      9.2627   0.2409  29.4662   C.ar      3 RES3   0.0000
   118 H48      8.5424  -0.2537  29.1473   H         3 RES3   0.0000
   119 C57     10.3012   0.5586  28.6159   C.ar      3 RES3   0.0000
   120 H49     10.3012   0.2652  27.7318   H         3 RES3   0.0000
   121 C58     11.3461   1.3248  29.1097   C.ar      3 RES3   0.0000
   122 H50     12.0461   1.5643  28.5454   H         3 RES3   0.0000
   123 C59     11.3563   1.7373  30.4246   C.ar      3 RES3   0.0000
   124 H51     12.0805   2.2357  30.7274   H         3 RES3   0.0000
   125 C60      9.7196   3.5630  32.8422   C.ar      3 RES3   0.0000
   126 C61      9.2487   4.2036  31.6887   C.ar      3 RES3   0.0000
   127 H52      9.3340   3.7731  30.8685   H         3 RES3   0.0000
   128 C62      8.6556   5.4656  31.7291   C.ar      3 RES3   0.0000
   129 H53      8.3718   5.8666  30.9391   H         3 RES3   0.0000
   130 C63      8.4889   6.1190  32.9194   C.ar      3 RES3   0.0000
   131 H54      8.0651   6.9467  32.9471   H         3 RES3   0.0000
   132 C64      8.9624   5.5322  34.0936   C.ar      3 RES3   0.0000
   133 H55      8.8898   5.9819  34.9034   H         3 RES3   0.0000
   134 C65      9.5389   4.2805  34.0457   C.ar      3 RES3   0.0000
   135 H56      9.8214   3.8910  34.8423   H         3 RES3   0.0000
   136 C66     11.8667   2.0691  33.4127   C.ar      3 RES3   0.0000
   137 C67     12.6455   0.8892  33.4832   C.ar      3 RES3   0.0000
   138 H57     12.2472   0.0858  33.2340   H         3 RES3   0.0000
   139 C68     13.9832   0.8635  33.9036   C.ar      3 RES3   0.0000
   140 H58     14.4490   0.0602  33.9535   H         3 RES3   0.0000
   141 C69     14.5979   2.0576  34.2446   C.ar      3 RES3   0.0000
   142 H59     15.4900   2.0653  34.5084   H         3 RES3   0.0000
   143 C70     13.8788   3.2402  34.1900   C.ar      3 RES3   0.0000
   144 H60     14.2822   4.0422  34.4285   H         3 RES3   0.0000
   145 C71     12.5514   3.2261  33.7762   C.ar      3 RES3   0.0000
   146 H61     12.0957   4.0358  33.7372   H         3 RES3   0.0000
   147 B1      10.3241   2.0294  32.8540   B         3 RES3  -1.0000
   148 C72      3.4147  11.0504  23.4303   C.ar      4 RES4   0.0000
   149 C73      2.3761  10.2701  22.9036   C.ar      4 RES4   0.0000
   150 H62      1.5871  10.7006  22.6623   H         4 RES4   0.0000
   151 C74      2.4499   8.9018  22.7187   C.ar      4 RES4   0.0000
   152 H63      1.7245   8.4380  22.3660   H         4 RES4   0.0000
   153 C75      3.6017   8.2317  23.0606   C.ar      4 RES4   0.0000
   154 H64      3.6768   7.3195  22.8974   H         4 RES4   0.0000
   155 C76      4.6492   8.9261  23.6461   C.ar      4 RES4   0.0000
   156 H65      5.4128   8.4751  23.9273   H         4 RES4   0.0000
   157 C77      4.5448  10.3034  23.8102   C.ar      4 RES4   0.0000
   158 H66      5.2613  10.7557  24.1907   H         4 RES4   0.0000
   159 C78      4.5219  13.3258  24.3807   C.ar      4 RES4   0.0000
   160 C79      4.3514  13.6038  25.7501   C.ar      4 RES4   0.0000
   161 H67      3.5114  13.4782  26.1282   H         4 RES4   0.0000
   162 C80      5.3950  14.0586  26.5641   C.ar      4 RES4   0.0000
   163 H68      5.2512  14.1995  27.4732   H         4 RES4   0.0000
   164 C81      6.6295  14.2969  26.0224   C.ar      4 RES4   0.0000
   165 H69      7.3244  14.6108  26.5561   H         4 RES4   0.0000
   166 C82      6.8319  14.0637  24.6708   C.ar      4 RES4   0.0000
   167 H70      7.6667  14.2200  24.2894   H         4 RES4   0.0000
   168 C83      5.7857  13.5948  23.8817   C.ar      4 RES4   0.0000
   169 H71      5.9422  13.4552  22.9774   H         4 RES4   0.0000
   170 C84      3.4567  13.2617  21.9127   C.ar      4 RES4   0.0000
   171 C85      3.4757  12.4610  20.7596   C.ar      4 RES4   0.0000
   172 H72      3.4414  11.5372  20.8612   H         4 RES4   0.0000
   173 C86      3.5445  12.9875  19.4711   C.ar      4 RES4   0.0000
   174 H73      3.5496  12.4161  18.7356   H         4 RES4   0.0000
   175 C87      3.6030  14.3520  19.2820   C.ar      4 RES4   0.0000
   176 H74      3.6412  14.7107  18.4252   H         4 RES4   0.0000
   177 C88      3.6030  15.1771  20.3890   C.ar      4 RES4   0.0000
   178 H75      3.6386  16.0996  20.2780   H         4 RES4   0.0000
   179 C89      3.5496  14.6326  21.6616   C.ar      4 RES4   0.0000
   180 H76      3.5776  15.2117  22.3896   H         4 RES4   0.0000
   181 C90      1.8352  13.0849  24.0736   C.ar      4 RES4   0.0000
   182 C91      1.2676  12.3713  25.1425   C.ar      4 RES4   0.0000
   183 H77      1.7423  11.6500  25.4886   H         4 RES4   0.0000
   184 C92      0.0509  12.6736  25.7083   C.ar      4 RES4   0.0000
   185 H78     -0.2749  12.1650  26.4151   H         4 RES4   0.0000
   186 C93     -0.6923  13.7434  25.2192   C.ar      4 RES4   0.0000
   187 H79     -1.5094  13.9651  25.6062   H         4 RES4   0.0000
   188 C94     -0.2024  14.4724  24.1578   C.ar      4 RES4   0.0000
   189 H80     -0.6911  15.1873  23.8145   H         4 RES4   0.0000
   190 C95      1.0347  14.1342  23.5953   C.ar      4 RES4   0.0000
   191 H81      1.3414  14.6275  22.8692   H         4 RES4   0.0000
   192 B2       3.3001  12.6980  23.4627   B         4 RES4  -1.0000
@<TRIPOS>BOND
     1     1     6    1
     2     2    25    1
     3     3    37    1
     4     4    67    1
     5     5    79    1
     6     6    12    1
     7     7     1    1
     8     8     1    1
     9     9     1    1
    10    10     1    1
    11    11     1    1
    12    12    13    1
    13    14    12    1
    14    15    14   ar
    15    16    15    1
    16    17    15   ar
    17    18    17    1
    18    19    17   ar
    19    20    19    1
    20    21    19   ar
    21    22    21    1
    22    23    14   ar
    23    24    23    1
    24    25    12    1
    25    26    25    1
    26    27    25    1
    27    28     2    1
    28    29     7   ar
    29    30    29   ar
    30    31    30    1
    31    32    30   ar
    32    33    32    1
    33    34    32   ar
    34    35    34    1
    35    36     7   ar
    36    37     8    2
    37    38     3    1
    38    39    38    1
    39    40    38    1
    40    41     8    1
    41    42    41    1
    42    43    41    1
    43    44    43   ar
    44    45    44    1
    45    46    44   ar
    46    47    46    1
    47    48    46   ar
    48    49    48    1
    49    50    48   ar
    50    51    50    1
    51    52    43   ar
    52    53    52    1
    53    54     9    1
    54    55    54    1
    55    56    54    1
    56    57    56   ar
    57    58    57    1
    58    59    57   ar
    59    60    59    1
    60    61    59   ar
    61    62    61    1
    62    63    61   ar
    63    64    63    1
    64    65    56   ar
    65    66    65    1
    66    67    54    1
    67    68    67    1
    68    69    67    1
    69    70     4    1
    70    71    10   ar
    71    72    71   ar
    72    73    72    1
    73    74    72   ar
    74    75    74    1
    75    76    74   ar
    76    77    76    1
    77    78    10   ar
    78    79    11    2
    79    80     5    1
    80    81    80    1
    81    82    80    1
    82    83    11    1
    83    84    83    1
    84    85    83    1
    85    86    85   ar
    86    87    86    1
    87    88    86   ar
    88    89    88    1
    89    90    88   ar
    90    91    90    1
    91    92    90   ar
    92    93    92    1
    93    94    85   ar
    94    95    94    1
    95     6    28    2
    96     9    70    2
    97    21    23   ar
    98    28    29    1
    99    34    36   ar
   100    36    37    1
   101    38    41    1
   102    50    52   ar
   103    63    65   ar
   104    70    71    1
   105    76    78   ar
   106    78    79    1
   107    80    83    1
   108    92    94   ar
   109    96    98    2
   110    97    98    2
   111    98    99    1
   112    99   100    1
   113   101    99    1
   114   102    99    1
   115   103   104   ar
   116   104   105    1
   117   106   104   ar
   118   107   106    1
   119   108   106   ar
   120   109   108    1
   121   110   108   ar
   122   111   110    1
   123   112   103   ar
   124   113   112    1
   125   114   115   ar
   126   115   116    1
   127   117   115   ar
   128   118   117    1
   129   119   117   ar
   130   120   119    1
   131   121   119   ar
   132   122   121    1
   133   123   114   ar
   134   124   123    1
   135   125   126   ar
   136   126   127    1
   137   128   126   ar
   138   129   128    1
   139   130   128   ar
   140   131   130    1
   141   132   130   ar
   142   133   132    1
   143   134   125   ar
   144   135   134    1
   145   136   137   ar
   146   137   138    1
   147   139   137   ar
   148   140   139    1
   149   141   139   ar
   150   142   141    1
   151   143   141   ar
   152   144   143    1
   153   145   136   ar
   154   146   145    1
   155   147   103    1
   156   110   112   ar
   157   114   147    1
   158   121   123   ar
   159   125   147    1
   160   132   134   ar
   161   136   147    1
   162   143   145   ar
   163   148   149   ar
   164   149   150    1
   165   151   149   ar
   166   152   151    1
   167   153   151   ar
   168   154   153    1
   169   155   153   ar
   170   156   155    1
   171   157   148   ar
   172   158   157    1
   173   159   160   ar
   174   160   161    1
   175   162   160   ar
   176   163   162    1
   177   164   162   ar
   178   165   164    1
   179   166   164   ar
   180   167   166    1
   181   168   159   ar
   182   169   168    1
   183   170   171   ar
   184   171   172    1
   185   173   171   ar
   186   174   173    1
   187   175   173   ar
   188   176   175    1
   189   177   175   ar
   190   178   177    1
   191   179   170   ar
   192   180   179    1
   193   181   182   ar
   194   182   183    1
   195   184   182   ar
   196   185   184    1
   197   186   184   ar
   198   187   186    1
   199   188   186   ar
   200   189   188    1
   201   190   181   ar
   202   191   190    1
   203   192   148    1
   204   155   157   ar
   205   159   192    1
   206   166   168   ar
   207   170   192    1
   208   177   179   ar
   209   181   192    1
   210   188   190   ar
@<TRIPOS>SUBSTRUCTURE
     1 RES1        1 GROUP             0 ****  ****    0  
     2 RES2       96 GROUP             0 ****  ****    0  
     3 RES3      103 GROUP             0 ****  ****    0  
     4 RES4      148 GROUP             0 ****  ****    0  
@<TRIPOS>CRYSIN
   12.7270   12.8120   47.0270   90.0000   90.0000   90.0000    19     1
