@<TRIPOS>MOLECULE
ROJRIU
    78    84     1     0     0
SMALL
USER_CHARGES
****
Generated from the CSD

@<TRIPOS>ATOM
     1 Fe1      9.5825   2.8199   8.9290   Fe        1 RES1   1.0000
     2 B1       9.5326   6.0413   8.9901   B         1 RES1  -1.0000
     3 C1       8.5667   3.6272  12.5303   C.3       1 RES1   0.0000
     4 H1       8.1367   2.8576  12.1017   H         1 RES1   0.0000
     5 H2       8.0699   4.4428  12.3112   H         1 RES1   0.0000
     6 H3       8.5730   3.4989  13.5016   H         1 RES1   0.0000
     7 C2      10.0236   3.7563  12.0171   C.3       1 RES1   0.0000
     8 C3      10.8111   2.5827  12.4228   C.3       1 RES1   0.0000
     9 H4      10.4147   1.7734  12.0358   H         1 RES1   0.0000
    10 H5      10.8111   2.5105  13.3998   H         1 RES1   0.0000
    11 H6      11.7320   2.6797  12.1020   H         1 RES1   0.0000
    12 C4      10.5933   5.0601  12.4958   C.3       1 RES1   0.0000
    13 H7      10.2163   5.3086  13.3767   H         1 RES1   0.0000
    14 H8      11.5792   5.0094  12.5703   H         1 RES1   0.0000
    15 C5       9.9233   5.2944  10.3596   C.2       1 RES1   0.0000
    16 C6       6.3388   2.6994   7.2174   C.3       1 RES1   0.0000
    17 H9       6.8900   2.8936   6.4310   H         1 RES1   0.0000
    18 H10      5.3977   2.6397   6.9503   H         1 RES1   0.0000
    19 H11      6.6209   1.8477   7.6120   H         1 RES1   0.0000
    20 C7       6.5040   3.7980   8.2286   C.3       1 RES1   0.0000
    21 C8       5.7887   3.4388   9.5289   C.3       1 RES1   0.0000
    22 H12      4.8219   3.4087   9.3737   H         1 RES1   0.0000
    23 H13      5.9895   4.1152  10.2095   H         1 RES1   0.0000
    24 H14      6.0972   2.5619   9.8400   H         1 RES1   0.0000
    25 C9       6.0584   5.1440   7.6999   C.3       1 RES1   0.0000
    26 H15      6.0409   5.1432   6.7095   H         1 RES1   0.0000
    27 H16      5.1540   5.3698   8.0343   H         1 RES1   0.0000
    28 C10      8.1274   5.3557   8.5728   C.2       1 RES1   0.0000
    29 C11     12.3234   2.7091   6.4303   C.3       1 RES1   0.0000
    30 H17     12.8056   2.6611   5.5784   H         1 RES1   0.0000
    31 H18     11.8249   1.8770   6.5706   H         1 RES1   0.0000
    32 H19     12.9644   2.8326   7.1616   H         1 RES1   0.0000
    33 C12     11.3546   3.8820   6.4008   C.3       1 RES1   0.0000
    34 C13     10.3351   3.7446   5.2924   C.3       1 RES1   0.0000
    35 H20      9.7564   4.5352   5.2813   H         1 RES1   0.0000
    36 H21      9.7923   2.9438   5.4463   H         1 RES1   0.0000
    37 H22     10.7975   3.6660   4.4318   H         1 RES1   0.0000
    38 C14     12.0810   5.1943   6.2997   C.3       1 RES1   0.0000
    39 H23     12.9846   5.1278   6.6977   H         1 RES1   0.0000
    40 H24     12.1669   5.4768   5.3544   H         1 RES1   0.0000
    41 C15     10.5208   5.3522   7.8855   C.2       1 RES1   0.0000
    42 C16      9.6258   7.6379   9.1053   C.ar      1 RES1   0.0000
    43 C17      8.5113   8.4646   9.2627   C.ar      1 RES1   0.0000
    44 H25      7.6441   8.0769   9.2780   H         1 RES1   0.0000
    45 C18      8.6448   9.8478   9.3984   C.ar      1 RES1   0.0000
    46 H26      7.8703  10.3900   9.4867   H         1 RES1   0.0000
    47 C19      9.8707  10.4209   9.4048   C.ar      1 RES1   0.0000
    48 H27      9.9541  11.3642   9.4763   H         1 RES1   0.0000
    49 C20     10.9828   9.6461   9.3101   C.ar      1 RES1   0.0000
    50 H28     11.8470  10.0378   9.3489   H         1 RES1   0.0000
    51 C21     10.8413   8.2888   9.1552   C.ar      1 RES1   0.0000
    52 H29     11.6302   7.7651   9.0784   H         1 RES1   0.0000
    53 C22      8.7514   1.6519   9.9091   C.1       1 RES1   0.0000
    54 C23      9.3508   1.6595   7.6347   C.1       1 RES1   0.0000
    55 C24     11.3282   1.9624   9.3178   C.2       1 RES1   0.0000
    56 C25     11.5149   0.4224   9.3446   C.3       1 RES1   0.0000
    57 H30     10.7610   0.0289   9.8507   H         1 RES1   0.0000
    58 H31     11.4535   0.0879   8.4149   H         1 RES1   0.0000
    59 C26     12.7822  -0.0770   9.9347   C.ar      1 RES1   0.0000
    60 C27     12.8465  -0.5802  11.1839   C.ar      1 RES1   0.0000
    61 H32     12.0471  -0.6105  11.6968   H         1 RES1   0.0000
    62 C28     14.0043  -1.0535  11.7598   C.ar      1 RES1   0.0000
    63 H33     14.0061  -1.4402  12.6283   H         1 RES1   0.0000
    64 C29     15.1530  -0.9421  11.0252   C.ar      1 RES1   0.0000
    65 H34     15.9767  -1.2223  11.4058   H         1 RES1   0.0000
    66 C30     15.1410  -0.4404   9.7696   C.ar      1 RES1   0.0000
    67 H35     15.9435  -0.3943   9.2635   H         1 RES1   0.0000
    68 C31     13.9648  -0.0041   9.2410   C.ar      1 RES1   0.0000
    69 H36     13.9627   0.3635   8.3644   H         1 RES1   0.0000
    70 N1       9.9378   4.0259  10.5196   N.2       1 RES1   0.0000
    71 N2       7.9465   4.0771   8.5485   N.2       1 RES1   0.0000
    72 N3      10.6121   4.0917   7.6987   N.2       1 RES1   0.0000
    73 O1      10.1914   6.0296  11.4565   O.3       1 RES1   0.0000
    74 O2       7.0415   6.0878   8.1966   O.3       1 RES1   0.0000
    75 O3      11.2541   6.1262   7.0446   O.3       1 RES1   0.0000
    76 O4       8.2280   0.8040  10.5017   O.2       1 RES1   0.0000
    77 O5       9.2038   0.8204   6.8539   O.2       1 RES1   0.0000
    78 O6      12.3096   2.6518   9.5776   O.2       1 RES1   0.0000
@<TRIPOS>BOND
     1     1    53    1
     2     2    15    1
     3     3     4    1
     4     5     3    1
     5     6     3    1
     6     7     3    1
     7     8     7    1
     8     9     8    1
     9    10     8    1
    10    11     8    1
    11    12     7    1
    12    13    12    1
    13    14    12    1
    14    15    70    2
    15    16    17    1
    16    18    16    1
    17    19    16    1
    18    20    16    1
    19    21    20    1
    20    22    21    1
    21    23    21    1
    22    24    21    1
    23    25    20    1
    24    26    25    1
    25    27    25    1
    26    28     2    1
    27    29    30    1
    28    31    29    1
    29    32    29    1
    30    33    29    1
    31    34    33    1
    32    35    34    1
    33    36    34    1
    34    37    34    1
    35    38    33    1
    36    39    38    1
    37    40    38    1
    38    41     2    1
    39    42     2    1
    40    43    42   ar
    41    44    43    1
    42    45    43   ar
    43    46    45    1
    44    47    45   ar
    45    48    47    1
    46    49    47   ar
    47    50    49    1
    48    51    42   ar
    49    52    51    1
    50    53    76    3
    51    54     1    1
    52    55     1    1
    53    56    55    1
    54    57    56    1
    55    58    56    1
    56    59    56    1
    57    60    59   ar
    58    61    60    1
    59    62    60   ar
    60    63    62    1
    61    64    62   ar
    62    65    64    1
    63    66    64   ar
    64    67    66    1
    65    68    59   ar
    66    69    68    1
    67    70     1    1
    68    71     1    1
    69    72     1    1
    70    73    12    1
    71    74    25    1
    72    75    38    1
    73    77    54    3
    74    78    55    2
    75     7    70    1
    76    15    73    1
    77    20    71    1
    78    28    71    2
    79    28    74    1
    80    33    72    1
    81    41    72    2
    82    41    75    1
    83    49    51   ar
    84    66    68   ar
@<TRIPOS>SUBSTRUCTURE
     1 RES1        1 GROUP             0 ****  ****    0  
@<TRIPOS>CRYSIN
   10.1267   13.2376   13.5832   87.1920   70.4930   85.8270     2     1
