@<TRIPOS>MOLECULE
ROJTIT
    93    99     2     0     0
SMALL
NO_CHARGES
****
Generated from the CSD

@<TRIPOS>ATOM
     1 Fe1      9.0878   9.5799   4.2513   Fe        1 RES1   0.0000
     2 Cl1      9.5583  13.0130   5.8602   Cl        1 RES1   0.0000
     3 P1       7.2431   8.3967   3.7810   P.3       1 RES1   0.0000
     4 Sn1      7.8130  11.1443   5.9082   Sn        1 RES1   0.0000
     5 Sn2     11.3475  10.7770   4.7355   Sn        1 RES1   0.0000
     6 O1       9.6995   8.0641   6.7026   O.2       1 RES1   0.0000
     7 C1       9.4693   8.6769   5.7553   C.1       1 RES1   0.0000
     8 O2      10.4828   7.9548   2.2568   O.2       1 RES1   0.0000
     9 C2       9.9798   8.6025   3.0519   C.1       1 RES1   0.0000
    10 O3       8.5671  11.8432   2.4496   O.2       1 RES1   0.0000
    11 C3       8.7501  10.9699   3.1602   C.1       1 RES1   0.0000
    12 C4       5.9755   8.3943   5.1023   C.ar      1 RES1   0.0000
    13 N1       5.9957   9.4292   5.9414   N.ar      1 RES1   0.0000
    14 C5       5.0277   9.5467   6.8650   C.ar      1 RES1   0.0000
    15 H1       5.0391  10.2816   7.4368   H         1 RES1   0.0000
    16 C6       4.0222   8.6257   7.0004   C.ar      1 RES1   0.0000
    17 H2       3.3509   8.7490   7.6331   H         1 RES1   0.0000
    18 C7       4.0201   7.5176   6.1884   C.ar      1 RES1   0.0000
    19 H3       3.3660   6.8641   6.2831   H         1 RES1   0.0000
    20 C8       5.0080   7.3920   5.2274   C.ar      1 RES1   0.0000
    21 H4       5.0268   6.6478   4.6692   H         1 RES1   0.0000
    22 C9       7.4773   6.6199   3.4444   C.ar      1 RES1   0.0000
    23 C10      6.7234   5.9629   2.5071   C.ar      1 RES1   0.0000
    24 H5       6.1144   6.4408   1.9929   H         1 RES1   0.0000
    25 C11      6.8542   4.5850   2.3177   C.ar      1 RES1   0.0000
    26 H6       6.3465   4.1524   1.6714   H         1 RES1   0.0000
    27 C12      7.7387   3.8722   3.0925   C.ar      1 RES1   0.0000
    28 H7       7.8100   2.9512   2.9876   H         1 RES1   0.0000
    29 C13      8.5056   4.5117   4.0094   C.ar      1 RES1   0.0000
    30 H8       9.1167   4.0291   4.5169   H         1 RES1   0.0000
    31 C14      8.3855   5.8873   4.1955   C.ar      1 RES1   0.0000
    32 H9       8.9145   6.3164   4.8282   H         1 RES1   0.0000
    33 C15      6.3278   8.9874   2.3143   C.ar      1 RES1   0.0000
    34 C16      7.0127   9.1141   1.1199   C.ar      1 RES1   0.0000
    35 H10      7.9122   8.8792   1.0827   H         1 RES1   0.0000
    36 C17      6.3784   9.5897  -0.0338   C.ar      1 RES1   0.0000
    37 H11      6.8527   9.6792  -0.8289   H         1 RES1   0.0000
    38 C18      5.0448   9.9223   0.0203   C.ar      1 RES1   0.0000
    39 H12      4.6086  10.2234  -0.7410   H         1 RES1   0.0000
    40 C19      4.3670   9.8095   1.1876   C.ar      1 RES1   0.0000
    41 H13      3.4689  10.0513   1.2147   H         1 RES1   0.0000
    42 C20      4.9732   9.3443   2.3380   C.ar      1 RES1   0.0000
    43 H14      4.4841   9.2688   3.1229   H         1 RES1   0.0000
    44 C21      7.9625  10.9258   8.0560   C.ar      1 RES1   0.0000
    45 C22      8.2620  12.0153   8.8545   C.ar      1 RES1   0.0000
    46 H15      8.3880  12.8479   8.4620   H         1 RES1   0.0000
    47 C23      8.3764  11.8932  10.2384   C.ar      1 RES1   0.0000
    48 H16      8.5442  12.6421  10.7628   H         1 RES1   0.0000
    49 C24      8.2412  10.6711  10.8102   C.ar      1 RES1   0.0000
    50 H17      8.3479  10.5862  11.7305   H         1 RES1   0.0000
    51 C25      7.9473   9.5490  10.0556   C.ar      1 RES1   0.0000
    52 H18      7.8573   8.7164  10.4617   H         1 RES1   0.0000
    53 C26      7.7888   9.6885   8.6853   C.ar      1 RES1   0.0000
    54 H19      7.5630   8.9455   8.1744   H         1 RES1   0.0000
    55 C27      6.2644  12.5328   5.3391   C.ar      1 RES1   0.0000
    56 C28      5.4002  12.3014   4.2936   C.ar      1 RES1   0.0000
    57 H20      5.5031  11.5304   3.7827   H         1 RES1   0.0000
    58 C29      4.3766  13.1921   3.9756   C.ar      1 RES1   0.0000
    59 H21      3.8015  13.0095   3.2684   H         1 RES1   0.0000
    60 C30      4.2226  14.3421   4.7132   C.ar      1 RES1   0.0000
    61 H22      3.5496  14.9468   4.4966   H         1 RES1   0.0000
    62 C31      5.0637  14.5956   5.7688   C.ar      1 RES1   0.0000
    63 H23      4.9559  15.3677   6.2729   H         1 RES1   0.0000
    64 C32      6.0802  13.6944   6.0801   C.ar      1 RES1   0.0000
    65 H24      6.6453  13.8735   6.7940   H         1 RES1   0.0000
    66 C33     11.9581  12.1921   3.2380   C.ar      1 RES1   0.0000
    67 C34     12.4005  11.7351   1.9895   C.ar      1 RES1   0.0000
    68 H25     12.4784  10.8188   1.8440   H         1 RES1   0.0000
    69 C35     12.7229  12.5967   0.9778   C.ar      1 RES1   0.0000
    70 H26     13.0062  12.2642   0.1556   H         1 RES1   0.0000
    71 C36     12.6283  13.9374   1.1707   C.ar      1 RES1   0.0000
    72 H27     12.8575  14.5281   0.4872   H         1 RES1   0.0000
    73 C37     12.1925  14.4072   2.3786   C.ar      1 RES1   0.0000
    74 H28     12.1175  15.3247   2.5105   H         1 RES1   0.0000
    75 C38     11.8618  13.5456   3.4004   C.ar      1 RES1   0.0000
    76 H29     11.5696  13.8909   4.2124   H         1 RES1   0.0000
    77 C39     12.2348  11.0618   6.6722   C.ar      1 RES1   0.0000
    78 C40     13.4661  11.7223   6.7399   C.ar      1 RES1   0.0000
    79 H30     13.8672  12.0339   5.9617   H         1 RES1   0.0000
    80 C41     14.0916  11.9130   7.9681   C.ar      1 RES1   0.0000
    81 H31     14.8982  12.3735   8.0087   H         1 RES1   0.0000
    82 C42     13.5329  11.4316   9.1015   C.ar      1 RES1   0.0000
    83 H32     13.9572  11.5641   9.9169   H         1 RES1   0.0000
    84 C43     12.3252  10.7397   9.0541   C.ar      1 RES1   0.0000
    85 H33     11.9498  10.3909   9.8290   H         1 RES1   0.0000
    86 C44     11.6943  10.5804   7.8327   C.ar      1 RES1   0.0000
    87 H34     10.8799  10.1327   7.7989   H         1 RES1   0.0000
    88 Cl2     13.0040   9.0315   4.1150   Cl        1 RES1   0.0000
    89 Cl3      8.2905   5.9943  -2.0267   Cl        2 RES2   0.0000
    90 Cl4      9.7250   5.0326   0.0947   Cl        2 RES2   0.0000
    91 C45      9.3983   4.9908  -1.4143   C.3       2 RES2   0.0000
    92 H35      9.1172   4.0873  -1.6241   H         2 RES2   0.0000
    93 H36     10.2263   5.1478  -1.8914   H         2 RES2   0.0000
@<TRIPOS>BOND
     1     1     3    1
     2     2     4    1
     3     3    12    1
     4     4     1    1
     5     5     1    1
     6     6     7    3
     7     7     1    1
     8     8     9    3
     9     9     1    1
    10    10    11    3
    11    11     1    1
    12    12    13   ar
    13    13     4    1
    14    14    13   ar
    15    15    14    1
    16    16    14   ar
    17    17    16    1
    18    18    16   ar
    19    19    18    1
    20    20    12   ar
    21    21    20    1
    22    22     3    1
    23    23    22   ar
    24    24    23    1
    25    25    23   ar
    26    26    25    1
    27    27    25   ar
    28    28    27    1
    29    29    27   ar
    30    30    29    1
    31    31    22   ar
    32    32    31    1
    33    33     3    1
    34    34    33   ar
    35    35    34    1
    36    36    34   ar
    37    37    36    1
    38    38    36   ar
    39    39    38    1
    40    40    38   ar
    41    41    40    1
    42    42    33   ar
    43    43    42    1
    44    44     4    1
    45    45    44   ar
    46    46    45    1
    47    47    45   ar
    48    48    47    1
    49    49    47   ar
    50    50    49    1
    51    51    49   ar
    52    52    51    1
    53    53    44   ar
    54    54    53    1
    55    55     4    1
    56    56    55   ar
    57    57    56    1
    58    58    56   ar
    59    59    58    1
    60    60    58   ar
    61    61    60    1
    62    62    60   ar
    63    63    62    1
    64    64    55   ar
    65    65    64    1
    66    66     5    1
    67    67    66   ar
    68    68    67    1
    69    69    67   ar
    70    70    69    1
    71    71    69   ar
    72    72    71    1
    73    73    71   ar
    74    74    73    1
    75    75    66   ar
    76    76    75    1
    77    77     5    1
    78    78    77   ar
    79    79    78    1
    80    80    78   ar
    81    81    80    1
    82    82    80   ar
    83    83    82    1
    84    84    82   ar
    85    85    84    1
    86    86    77   ar
    87    87    86    1
    88    88     5    1
    89    18    20   ar
    90    29    31   ar
    91    40    42   ar
    92    51    53   ar
    93    62    64   ar
    94    73    75   ar
    95    84    86   ar
    96    89    91    1
    97    90    91    1
    98    91    92    1
    99    93    91    1
@<TRIPOS>SUBSTRUCTURE
     1 RES1        1 GROUP             0 ****  ****    0  
     2 RES2       89 GROUP             0 ****  ****    0  
@<TRIPOS>CRYSIN
   11.4534   11.6281   34.1379   90.0000   97.6430   90.0000    14     1
