@<TRIPOS>MOLECULE
ROJWAQ
    81    92     2     0     0
SMALL
NO_CHARGES
****
Generated from the CSD

@<TRIPOS>ATOM
     1 Fe1      7.7910   0.0000   0.0000   Fe        1 RES1   0.0000
     2 N1       9.5398   0.8035   0.2242   N.2       1 RES1   0.0000
     3 N2       7.1520   0.8617   1.6096   N.2       1 RES1   0.0000
     4 N3       9.1490   2.0650   2.2452   N.2       1 RES1   0.0000
     5 N4       4.8710   0.0526   1.7051   N.2       1 RES1   0.0000
     6 N5       8.3116  -1.5387   1.0499   N.1       1 RES1   0.0000
     7 C1      10.6165   0.6903  -0.6164   C.2       1 RES1   0.0000
     8 C2       9.8871   1.6658   1.2237   C.2       1 RES1   0.0000
     9 C3       7.8948   1.6768   2.4119   C.2       1 RES1   0.0000
    10 C4       5.8942   0.7711   2.1512   C.2       1 RES1   0.0000
    11 C5      11.7033   1.5412  -0.1383   C.2       1 RES1   0.0000
    12 C6      12.9677   1.8379  -0.6394   C.2       1 RES1   0.0000
    13 H1      13.2909   1.4323  -1.4361   H         1 RES1   0.0000
    14 C7      13.7391   2.7490   0.0686   C.2       1 RES1   0.0000
    15 H2      14.6026   2.9750  -0.2566   H         1 RES1   0.0000
    16 C8      13.2807   3.3406   1.2434   C.2       1 RES1   0.0000
    17 H3      13.8369   3.9567   1.7042   H         1 RES1   0.0000
    18 C9      12.0243   3.0434   1.7492   C.2       1 RES1   0.0000
    19 H4      11.7083   3.4392   2.5535   H         1 RES1   0.0000
    20 C10     11.2431   2.1410   1.0318   C.2       1 RES1   0.0000
    21 C11      7.0979   2.1378   3.5294   C.2       1 RES1   0.0000
    22 C12      7.3917   2.9810   4.5948   C.2       1 RES1   0.0000
    23 H5       8.2666   3.3270   4.7234   H         1 RES1   0.0000
    24 C13      6.3599   3.2956   5.4586   C.2       1 RES1   0.0000
    25 H6       6.5248   3.8717   6.1955   H         1 RES1   0.0000
    26 C14      5.0747   2.7765   5.2626   C.2       1 RES1   0.0000
    27 H7       4.3802   3.0230   5.8610   H         1 RES1   0.0000
    28 C15      4.7900   1.9110   4.2169   C.2       1 RES1   0.0000
    29 H8       3.9196   1.5508   4.0991   H         1 RES1   0.0000
    30 C16      5.8234   1.5920   3.3508   C.2       1 RES1   0.0000
    31 C17      8.5367  -2.4697   1.6650   C.1       1 RES1   0.0000
    32 C18      8.8073  -3.6574   2.4469   C.3       1 RES1   0.0000
    33 H9       8.0077  -3.8997   2.9601   H         1 RES1   0.0000
    34 H10      9.5496  -3.4817   3.0624   H         1 RES1   0.0000
    35 H11      9.0476  -4.3947   1.8484   H         1 RES1   0.0000
    36 N1B      6.0422  -0.8035  -0.2242   N.2       1 RES1   0.0000
    37 N2B      8.4300  -0.8617  -1.6096   N.2       1 RES1   0.0000
    38 N3B      6.4330  -2.0650  -2.2452   N.2       1 RES1   0.0000
    39 N4B     10.7110  -0.0526  -1.7051   N.2       1 RES1   0.0000
    40 C1B      4.9655  -0.6903   0.6164   C.2       1 RES1   0.0000
    41 C2B      5.6949  -1.6658  -1.2237   C.2       1 RES1   0.0000
    42 C3B      7.6872  -1.6768  -2.4119   C.2       1 RES1   0.0000
    43 C4B      9.6878  -0.7711  -2.1512   C.2       1 RES1   0.0000
    44 C5B      3.8787  -1.5412   0.1383   C.2       1 RES1   0.0000
    45 C6B      2.6143  -1.8379   0.6394   C.2       1 RES1   0.0000
    46 H1B      2.2911  -1.4323   1.4361   H         1 RES1   0.0000
    47 C7B      1.8429  -2.7490  -0.0686   C.2       1 RES1   0.0000
    48 H2B      0.9794  -2.9750   0.2566   H         1 RES1   0.0000
    49 C8B      2.3013  -3.3406  -1.2434   C.2       1 RES1   0.0000
    50 H3B      1.7451  -3.9567  -1.7042   H         1 RES1   0.0000
    51 C9B      3.5577  -3.0434  -1.7492   C.2       1 RES1   0.0000
    52 H4B      3.8737  -3.4392  -2.5535   H         1 RES1   0.0000
    53 C10B     4.3389  -2.1410  -1.0318   C.2       1 RES1   0.0000
    54 C11B     8.4841  -2.1378  -3.5294   C.2       1 RES1   0.0000
    55 C12B     8.1903  -2.9810  -4.5948   C.2       1 RES1   0.0000
    56 H5B      7.3154  -3.3270  -4.7234   H         1 RES1   0.0000
    57 C13B     9.2221  -3.2956  -5.4586   C.2       1 RES1   0.0000
    58 H6B      9.0572  -3.8717  -6.1955   H         1 RES1   0.0000
    59 C14B    10.5073  -2.7765  -5.2626   C.2       1 RES1   0.0000
    60 H7B     11.2018  -3.0230  -5.8610   H         1 RES1   0.0000
    61 C15B    10.7920  -1.9110  -4.2169   C.2       1 RES1   0.0000
    62 H8B     11.6624  -1.5508  -4.0991   H         1 RES1   0.0000
    63 C16B     9.7586  -1.5920  -3.3508   C.2       1 RES1   0.0000
    64 N5B      7.2704   1.5387  -1.0499   N.1       1 RES1   0.0000
    65 C17B     7.0453   2.4697  -1.6650   C.1       1 RES1   0.0000
    66 C18B     6.7747   3.6574  -2.4469   C.3       1 RES1   0.0000
    67 H9B      7.5743   3.8997  -2.9601   H         1 RES1   0.0000
    68 H10B     6.0324   3.4817  -3.0624   H         1 RES1   0.0000
    69 H11B     6.5344   4.3947  -1.8484   H         1 RES1   0.0000
    70 Cl1      5.8174   4.3703   0.9050   Cl        2 RES2   0.0000
    71 Cl2      4.9906   5.9569   3.4924   Cl        2 RES2   0.0000
    72 C19      4.2587   4.1549   1.6121   C.ar      2 RES2   0.0000
    73 C20      3.8974   4.8543   2.7497   C.ar      2 RES2   0.0000
    74 C21      2.6473   4.6552   3.3093   C.ar      2 RES2   0.0000
    75 H12      2.3971   5.1330   4.0904   H         2 RES2   0.0000
    76 C22      1.7628   3.7622   2.7322   C.ar      2 RES2   0.0000
    77 H13      0.9071   3.6238   3.1201   H         2 RES2   0.0000
    78 C23      2.1236   3.0745   1.5949   C.ar      2 RES2   0.0000
    79 H14      1.5114   2.4665   1.1967   H         2 RES2   0.0000
    80 C24      3.3698   3.2618   1.0305   C.ar      2 RES2   0.0000
    81 H15      3.6173   2.7823   0.2480   H         2 RES2   0.0000
@<TRIPOS>BOND
     1     1     2    1
     2     2     7    2
     3     3     1    1
     4     4     8    2
     5     5    10    1
     6     6     1    1
     7     7    11    1
     8     8     2    1
     9     9     3    1
    10    10     3    1
    11    11    12    1
    12    12    13    1
    13    14    12    2
    14    15    14    1
    15    16    14    1
    16    17    16    1
    17    18    16    2
    18    19    18    1
    19    20     8    1
    20    21     9    2
    21    22    21    1
    22    23    22    1
    23    24    22    2
    24    25    24    1
    25    26    24    1
    26    27    26    1
    27    28    26    2
    28    29    28    1
    29    30    10    2
    30    31     6    3
    31    32    31    1
    32    33    32    1
    33    34    32    1
    34    35    32    1
    35    36     1    1
    36    37     1    1
    37    38    41    1
    38    39     7    1
    39    40     5    2
    40    41    36    2
    41    42    37    1
    42    43    37    1
    43    44    40    1
    44    45    44    1
    45    46    45    1
    46    47    45    2
    47    48    47    1
    48    49    47    1
    49    50    49    1
    50    51    49    2
    51    52    51    1
    52    53    41    1
    53    54    42    1
    54    55    54    1
    55    56    55    1
    56    57    55    2
    57    58    57    1
    58    59    57    1
    59    60    59    1
    60    61    59    2
    61    62    61    1
    62    63    43    1
    63    64     1    1
    64    65    64    3
    65    66    65    1
    66    67    66    1
    67    68    66    1
    68    69    66    1
    69     4     9    1
    70    11    20    2
    71    18    20    1
    72    21    30    1
    73    28    30    1
    74    36    40    1
    75    38    42    2
    76    39    43    2
    77    44    53    2
    78    51    53    1
    79    54    63    2
    80    61    63    1
    81    70    72    1
    82    71    73    1
    83    72    73   ar
    84    73    74   ar
    85    74    75    1
    86    76    74   ar
    87    77    76    1
    88    78    76   ar
    89    79    78    1
    90    80    72   ar
    91    81    80    1
    92    78    80   ar
@<TRIPOS>SUBSTRUCTURE
     1 RES1        1 GROUP             0 ****  ****    0  
     2 RES2       70 GROUP             0 ****  ****    0  
@<TRIPOS>CRYSIN
   15.5820    9.0481   16.2830   90.0000  117.6900   90.0000   231     1
