@<TRIPOS>MOLECULE
RONPIT34
    75    82     1     0     0
SMALL
NO_CHARGES
****
Generated from the CSD

@<TRIPOS>ATOM
     1 Fe1     -0.7798   2.5985  10.5360   Fe        1 RES1   0.0000
     2 S1       3.6321   2.0705   8.9622   S.2       1 RES1   0.0000
     3 S2      -2.2117   4.5153   6.4967   S.2       1 RES1   0.0000
     4 N1      -1.4752   0.7689  10.4044   N.ar      1 RES1   0.0000
     5 N2      -2.6037   2.8890  11.2663   N.2       1 RES1   0.0000
     6 N3       0.9942   2.1540   9.8708   N.2       1 RES1   0.0000
     7 N4      -0.2097   4.4747  10.8492   N.ar      1 RES1   0.0000
     8 N5      -0.1960   2.4429  12.4345   N.2       1 RES1   0.0000
     9 N6      -1.3828   3.0276   8.7296   N.2       1 RES1   0.0000
    10 C1      -0.8457  -0.3086   9.9081   C.ar      1 RES1   0.0000
    11 H1       0.0415  -0.2144   9.5787   H         1 RES1   0.0000
    12 C2      -1.4471  -1.5432   9.8617   C.ar      1 RES1   0.0000
    13 H2      -0.9634  -2.2894   9.5264   H         1 RES1   0.0000
    14 C3      -2.7299  -1.7105  10.2925   C.ar      1 RES1   0.0000
    15 H3      -3.1490  -2.5608  10.2386   H         1 RES1   0.0000
    16 C4      -3.4164  -0.6111  10.8124   C.ar      1 RES1   0.0000
    17 H4      -4.3091  -0.6941  11.1277   H         1 RES1   0.0000
    18 C5      -2.7519   0.5999  10.8513   C.ar      1 RES1   0.0000
    19 C6      -3.3293   1.8320  11.3629   C.2       1 RES1   0.0000
    20 H5      -4.1983   1.8543  11.7492   H         1 RES1   0.0000
    21 C7      -3.0908   4.1213  11.8344   C.ar      1 RES1   0.0000
    22 C8      -3.4133   4.1969  13.1747   C.ar      1 RES1   0.0000
    23 H6      -3.3517   3.4223  13.7212   H         1 RES1   0.0000
    24 C9      -3.8253   5.3931  13.7222   C.ar      1 RES1   0.0000
    25 H7      -4.0704   5.4278  14.6396   H         1 RES1   0.0000
    26 C10     -3.8886   6.5508  12.9547   C.ar      1 RES1   0.0000
    27 C11     -3.5598   6.4528  11.6103   C.ar      1 RES1   0.0000
    28 H8      -3.6068   7.2300  11.0662   H         1 RES1   0.0000
    29 C12     -3.1671   5.2567  11.0425   C.ar      1 RES1   0.0000
    30 H9      -2.9511   5.2121  10.1186   H         1 RES1   0.0000
    31 C13     -4.3403   7.8485  13.5277   C.ar      1 RES1   0.0000
    32 C14     -5.5154   7.9291  14.2242   C.ar      1 RES1   0.0000
    33 H10     -6.0267   7.1432  14.3765   H         1 RES1   0.0000
    34 C15     -5.9693   9.1475  14.7088   C.ar      1 RES1   0.0000
    35 H11     -6.7955   9.1909  15.1733   H         1 RES1   0.0000
    36 C16     -5.2341  10.2903  14.5242   C.ar      1 RES1   0.0000
    37 H12     -5.5441  11.1220  14.8626   H         1 RES1   0.0000
    38 C17     -4.0585  10.2160  13.8504   C.ar      1 RES1   0.0000
    39 H13     -3.5340  10.9993  13.7289   H         1 RES1   0.0000
    40 C18     -3.6193   9.0050  13.3382   C.ar      1 RES1   0.0000
    41 H14     -2.8068   8.9727  12.8475   H         1 RES1   0.0000
    42 C19      2.0963   2.1096   9.4853   C.1       1 RES1   0.0000
    43 C20     -0.1704   5.5083   9.9893   C.ar      1 RES1   0.0000
    44 H15     -0.3674   5.3422   9.0742   H         1 RES1   0.0000
    45 C21      0.1408   6.7912  10.3677   C.ar      1 RES1   0.0000
    46 H16      0.1404   7.4928   9.7264   H         1 RES1   0.0000
    47 C22      0.4531   7.0540  11.6852   C.ar      1 RES1   0.0000
    48 H17      0.6605   7.9365  11.9692   H         1 RES1   0.0000
    49 C23      0.4559   6.0091  12.5785   C.ar      1 RES1   0.0000
    50 H18      0.6807   6.1591  13.4890   H         1 RES1   0.0000
    51 C24      0.1291   4.7361  12.1456   C.ar      1 RES1   0.0000
    52 C25      0.1241   3.5611  12.9858   C.2       1 RES1   0.0000
    53 H19      0.3479   3.6119  13.9074   H         1 RES1   0.0000
    54 C26     -0.2518   1.2705  13.2734   C.ar      1 RES1   0.0000
    55 C27     -0.9637   1.3015  14.4696   C.ar      1 RES1   0.0000
    56 H20     -1.4092   2.0960  14.7411   H         1 RES1   0.0000
    57 C28     -1.0185   0.1649  15.2609   C.ar      1 RES1   0.0000
    58 H21     -1.5117   0.1921  16.0717   H         1 RES1   0.0000
    59 C29     -0.3743  -1.0127  14.9055   C.ar      1 RES1   0.0000
    60 C30      0.3530  -1.0114  13.7038   C.ar      1 RES1   0.0000
    61 H22      0.8162  -1.7973  13.4367   H         1 RES1   0.0000
    62 C31      0.4077   0.1091  12.9066   C.ar      1 RES1   0.0000
    63 H23      0.9029   0.0855  12.0953   H         1 RES1   0.0000
    64 C32     -0.4999  -2.2286  15.7533   C.ar      1 RES1   0.0000
    65 C33     -0.5795  -2.1369  17.1406   C.ar      1 RES1   0.0000
    66 H24     -0.5153  -1.2854  17.5576   H         1 RES1   0.0000
    67 C34     -0.7524  -3.2723  17.9256   C.ar      1 RES1   0.0000
    68 H25     -0.8103  -3.1930  18.8698   H         1 RES1   0.0000
    69 C35     -0.8386  -4.5130  17.3300   C.ar      1 RES1   0.0000
    70 H26     -0.9551  -5.2902  17.8637   H         1 RES1   0.0000
    71 C36     -0.7564  -4.6233  15.9655   C.ar      1 RES1   0.0000
    72 H27     -0.8215  -5.4774  15.5548   H         1 RES1   0.0000
    73 C37     -0.5789  -3.4929  15.1853   C.ar      1 RES1   0.0000
    74 H28     -0.5089  -3.5846  14.2427   H         1 RES1   0.0000
    75 C38     -1.7344   3.6181   7.7891   C.1       1 RES1   0.0000
@<TRIPOS>BOND
     1     1     4    1
     2     2    42    2
     3     3    75    2
     4     4    10   ar
     5     5     1    1
     6     6     1    1
     7     7     1    1
     8     8     1    1
     9     9     1    1
    10    10    11    1
    11    12    10   ar
    12    13    12    1
    13    14    12   ar
    14    15    14    1
    15    16    14   ar
    16    17    16    1
    17    18     4   ar
    18    19     5    2
    19    20    19    1
    20    21     5    1
    21    22    21   ar
    22    23    22    1
    23    24    22   ar
    24    25    24    1
    25    26    24   ar
    26    27    26   ar
    27    28    27    1
    28    29    21   ar
    29    30    29    1
    30    31    26    1
    31    32    31   ar
    32    33    32    1
    33    34    32   ar
    34    35    34    1
    35    36    34   ar
    36    37    36    1
    37    38    36   ar
    38    39    38    1
    39    40    31   ar
    40    41    40    1
    41    42     6    2
    42    43     7   ar
    43    44    43    1
    44    45    43   ar
    45    46    45    1
    46    47    45   ar
    47    48    47    1
    48    49    47   ar
    49    50    49    1
    50    51     7   ar
    51    52     8    2
    52    53    52    1
    53    54     8    1
    54    55    54   ar
    55    56    55    1
    56    57    55   ar
    57    58    57    1
    58    59    57   ar
    59    60    59   ar
    60    61    60    1
    61    62    54   ar
    62    63    62    1
    63    64    59    1
    64    65    64   ar
    65    66    65    1
    66    67    65   ar
    67    68    67    1
    68    69    67   ar
    69    70    69    1
    70    71    69   ar
    71    72    71    1
    72    73    64   ar
    73    74    73    1
    74    75     9    2
    75    16    18   ar
    76    18    19    1
    77    27    29   ar
    78    38    40   ar
    79    49    51   ar
    80    51    52    1
    81    60    62   ar
    82    71    73   ar
@<TRIPOS>SUBSTRUCTURE
     1 RES1        1 GROUP             0 ****  ****    0  
@<TRIPOS>CRYSIN
   17.5180   12.3950   17.0710   90.0000  115.6980   90.0000    14     1
