@<TRIPOS>MOLECULE
RONPIT
    75    82     1     0     0
SMALL
NO_CHARGES
****
Generated from the CSD

@<TRIPOS>ATOM
     1 Fe1      9.7118   3.7957   1.3400   Fe        1 RES1   0.0000
     2 S1       7.6619   6.7185  -1.8366   S.2       1 RES1   0.0000
     3 N1       9.8153   2.3746   3.0816   N.2       1 RES1   0.0000
     4 N2       7.6257   3.0791   1.6552   N.ar      1 RES1   0.0000
     5 N3       9.0552   5.1273  -0.0599   N.2       1 RES1   0.0000
     6 C1       7.4819   2.2881   2.7505   C.ar      1 RES1   0.0000
     7 C2      10.9458   2.1074   3.8863   C.ar      1 RES1   0.0000
     8 C3       8.7380   1.9510   3.5112   C.2       1 RES1   0.0000
     9 C4      13.2740   1.6109   4.0184   C.ar      1 RES1   0.0000
    10 C5      12.1475   1.7749   3.2700   C.ar      1 RES1   0.0000
    11 C6      14.4951   1.5411   6.2125   C.ar      1 RES1   0.0000
    12 C7      10.8759   2.2638   5.2686   C.ar      1 RES1   0.0000
    13 C8      13.2714   1.7597   5.4077   C.ar      1 RES1   0.0000
    14 C9       6.5600   3.4405   0.9403   C.ar      1 RES1   0.0000
    15 C10     15.6048   0.6240   8.1406   C.ar      1 RES1   0.0000
    16 C11      5.2832   3.0487   1.2643   C.ar      1 RES1   0.0000
    17 C12      5.0980   2.2395   2.3614   C.ar      1 RES1   0.0000
    18 C13     16.8428   1.8235   6.4695   C.ar      1 RES1   0.0000
    19 C14     14.4537   0.8594   7.4116   C.ar      1 RES1   0.0000
    20 C15      8.4855   5.7954  -0.7801   C.1       1 RES1   0.0000
    21 C16     16.7974   1.1190   7.6546   C.ar      1 RES1   0.0000
    22 C17     15.6968   2.0345   5.7229   C.ar      1 RES1   0.0000
    23 C18     12.0270   2.0816   5.9994   C.ar      1 RES1   0.0000
    24 C19      6.1935   1.8630   3.1186   C.ar      1 RES1   0.0000
    25 H1       7.9377   1.4576   4.0501   H         1 RES1   0.0000
    26 H2      14.2051   1.3513   3.5218   H         1 RES1   0.0000
    27 H3      12.1850   1.6549   2.2011   H         1 RES1   0.0000
    28 H4       9.9448   2.5204   5.7581   H         1 RES1   0.0000
    29 H5       6.7076   4.0690   0.0704   H         1 RES1   0.0000
    30 H6      15.5647   0.0607   9.0686   H         1 RES1   0.0000
    31 H7       4.4415   3.3706   0.6691   H         1 RES1   0.0000
    32 H8       4.1048   1.8979   2.6237   H         1 RES1   0.0000
    33 H9      17.7919   2.2167   6.1279   H         1 RES1   0.0000
    34 H10     13.5058   0.5010   7.7832   H         1 RES1   0.0000
    35 H11     17.7013   0.9565   8.2058   H         1 RES1   0.0000
    36 H12     15.7330   2.5659   4.7896   H         1 RES1   0.0000
    37 H13     11.9778   2.1864   7.0788   H         1 RES1   0.0000
    38 H14      6.0601   1.2450   3.9972   H         1 RES1   0.0000
    39 N1A      9.6082   5.2169   3.0816   N.2       1 RES1   0.0000
    40 C2A      8.4777   5.4841   3.8863   C.ar      1 RES1   0.0000
    41 C5A      7.2760   5.8166   3.2700   C.ar      1 RES1   0.0000
    42 C4A      6.1495   5.9806   4.0184   C.ar      1 RES1   0.0000
    43 C8A      6.1521   5.8318   5.4077   C.ar      1 RES1   0.0000
    44 C6A      4.9284   6.0504   6.2125   C.ar      1 RES1   0.0000
    45 C14A     4.9698   6.7321   7.4116   C.ar      1 RES1   0.0000
    46 C10A     3.8187   6.9675   8.1406   C.ar      1 RES1   0.0000
    47 C16A     2.6261   6.4725   7.6546   C.ar      1 RES1   0.0000
    48 C13A     2.5807   5.7680   6.4695   C.ar      1 RES1   0.0000
    49 C17A     3.7267   5.5570   5.7229   C.ar      1 RES1   0.0000
    50 H12A     3.6905   5.0256   4.7896   H         1 RES1   0.0000
    51 H9A      1.6316   5.3748   6.1279   H         1 RES1   0.0000
    52 H11A     1.7222   6.6350   8.2058   H         1 RES1   0.0000
    53 H6A      3.8588   7.5308   9.0686   H         1 RES1   0.0000
    54 H10A     5.9177   7.0905   7.7832   H         1 RES1   0.0000
    55 C18A     7.3965   5.5099   5.9994   C.ar      1 RES1   0.0000
    56 C7A      8.5476   5.3277   5.2686   C.ar      1 RES1   0.0000
    57 H4A      9.4787   5.0711   5.7581   H         1 RES1   0.0000
    58 H13A     7.4457   5.4051   7.0788   H         1 RES1   0.0000
    59 H2A      5.2184   6.2402   3.5218   H         1 RES1   0.0000
    60 H3A      7.2385   5.9366   2.2011   H         1 RES1   0.0000
    61 C3A     10.6855   5.6405   3.5112   C.2       1 RES1   0.0000
    62 C1A     11.9416   5.3034   2.7505   C.ar      1 RES1   0.0000
    63 N2A     11.7978   4.5124   1.6552   N.ar      1 RES1   0.0000
    64 N3A     10.3683   2.4642  -0.0599   N.2       1 RES1   0.0000
    65 C15A    10.9380   1.7961  -0.7801   C.1       1 RES1   0.0000
    66 S1A     11.7616   0.8730  -1.8366   S.2       1 RES1   0.0000
    67 C9A     12.8635   4.1510   0.9403   C.ar      1 RES1   0.0000
    68 C11A    14.1403   4.5428   1.2643   C.ar      1 RES1   0.0000
    69 C12A    14.3255   5.3520   2.3614   C.ar      1 RES1   0.0000
    70 C19A    13.2300   5.7285   3.1186   C.ar      1 RES1   0.0000
    71 H14A    13.3634   6.3465   3.9972   H         1 RES1   0.0000
    72 H8A     15.3187   5.6936   2.6237   H         1 RES1   0.0000
    73 H7A     14.9820   4.2209   0.6691   H         1 RES1   0.0000
    74 H5A     12.7159   3.5225   0.0704   H         1 RES1   0.0000
    75 H1A     11.4858   6.1339   4.0501   H         1 RES1   0.0000
@<TRIPOS>BOND
     1     1     3    1
     2     2    20    2
     3     3     7    1
     4     4     1    1
     5     5     1    1
     6     6     4   ar
     7     7    10   ar
     8     8     3    2
     9     9    10   ar
    10    10    27    1
    11    11    13    1
    12    12     7   ar
    13    13     9   ar
    14    14     4   ar
    15    15    19   ar
    16    16    14   ar
    17    17    16   ar
    18    18    21   ar
    19    19    11   ar
    20    20     5    2
    21    21    15   ar
    22    22    11   ar
    23    23    12   ar
    24    24     6   ar
    25    25     8    1
    26    26     9    1
    27    28    12    1
    28    29    14    1
    29    30    15    1
    30    31    16    1
    31    32    17    1
    32    33    18    1
    33    34    19    1
    34    35    21    1
    35    36    22    1
    36    37    23    1
    37    38    24    1
    38    39     1    1
    39    40    39    1
    40    41    40   ar
    41    42    41   ar
    42    43    42   ar
    43    44    43    1
    44    45    44   ar
    45    46    45   ar
    46    47    46   ar
    47    48    47   ar
    48    49    44   ar
    49    50    49    1
    50    51    48    1
    51    52    47    1
    52    53    46    1
    53    54    45    1
    54    55    43   ar
    55    56    40   ar
    56    57    56    1
    57    58    55    1
    58    59    42    1
    59    60    41    1
    60    61    39    2
    61    62    61    1
    62    63     1    1
    63    64     1    1
    64    65    64    2
    65    66    65    2
    66    67    63   ar
    67    68    67   ar
    68    69    68   ar
    69    70    62   ar
    70    71    70    1
    71    72    69    1
    72    73    68    1
    73    74    67    1
    74    75    61    1
    75     6     8    1
    76    13    23   ar
    77    17    24   ar
    78    18    22   ar
    79    48    49   ar
    80    55    56   ar
    81    62    63   ar
    82    69    70   ar
@<TRIPOS>SUBSTRUCTURE
     1 RES1        1 GROUP             0 ****  ****    0  
@<TRIPOS>CRYSIN
   12.9490   15.1830   17.6090   90.0000   90.0000   90.0000    56     1
