@<TRIPOS>MOLECULE
RONPIT30
    75    82     1     0     0
SMALL
NO_CHARGES
****
Generated from the CSD

@<TRIPOS>ATOM
     1 Fe1     -0.9016   2.4693  10.5535   Fe        1 RES1   0.0000
     2 S1       3.5419   1.9747   9.0409   S.2       1 RES1   0.0000
     3 S2      -2.4097   4.8357   6.7231   S.2       1 RES1   0.0000
     4 N1      -1.8311   0.5341  10.6085   N.ar      1 RES1   0.0000
     5 N2      -2.8917   2.8276  11.4720   N.2       1 RES1   0.0000
     6 N3       0.9327   1.7757   9.9000   N.2       1 RES1   0.0000
     7 N4      -0.3023   4.4877  11.0417   N.ar      1 RES1   0.0000
     8 N5      -0.3485   2.3689  12.7010   N.2       1 RES1   0.0000
     9 N6      -1.5491   3.0789   8.6879   N.2       1 RES1   0.0000
    10 C1      -1.2999  -0.5831  10.1174   C.ar      1 RES1   0.0000
    11 H1      -0.4397  -0.5530   9.7374   H         1 RES1   0.0000
    12 C2      -1.9759  -1.7883  10.1518   C.ar      1 RES1   0.0000
    13 H2      -1.5769  -2.5700   9.8156   H         1 RES1   0.0000
    14 C3      -3.2390  -1.8222  10.6851   C.ar      1 RES1   0.0000
    15 H3      -3.7202  -2.6290  10.6945   H         1 RES1   0.0000
    16 C4      -3.8019  -0.6799  11.2060   C.ar      1 RES1   0.0000
    17 H4      -4.6612  -0.6962  11.5876   H         1 RES1   0.0000
    18 C5      -3.0672   0.4989  11.1543   C.ar      1 RES1   0.0000
    19 C6      -3.5643   1.7581  11.6579   C.2       1 RES1   0.0000
    20 H5      -4.3829   1.7908  12.1209   H         1 RES1   0.0000
    21 C7      -3.3487   4.0516  12.0724   C.ar      1 RES1   0.0000
    22 C8      -3.6871   4.1245  13.4252   C.ar      1 RES1   0.0000
    23 H6      -3.6759   3.3504  13.9570   H         1 RES1   0.0000
    24 C9      -4.0376   5.3322  13.9711   C.ar      1 RES1   0.0000
    25 H7      -4.2701   5.3749  14.8813   H         1 RES1   0.0000
    26 C10     -4.0558   6.4871  13.2125   C.ar      1 RES1   0.0000
    27 C11     -3.7150   6.4029  11.8691   C.ar      1 RES1   0.0000
    28 H8      -3.7205   7.1821  11.3436   H         1 RES1   0.0000
    29 C12     -3.3714   5.1965  11.2873   C.ar      1 RES1   0.0000
    30 H9      -3.1566   5.1513  10.3739   H         1 RES1   0.0000
    31 C13     -4.4697   7.7828  13.7959   C.ar      1 RES1   0.0000
    32 C14     -5.6478   7.8934  14.4809   C.ar      1 RES1   0.0000
    33 H10     -6.1765   7.1293  14.6248   H         1 RES1   0.0000
    34 C15     -6.0745   9.1325  14.9720   C.ar      1 RES1   0.0000
    35 H11     -6.8997   9.1941  15.4162   H         1 RES1   0.0000
    36 C16     -5.3213  10.2422  14.8172   C.ar      1 RES1   0.0000
    37 H12     -5.5991  11.0678  15.1691   H         1 RES1   0.0000
    38 C17     -4.1737  10.1366  14.1556   C.ar      1 RES1   0.0000
    39 H13     -3.6443  10.9032  14.0321   H         1 RES1   0.0000
    40 C18     -3.7309   8.9113  13.6348   C.ar      1 RES1   0.0000
    41 H14     -2.9150   8.8711  13.1703   H         1 RES1   0.0000
    42 C19      2.0260   1.8587   9.5419   C.1       1 RES1   0.0000
    43 C20     -0.2505   5.5396  10.2175   C.ar      1 RES1   0.0000
    44 H15     -0.3806   5.3925   9.2979   H         1 RES1   0.0000
    45 C21     -0.0156   6.8227  10.6460   C.ar      1 RES1   0.0000
    46 H16     -0.0011   7.5377  10.0361   H         1 RES1   0.0000
    47 C22      0.1944   7.0439  11.9911   C.ar      1 RES1   0.0000
    48 H17      0.3520   7.9135  12.3133   H         1 RES1   0.0000
    49 C23      0.1699   5.9681  12.8560   C.ar      1 RES1   0.0000
    50 H18      0.3174   6.0988  13.7756   H         1 RES1   0.0000
    51 C24     -0.0736   4.7039  12.3696   C.ar      1 RES1   0.0000
    52 C25     -0.1138   3.5188  13.2094   C.2       1 RES1   0.0000
    53 H19      0.0348   3.5992  14.1337   H         1 RES1   0.0000
    54 C26     -0.4323   1.2504  13.5879   C.ar      1 RES1   0.0000
    55 C27     -1.1068   1.3208  14.7937   C.ar      1 RES1   0.0000
    56 H20     -1.5178   2.1226  15.0612   H         1 RES1   0.0000
    57 C28     -1.1706   0.2061  15.5961   C.ar      1 RES1   0.0000
    58 H21     -1.6399   0.2614  16.4093   H         1 RES1   0.0000
    59 C29     -0.5745  -0.9878  15.2551   C.ar      1 RES1   0.0000
    60 C30      0.1084  -1.0406  14.0462   C.ar      1 RES1   0.0000
    61 H22      0.5357  -1.8361  13.7881   H         1 RES1   0.0000
    62 C31      0.1647   0.0566  13.2235   C.ar      1 RES1   0.0000
    63 H23      0.6159  -0.0038  12.4008   H         1 RES1   0.0000
    64 C32     -0.7071  -2.1879  16.1169   C.ar      1 RES1   0.0000
    65 C33     -0.7978  -2.0698  17.4900   C.ar      1 RES1   0.0000
    66 H24     -0.7381  -1.2215  17.8889   H         1 RES1   0.0000
    67 C34     -0.9790  -3.1983  18.2939   C.ar      1 RES1   0.0000
    68 H25     -1.0349  -3.1053  19.2276   H         1 RES1   0.0000
    69 C35     -1.0739  -4.4387  17.7231   C.ar      1 RES1   0.0000
    70 H26     -1.2064  -5.1965  18.2642   H         1 RES1   0.0000
    71 C36     -0.9773  -4.5757  16.3702   C.ar      1 RES1   0.0000
    72 H27     -1.0368  -5.4265  15.9745   H         1 RES1   0.0000
    73 C37     -0.7943  -3.4622  15.5914   C.ar      1 RES1   0.0000
    74 H28     -0.7242  -3.5703  14.6608   H         1 RES1   0.0000
    75 C38     -1.9106   3.8103   7.8622   C.1       1 RES1   0.0000
@<TRIPOS>BOND
     1     1     4    1
     2     2    42    2
     3     3    75    2
     4     4    10   ar
     5     5     1    1
     6     6     1    1
     7     7     1    1
     8     8     1    1
     9     9     1    1
    10    10    11    1
    11    12    10   ar
    12    13    12    1
    13    14    12   ar
    14    15    14    1
    15    16    14   ar
    16    17    16    1
    17    18     4   ar
    18    19     5    2
    19    20    19    1
    20    21     5    1
    21    22    21   ar
    22    23    22    1
    23    24    22   ar
    24    25    24    1
    25    26    24   ar
    26    27    26   ar
    27    28    27    1
    28    29    21   ar
    29    30    29    1
    30    31    26    1
    31    32    31   ar
    32    33    32    1
    33    34    32   ar
    34    35    34    1
    35    36    34   ar
    36    37    36    1
    37    38    36   ar
    38    39    38    1
    39    40    31   ar
    40    41    40    1
    41    42     6    2
    42    43     7   ar
    43    44    43    1
    44    45    43   ar
    45    46    45    1
    46    47    45   ar
    47    48    47    1
    48    49    47   ar
    49    50    49    1
    50    51     7   ar
    51    52     8    2
    52    53    52    1
    53    54     8    1
    54    55    54   ar
    55    56    55    1
    56    57    55   ar
    57    58    57    1
    58    59    57   ar
    59    60    59   ar
    60    61    60    1
    61    62    54   ar
    62    63    62    1
    63    64    59    1
    64    65    64   ar
    65    66    65    1
    66    67    65   ar
    67    68    67    1
    68    69    67   ar
    69    70    69    1
    70    71    69   ar
    71    72    71    1
    72    73    64   ar
    73    74    73    1
    74    75     9    2
    75    16    18   ar
    76    18    19    1
    77    27    29   ar
    78    38    40   ar
    79    49    51   ar
    80    51    52    1
    81    60    62   ar
    82    71    73   ar
@<TRIPOS>SUBSTRUCTURE
     1 RES1        1 GROUP             0 ****  ****    0  
@<TRIPOS>CRYSIN
   17.3972   12.5671   17.3678   90.0000  115.7750   90.0000    14     1
