@<TRIPOS>MOLECULE
RONPIT08
    75    82     1     0     0
SMALL
USER_CHARGES
****
Generated from the CSD

@<TRIPOS>ATOM
     1 Fe1      9.7229   3.6780   1.4010   Fe        1 RES1   2.0000
     2 S1      11.8957   6.5294  -1.8470   S.2       1 RES1  -1.0000
     3 N1       9.6891   2.2541   3.1374   N.2       1 RES1   0.0000
     4 N2      11.8295   3.0105   1.6922   N.ar      1 RES1   0.0000
     5 N3      10.3931   5.0167  -0.0223   N.1       1 RES1   0.0000
     6 C1       3.7323   1.9596   5.8192   C.ar      1 RES1   0.0000
     7 C2       8.5483   2.0089   3.9621   C.ar      1 RES1   0.0000
     8 C3       8.6002   2.1567   5.3479   C.ar      1 RES1   0.0000
     9 C4       6.2174   1.6963   5.4909   C.ar      1 RES1   0.0000
    10 C5       7.3336   1.6963   3.3320   C.ar      1 RES1   0.0000
    11 C6       6.1798   1.5477   4.0970   C.ar      1 RES1   0.0000
    12 C7       7.4386   1.9905   6.0986   C.ar      1 RES1   0.0000
    13 C8      14.2057   2.9997   1.3130   C.ar      1 RES1   0.0000
    14 C9       2.5668   1.7713   6.5526   C.ar      1 RES1   0.0000
    15 C10     13.3112   1.8213   3.1825   C.ar      1 RES1   0.0000
    16 C11     10.8351   1.8581   3.5410   C.2       1 RES1   0.0000
    17 C12     14.4054   2.2127   2.4369   C.ar      1 RES1   0.0000
    18 C13     12.0395   2.2318   2.7879   C.ar      1 RES1   0.0000
    19 C14      3.8425   0.6400   8.2632   C.ar      1 RES1   0.0000
    20 C15      4.9742   1.5006   6.2926   C.ar      1 RES1   0.0000
    21 C16     12.9042   3.3690   0.9774   C.ar      1 RES1   0.0000
    22 C17      2.6226   1.1004   7.7755   C.ar      1 RES1   0.0000
    23 C18      5.0079   0.8400   7.5296   C.ar      1 RES1   0.0000
    24 C19     11.0166   5.6376  -0.7927   C.1       1 RES1   0.0000
    25 H1       5.3281   1.2652   3.6757   H         1 RES1   0.0000
    26 H2       3.8891   0.1765   9.1150   H         1 RES1   0.0000
    27 H3       7.3375   1.5595   2.3804   H         1 RES1   0.0000
    28 H4       7.4542   2.0891   7.0333   H         1 RES1   0.0000
    29 H5       9.4117   2.4422   5.7309   H         1 RES1   0.0000
    30 H6      10.9285   1.4123   4.3295   H         1 RES1   0.0000
    31 H7      12.7175   3.9281   0.2103   H         1 RES1   0.0000
    32 H8       1.7501   2.0597   6.2539   H         1 RES1   0.0000
    33 H9      15.3232   1.9420   2.6331   H         1 RES1   0.0000
    34 H10     13.4046   1.2358   3.9584   H         1 RES1   0.0000
    35 H11      5.8985   0.5443   7.8815   H         1 RES1   0.0000
    36 H12      1.8927   0.9268   8.2172   H         1 RES1   0.0000
    37 H13      3.7076   2.4569   4.9480   H         1 RES1   0.0000
    38 H14     14.8695   3.2954   0.7422   H         1 RES1   0.0000
    39 N1A      9.7566   5.1018   3.1374   N.2       1 RES1   0.0000
    40 C2A     10.8974   5.3470   3.9621   C.ar      1 RES1   0.0000
    41 C3A     10.8455   5.1992   5.3479   C.ar      1 RES1   0.0000
    42 C7A     12.0071   5.3654   6.0986   C.ar      1 RES1   0.0000
    43 C4A     13.2283   5.6596   5.4909   C.ar      1 RES1   0.0000
    44 C6A     13.2659   5.8082   4.0970   C.ar      1 RES1   0.0000
    45 C5A     12.1121   5.6596   3.3320   C.ar      1 RES1   0.0000
    46 H3A     12.1082   5.7964   2.3804   H         1 RES1   0.0000
    47 H1A     14.1176   6.0907   3.6757   H         1 RES1   0.0000
    48 C15A    14.4715   5.8553   6.2926   C.ar      1 RES1   0.0000
    49 C1A     15.7134   5.3963   5.8192   C.ar      1 RES1   0.0000
    50 C9A     16.8789   5.5846   6.5526   C.ar      1 RES1   0.0000
    51 C17A    16.8231   6.2555   7.7755   C.ar      1 RES1   0.0000
    52 C14A    15.6032   6.7159   8.2632   C.ar      1 RES1   0.0000
    53 C18A    14.4378   6.5159   7.5296   C.ar      1 RES1   0.0000
    54 H11A    13.5472   6.8116   7.8815   H         1 RES1   0.0000
    55 H2A     15.5566   7.1794   9.1150   H         1 RES1   0.0000
    56 H12A    17.5530   6.4291   8.2172   H         1 RES1   0.0000
    57 H8A     17.6956   5.2962   6.2539   H         1 RES1   0.0000
    58 H13A    15.7381   4.8990   4.9480   H         1 RES1   0.0000
    59 H4A     11.9915   5.2668   7.0333   H         1 RES1   0.0000
    60 H5A     10.0340   4.9137   5.7309   H         1 RES1   0.0000
    61 C11A     8.6106   5.4978   3.5410   C.2       1 RES1   0.0000
    62 C13A     7.4062   5.1241   2.7879   C.ar      1 RES1   0.0000
    63 N2A      7.6162   4.3454   1.6922   N.ar      1 RES1   0.0000
    64 N3A      9.0526   2.3392  -0.0223   N.1       1 RES1   0.0000
    65 C19A     8.4291   1.7183  -0.7927   C.1       1 RES1   0.0000
    66 S1A      7.5500   0.8265  -1.8470   S.2       1 RES1  -1.0000
    67 C16A     6.5415   3.9869   0.9774   C.ar      1 RES1   0.0000
    68 C8A      5.2400   4.3562   1.3130   C.ar      1 RES1   0.0000
    69 C12A     5.0403   5.1432   2.4369   C.ar      1 RES1   0.0000
    70 C10A     6.1345   5.5346   3.1825   C.ar      1 RES1   0.0000
    71 H10A     6.0411   6.1201   3.9584   H         1 RES1   0.0000
    72 H9A      4.1225   5.4139   2.6331   H         1 RES1   0.0000
    73 H14A     4.5762   4.0605   0.7422   H         1 RES1   0.0000
    74 H7A      6.7282   3.4278   0.2103   H         1 RES1   0.0000
    75 H6A      8.5172   5.9436   4.3295   H         1 RES1   0.0000
@<TRIPOS>BOND
     1     1     3    1
     2     2    24    1
     3     3     7    1
     4     4     1    1
     5     5     1    1
     6     6    14   ar
     7     7     8   ar
     8     8    12   ar
     9     9    11   ar
    10    10     7   ar
    11    11    10   ar
    12    12     9   ar
    13    13    17   ar
    14    14    22   ar
    15    15    17   ar
    16    16     3    2
    17    17    33    1
    18    18     4   ar
    19    19    22   ar
    20    20     6   ar
    21    21     4   ar
    22    22    36    1
    23    23    19   ar
    24    24     5    3
    25    25    11    1
    26    26    19    1
    27    27    10    1
    28    28    12    1
    29    29     8    1
    30    30    16    1
    31    31    21    1
    32    32    14    1
    33    34    15    1
    34    35    23    1
    35    37     6    1
    36    38    13    1
    37    39     1    1
    38    40    39    1
    39    41    40   ar
    40    42    41   ar
    41    43    42   ar
    42    44    43   ar
    43    45    40   ar
    44    46    45    1
    45    47    44    1
    46    48    43    1
    47    49    48   ar
    48    50    49   ar
    49    51    50   ar
    50    52    51   ar
    51    53    48   ar
    52    54    53    1
    53    55    52    1
    54    56    51    1
    55    57    50    1
    56    58    49    1
    57    59    42    1
    58    60    41    1
    59    61    39    2
    60    62    61    1
    61    63     1    1
    62    64     1    1
    63    65    64    3
    64    66    65    1
    65    67    63   ar
    66    68    67   ar
    67    69    68   ar
    68    70    62   ar
    69    71    70    1
    70    72    69    1
    71    73    68    1
    72    74    67    1
    73    75    61    1
    74     9    20    1
    75    13    21   ar
    76    15    18   ar
    77    16    18    1
    78    20    23   ar
    79    44    45   ar
    80    52    53   ar
    81    62    63   ar
    82    69    70   ar
@<TRIPOS>SUBSTRUCTURE
     1 RES1        1 GROUP             0 ****  ****    0  
@<TRIPOS>CRYSIN
   12.9638   14.7118   17.6715   90.0000   90.0000   90.0000    56     1
