@<TRIPOS>MOLECULE
RONPIT31
    75    82     1     0     0
SMALL
NO_CHARGES
****
Generated from the CSD

@<TRIPOS>ATOM
     1 Fe1     -0.8776   2.4715  10.5525   Fe        1 RES1   0.0000
     2 S1       3.5591   1.9838   9.0313   S.2       1 RES1   0.0000
     3 S2      -2.3844   4.8130   6.7020   S.2       1 RES1   0.0000
     4 N1      -1.7940   0.5574  10.5974   N.ar      1 RES1   0.0000
     5 N2      -2.8378   2.8347  11.4528   N.2       1 RES1   0.0000
     6 N3       0.9565   1.7802   9.9088   N.2       1 RES1   0.0000
     7 N4      -0.2868   4.4742  11.0237   N.ar      1 RES1   0.0000
     8 N5      -0.3239   2.3790  12.6741   N.2       1 RES1   0.0000
     9 N6      -1.5078   3.0481   8.7034   N.2       1 RES1   0.0000
    10 C1      -1.2607  -0.5925  10.1243   C.ar      1 RES1   0.0000
    11 H1      -0.3926  -0.5925   9.7683   H         1 RES1   0.0000
    12 C2      -2.0061  -1.7902  10.1634   C.ar      1 RES1   0.0000
    13 H2      -1.6319  -2.5836   9.8261   H         1 RES1   0.0000
    14 C3      -3.2646  -1.8090  10.6880   C.ar      1 RES1   0.0000
    15 H3      -3.7648  -2.6062  10.7052   H         1 RES1   0.0000
    16 C4      -3.7866  -0.6603  11.1845   C.ar      1 RES1   0.0000
    17 H4      -4.6459  -0.6566  11.5655   H         1 RES1   0.0000
    18 C5      -3.0444   0.5047  11.1268   C.ar      1 RES1   0.0000
    19 C6      -3.5344   1.7764  11.6327   C.2       1 RES1   0.0000
    20 H5      -4.3542   1.8216  12.0870   H         1 RES1   0.0000
    21 C7      -3.3071   4.0562  12.0386   C.ar      1 RES1   0.0000
    22 C8      -3.6349   4.1252  13.3862   C.ar      1 RES1   0.0000
    23 H6      -3.6221   3.3519  13.9202   H         1 RES1   0.0000
    24 C9      -3.9852   5.3455  13.9342   C.ar      1 RES1   0.0000
    25 H7      -4.2107   5.3932  14.8445   H         1 RES1   0.0000
    26 C10     -4.0066   6.4954  13.1722   C.ar      1 RES1   0.0000
    27 C11     -3.6754   6.4051  11.8247   C.ar      1 RES1   0.0000
    28 H8      -3.6988   7.1759  11.2876   H         1 RES1   0.0000
    29 C12     -3.3156   5.2074  11.2751   C.ar      1 RES1   0.0000
    30 H9      -3.0725   5.1660  10.3679   H         1 RES1   0.0000
    31 C13     -4.4261   7.7985  13.7484   C.ar      1 RES1   0.0000
    32 C14     -5.5894   7.8877  14.4511   C.ar      1 RES1   0.0000
    33 H10     -6.1067   7.1181  14.6088   H         1 RES1   0.0000
    34 C15     -6.0083   9.1142  14.9320   C.ar      1 RES1   0.0000
    35 H11     -6.8246   9.1619  15.3973   H         1 RES1   0.0000
    36 C16     -5.2980  10.2403  14.7633   C.ar      1 RES1   0.0000
    37 H12     -5.6093  11.0626  15.0928   H         1 RES1   0.0000
    38 C17     -4.1259  10.1562  14.1075   C.ar      1 RES1   0.0000
    39 H13     -3.5983  10.9257  13.9936   H         1 RES1   0.0000
    40 C18     -3.6811   8.9259  13.5907   C.ar      1 RES1   0.0000
    41 H14     -2.8625   8.8832  13.1316   H         1 RES1   0.0000
    42 C19      2.0545   1.8731   9.5482   C.1       1 RES1   0.0000
    43 C20     -0.2352   5.5263  10.2040   C.ar      1 RES1   0.0000
    44 H15     -0.3788   5.3819   9.2874   H         1 RES1   0.0000
    45 C21      0.0158   6.8080  10.6255   C.ar      1 RES1   0.0000
    46 H16      0.0359   7.5173  10.0088   H         1 RES1   0.0000
    47 C22      0.2369   7.0403  11.9559   C.ar      1 RES1   0.0000
    48 H17      0.4034   7.9103  12.2713   H         1 RES1   0.0000
    49 C23      0.2097   5.9707  12.8225   C.ar      1 RES1   0.0000
    50 H18      0.3612   6.1000  13.7406   H         1 RES1   0.0000
    51 C24     -0.0388   4.7140  12.3306   C.ar      1 RES1   0.0000
    52 C25     -0.0461   3.5289  13.1957   C.2       1 RES1   0.0000
    53 H19      0.1471   3.6043  14.1138   H         1 RES1   0.0000
    54 C26     -0.3739   1.2516  13.5595   C.ar      1 RES1   0.0000
    55 C27     -1.0618   1.3131  14.7665   C.ar      1 RES1   0.0000
    56 H20     -1.4751   2.1141  15.0335   H         1 RES1   0.0000
    57 C28     -1.1371   0.1971  15.5706   C.ar      1 RES1   0.0000
    58 H21     -1.6127   0.2473  16.3794   H         1 RES1   0.0000
    59 C29     -0.5319  -0.9930  15.2193   C.ar      1 RES1   0.0000
    60 C30      0.1515  -1.0344  13.9998   C.ar      1 RES1   0.0000
    61 H22      0.5728  -1.8316  13.7344   H         1 RES1   0.0000
    62 C31      0.2159   0.0590  13.1894   C.ar      1 RES1   0.0000
    63 H23      0.6670   0.0000  12.3665   H         1 RES1   0.0000
    64 C32     -0.6778  -2.2057  16.0906   C.ar      1 RES1   0.0000
    65 C33     -0.7507  -2.0764  17.4755   C.ar      1 RES1   0.0000
    66 H24     -0.6758  -1.2240  17.8659   H         1 RES1   0.0000
    67 C34     -0.9318  -3.1862  18.2828   C.ar      1 RES1   0.0000
    68 H25     -0.9912  -3.0833  19.2165   H         1 RES1   0.0000
    69 C35     -1.0274  -4.4416  17.7223   C.ar      1 RES1   0.0000
    70 H26     -1.1396  -5.1961  18.2703   H         1 RES1   0.0000
    71 C36     -0.9578  -4.5835  16.3513   C.ar      1 RES1   0.0000
    72 H27     -1.0466  -5.4334  15.9610   H         1 RES1   0.0000
    73 C37     -0.7581  -3.4724  15.5487   C.ar      1 RES1   0.0000
    74 H28     -0.6766  -3.5829  14.6197   H         1 RES1   0.0000
    75 C38     -1.8672   3.7762   7.8743   C.1       1 RES1   0.0000
@<TRIPOS>BOND
     1     1     4    1
     2     2    42    2
     3     3    75    2
     4     4    10   ar
     5     5     1    1
     6     6     1    1
     7     7     1    1
     8     8     1    1
     9     9     1    1
    10    10    11    1
    11    12    10   ar
    12    13    12    1
    13    14    12   ar
    14    15    14    1
    15    16    14   ar
    16    17    16    1
    17    18     4   ar
    18    19     5    2
    19    20    19    1
    20    21     5    1
    21    22    21   ar
    22    23    22    1
    23    24    22   ar
    24    25    24    1
    25    26    24   ar
    26    27    26   ar
    27    28    27    1
    28    29    21   ar
    29    30    29    1
    30    31    26    1
    31    32    31   ar
    32    33    32    1
    33    34    32   ar
    34    35    34    1
    35    36    34   ar
    36    37    36    1
    37    38    36   ar
    38    39    38    1
    39    40    31   ar
    40    41    40    1
    41    42     6    2
    42    43     7   ar
    43    44    43    1
    44    45    43   ar
    45    46    45    1
    46    47    45   ar
    47    48    47    1
    48    49    47   ar
    49    50    49    1
    50    51     7   ar
    51    52     8    2
    52    53    52    1
    53    54     8    1
    54    55    54   ar
    55    56    55    1
    56    57    55   ar
    57    58    57    1
    58    59    57   ar
    59    60    59   ar
    60    61    60    1
    61    62    54   ar
    62    63    62    1
    63    64    59    1
    64    65    64   ar
    65    66    65    1
    66    67    65   ar
    67    68    67    1
    68    69    67   ar
    69    70    69    1
    70    71    69   ar
    71    72    71    1
    72    73    64   ar
    73    74    73    1
    74    75     9    2
    75    16    18   ar
    76    18    19    1
    77    27    29   ar
    78    38    40   ar
    79    49    51   ar
    80    51    52    1
    81    60    62   ar
    82    71    73   ar
@<TRIPOS>SUBSTRUCTURE
     1 RES1        1 GROUP             0 ****  ****    0  
@<TRIPOS>CRYSIN
   17.3820   12.5540   17.3240   90.0000  115.6690   90.0000    14     1
