@<TRIPOS>MOLECULE
RONPIT02
    75    82     1     0     0
SMALL
NO_CHARGES
****
Generated from the CSD

@<TRIPOS>ATOM
     1 Fe1      3.0925   3.6910   1.6442   Fe        1 RES1   0.0000
     2 S1       4.2944   0.8873  -1.9690   S.2       1 RES1   0.0000
     3 N1       3.3968   2.3783   3.0747   N.2       1 RES1   0.0000
     4 N2       1.2927   2.9110   1.7431   N.ar      1 RES1   0.0000
     5 N3       3.5910   2.4390   0.2508   N.2       1 RES1   0.0000
     6 C1       4.6140   2.2235   3.8258   C.ar      1 RES1   0.0000
     7 C2       5.7793   1.8425   3.1725   C.ar      1 RES1   0.0000
     8 H1       5.7694   1.6610   2.2400   H         1 RES1   0.0000
     9 C3       6.9557   1.7289   3.8953   C.ar      1 RES1   0.0000
    10 H2       7.7535   1.4764   3.4449   H         1 RES1   0.0000
    11 C4       8.2483   1.7687   6.0474   C.ar      1 RES1   0.0000
    12 C5       1.1331   1.9872   2.7259   C.ar      1 RES1   0.0000
    13 C6       7.0002   1.9769   5.2689   C.ar      1 RES1   0.0000
    14 C7       2.3491   1.7392   3.4639   C.2       1 RES1   0.0000
    15 H3       2.3750   1.1354   4.1975   H         1 RES1   0.0000
    16 C8       9.5051   2.0374   5.5008   C.ar      1 RES1   0.0000
    17 H4       9.5707   2.3814   4.6160   H         1 RES1   0.0000
    18 C9       3.8706   1.8056  -0.6806   C.1       1 RES1   0.0000
    19 C10      8.1902   1.2712   7.3453   C.ar      1 RES1   0.0000
    20 H5       7.3453   1.0866   7.7383   H         1 RES1   0.0000
    21 C11      4.6313   2.4892   5.1944   C.ar      1 RES1   0.0000
    22 H6       3.8359   2.7520   5.6410   H         1 RES1   0.0000
    23 C12      5.8176   2.3696   5.8971   C.ar      1 RES1   0.0000
    24 H7       5.8275   2.5571   6.8283   H         1 RES1   0.0000
    25 C13     -1.1653   1.6683   2.1718   C.ar      1 RES1   0.0000
    26 H8      -2.0039   1.2417   2.3089   H         1 RES1   0.0000
    27 C14      0.2239   3.2023   0.9780   C.ar      1 RES1   0.0000
    28 H9       0.3216   3.8357   0.2760   H         1 RES1   0.0000
    29 C15     -0.0767   1.3583   2.9615   C.ar      1 RES1   0.0000
    30 H10     -0.1559   0.7190   3.6617   H         1 RES1   0.0000
    31 C16     -1.0057   2.6132   1.1736   C.ar      1 RES1   0.0000
    32 H11     -1.7429   2.8568   0.6252   H         1 RES1   0.0000
    33 C17     10.5838   1.3096   7.5208   C.ar      1 RES1   0.0000
    34 H12     11.3755   1.1531   8.0217   H         1 RES1   0.0000
    35 C18     10.6642   1.8056   6.2375   C.ar      1 RES1   0.0000
    36 H13     11.5128   1.9902   5.8536   H         1 RES1   0.0000
    37 C19      9.3517   1.0409   8.0729   C.ar      1 RES1   0.0000
    38 H14      9.2961   0.6954   8.9577   H         1 RES1   0.0000
    39 N1A      2.7882   5.0037   3.0747   N.2       1 RES1   0.0000
    40 C1A      1.5710   5.1585   3.8258   C.ar      1 RES1   0.0000
    41 C2A      0.4057   5.5395   3.1725   C.ar      1 RES1   0.0000
    42 H1A      0.4156   5.7211   2.2400   H         1 RES1   0.0000
    43 C3A     -0.7707   5.6531   3.8953   C.ar      1 RES1   0.0000
    44 H2A     -1.5685   5.9056   3.4449   H         1 RES1   0.0000
    45 C6A     -0.8152   5.4051   5.2689   C.ar      1 RES1   0.0000
    46 C4A     -2.0633   5.6133   6.0474   C.ar      1 RES1   0.0000
    47 C8A     -3.3201   5.3446   5.5008   C.ar      1 RES1   0.0000
    48 H4A     -3.3857   5.0006   4.6160   H         1 RES1   0.0000
    49 C18A    -4.4792   5.5764   6.2375   C.ar      1 RES1   0.0000
    50 C17A    -4.3988   6.0724   7.5208   C.ar      1 RES1   0.0000
    51 H12A    -5.1905   6.2289   8.0217   H         1 RES1   0.0000
    52 C19A    -3.1667   6.3411   8.0729   C.ar      1 RES1   0.0000
    53 C10A    -2.0052   6.1108   7.3453   C.ar      1 RES1   0.0000
    54 H5A     -1.1603   6.2954   7.7383   H         1 RES1   0.0000
    55 H14A    -3.1111   6.6866   8.9577   H         1 RES1   0.0000
    56 H13A    -5.3278   5.3918   5.8536   H         1 RES1   0.0000
    57 C12A     0.3674   5.0124   5.8971   C.ar      1 RES1   0.0000
    58 C11A     1.5537   4.8928   5.1944   C.ar      1 RES1   0.0000
    59 H6A      2.3491   4.6300   5.6410   H         1 RES1   0.0000
    60 H7A      0.3575   4.8249   6.8283   H         1 RES1   0.0000
    61 C7A      3.8359   5.6428   3.4639   C.2       1 RES1   0.0000
    62 C5A      5.0519   5.3948   2.7259   C.ar      1 RES1   0.0000
    63 N2A      4.8923   4.4710   1.7431   N.ar      1 RES1   0.0000
    64 N3A      2.5940   4.9430   0.2508   N.2       1 RES1   0.0000
    65 C9A      2.3144   5.5764  -0.6806   C.1       1 RES1   0.0000
    66 S1A      1.8906   6.4947  -1.9690   S.2       1 RES1   0.0000
    67 C14A     5.9611   4.1797   0.9780   C.ar      1 RES1   0.0000
    68 H9A      5.8634   3.5463   0.2760   H         1 RES1   0.0000
    69 C16A     7.1907   4.7688   1.1736   C.ar      1 RES1   0.0000
    70 C13A     7.3503   5.7137   2.1718   C.ar      1 RES1   0.0000
    71 H8A      8.1889   6.1403   2.3089   H         1 RES1   0.0000
    72 C15A     6.2617   6.0237   2.9615   C.ar      1 RES1   0.0000
    73 H10A     6.3409   6.6630   3.6617   H         1 RES1   0.0000
    74 H11A     7.9279   4.5252   0.6252   H         1 RES1   0.0000
    75 H3A      3.8100   6.2466   4.1975   H         1 RES1   0.0000
@<TRIPOS>BOND
     1     1     3    1
     2     2    18    2
     3     3     6    1
     4     4     1    1
     5     5     1    1
     6     6     7   ar
     7     7     8    1
     8     9     7   ar
     9    10     9    1
    10    11    13    1
    11    12     4   ar
    12    13     9   ar
    13    14     3    2
    14    15    14    1
    15    16    11   ar
    16    17    16    1
    17    18     5    2
    18    19    11   ar
    19    20    19    1
    20    21     6   ar
    21    22    21    1
    22    23    13   ar
    23    24    23    1
    24    25    26    1
    25    27     4   ar
    26    28    27    1
    27    29    12   ar
    28    30    29    1
    29    31    25   ar
    30    32    31    1
    31    33    34    1
    32    35    16   ar
    33    36    35    1
    34    37    19   ar
    35    38    37    1
    36    39     1    1
    37    40    39    1
    38    41    40   ar
    39    42    41    1
    40    43    41   ar
    41    44    43    1
    42    45    43   ar
    43    46    45    1
    44    47    46   ar
    45    48    47    1
    46    49    47   ar
    47    50    49   ar
    48    51    50    1
    49    52    50   ar
    50    53    46   ar
    51    54    53    1
    52    55    52    1
    53    56    49    1
    54    57    45   ar
    55    58    40   ar
    56    59    58    1
    57    60    57    1
    58    61    39    2
    59    62    61    1
    60    63     1    1
    61    64     1    1
    62    65    64    2
    63    66    65    2
    64    67    63   ar
    65    68    67    1
    66    69    67   ar
    67    70    69   ar
    68    71    70    1
    69    72    62   ar
    70    73    72    1
    71    74    69    1
    72    75    61    1
    73    12    14    1
    74    21    23   ar
    75    25    29   ar
    76    27    31   ar
    77    33    35   ar
    78    33    37   ar
    79    52    53   ar
    80    57    58   ar
    81    62    63   ar
    82    70    72   ar
@<TRIPOS>SUBSTRUCTURE
     1 RES1        1 GROUP             0 ****  ****    0  
@<TRIPOS>CRYSIN
   12.3700   14.7640   18.2810   90.0000   90.0000   90.0000    56     1
