@<TRIPOS>MOLECULE
RONPIT42
    75    82     1     0     0
SMALL
NO_CHARGES
****
Generated from the CSD

@<TRIPOS>ATOM
     1 Fe1      9.7065   3.6753   1.3943   Fe        1 RES1   0.0000
     2 S1      11.8802   0.8255  -1.8409   S.2       1 RES1   0.0000
     3 N1       9.6716   5.0924   3.1223   N.2       1 RES1   0.0000
     4 N2      11.8044   4.3500   1.6893   N.ar      1 RES1   0.0000
     5 N3      10.3795   2.3375  -0.0229   N.2       1 RES1   0.0000
     6 C1       3.8308   6.7081   8.2343   C.ar      1 RES1   0.0000
     7 H1       3.8645   7.1491   9.0519   H         1 RES1   0.0000
     8 C2      10.8156   5.4835   3.5348   C.2       1 RES1   0.0000
     9 H2      10.8855   5.9936   4.3083   H         1 RES1   0.0000
    10 C3       4.9684   5.8495   6.2764   C.ar      1 RES1   0.0000
    11 C4       8.5728   5.1895   5.3286   C.ar      1 RES1   0.0000
    12 H3       9.3778   4.9778   5.7444   H         1 RES1   0.0000
    13 C5       6.1772   5.8098   4.0870   C.ar      1 RES1   0.0000
    14 H4       5.3735   6.0156   3.6669   H         1 RES1   0.0000
    15 C6       7.3278   5.6511   3.3334   C.ar      1 RES1   0.0000
    16 H5       7.2941   5.7540   2.4106   H         1 RES1   0.0000
    17 C7       7.4209   5.3570   6.0884   C.ar      1 RES1   0.0000
    18 H6       7.4611   5.2600   7.0132   H         1 RES1   0.0000
    19 C8       3.7376   5.3879   5.8096   C.ar      1 RES1   0.0000
    20 H7       3.6962   4.9410   4.9938   H         1 RES1   0.0000
    21 C9      14.3682   5.1321   2.4246   C.ar      1 RES1   0.0000
    22 H8      15.2276   5.3894   2.6696   H         1 RES1   0.0000
    23 C10     11.0033   1.7215  -0.7982   C.1       1 RES1   0.0000
    24 C11      6.2160   5.6643   5.4840   C.ar      1 RES1   0.0000
    25 C12     13.2850   5.5261   3.1788   C.ar      1 RES1   0.0000
    26 H9      13.3976   6.0524   3.9365   H         1 RES1   0.0000
    27 C13     12.8799   3.9810   0.9760   C.ar      1 RES1   0.0000
    28 H10     12.7518   3.4503   0.2220   H         1 RES1   0.0000
    29 C14      4.9930   6.5155   7.5115   C.ar      1 RES1   0.0000
    30 H11      5.8006   6.8316   7.8466   H         1 RES1   0.0000
    31 C15      2.5755   5.5849   6.5374   C.ar      1 RES1   0.0000
    32 H12      1.7640   5.2703   6.2114   H         1 RES1   0.0000
    33 C16      8.5223   5.3409   3.9464   C.ar      1 RES1   0.0000
    34 C17     12.0218   5.1189   2.7772   C.ar      1 RES1   0.0000
    35 C18      2.6220   6.2494   7.7497   C.ar      1 RES1   0.0000
    36 H13      1.8416   6.3876   8.2378   H         1 RES1   0.0000
    37 C19     14.1702   4.3515   1.3082   C.ar      1 RES1   0.0000
    38 H14     14.8911   4.0795   0.7859   H         1 RES1   0.0000
    39 S1A      7.5328   6.5250  -1.8409   S.2       1 RES1   0.0000
    40 N1A      9.7414   2.2581   3.1223   N.2       1 RES1   0.0000
    41 N2A      7.6086   3.0005   1.6893   N.ar      1 RES1   0.0000
    42 N3A      9.0335   5.0130  -0.0229   N.2       1 RES1   0.0000
    43 C1A     15.5822   0.6424   8.2343   C.ar      1 RES1   0.0000
    44 H1A     15.5485   0.2014   9.0519   H         1 RES1   0.0000
    45 C2A      8.5974   1.8670   3.5348   C.2       1 RES1   0.0000
    46 H2A      8.5275   1.3569   4.3083   H         1 RES1   0.0000
    47 C3A     14.4446   1.5010   6.2764   C.ar      1 RES1   0.0000
    48 C4A     10.8402   2.1610   5.3286   C.ar      1 RES1   0.0000
    49 H3A     10.0352   2.3727   5.7444   H         1 RES1   0.0000
    50 C5A     13.2358   1.5407   4.0870   C.ar      1 RES1   0.0000
    51 H4A     14.0395   1.3349   3.6669   H         1 RES1   0.0000
    52 C6A     12.0852   1.6994   3.3334   C.ar      1 RES1   0.0000
    53 H5A     12.1189   1.5965   2.4106   H         1 RES1   0.0000
    54 C7A     11.9921   1.9935   6.0884   C.ar      1 RES1   0.0000
    55 H6A     11.9519   2.0905   7.0132   H         1 RES1   0.0000
    56 C8A     15.6754   1.9626   5.8096   C.ar      1 RES1   0.0000
    57 H7A     15.7168   2.4095   4.9938   H         1 RES1   0.0000
    58 C9A      5.0448   2.2184   2.4246   C.ar      1 RES1   0.0000
    59 H8A      4.1854   1.9611   2.6696   H         1 RES1   0.0000
    60 C10A     8.4097   5.6290  -0.7982   C.1       1 RES1   0.0000
    61 C11A    13.1970   1.6862   5.4840   C.ar      1 RES1   0.0000
    62 C12A     6.1280   1.8244   3.1788   C.ar      1 RES1   0.0000
    63 H9A      6.0154   1.2981   3.9365   H         1 RES1   0.0000
    64 C13A     6.5331   3.3695   0.9760   C.ar      1 RES1   0.0000
    65 H10A     6.6612   3.9002   0.2220   H         1 RES1   0.0000
    66 C14A    14.4200   0.8350   7.5115   C.ar      1 RES1   0.0000
    67 H11A    13.6124   0.5189   7.8466   H         1 RES1   0.0000
    68 C15A    16.8375   1.7656   6.5374   C.ar      1 RES1   0.0000
    69 H12A    17.6490   2.0802   6.2114   H         1 RES1   0.0000
    70 C16A    10.8907   2.0096   3.9464   C.ar      1 RES1   0.0000
    71 C17A     7.3912   2.2316   2.7772   C.ar      1 RES1   0.0000
    72 C18A    16.7910   1.1011   7.7497   C.ar      1 RES1   0.0000
    73 H13A    17.5714   0.9629   8.2378   H         1 RES1   0.0000
    74 C19A     5.2428   2.9990   1.3082   C.ar      1 RES1   0.0000
    75 H14A     4.5219   3.2710   0.7859   H         1 RES1   0.0000
@<TRIPOS>BOND
     1     1     3    1
     2     2    23    2
     3     3     8    2
     4     4     1    1
     5     5     1    1
     6     6     7    1
     7     8     9    1
     8    10    19   ar
     9    11    12    1
    10    13    14    1
    11    15    13   ar
    12    16    15    1
    13    17    11   ar
    14    18    17    1
    15    19    20    1
    16    21    22    1
    17    23     5    2
    18    24    10    1
    19    25    21   ar
    20    26    25    1
    21    27     4   ar
    22    28    27    1
    23    29     6   ar
    24    30    29    1
    25    31    19   ar
    26    32    31    1
    27    33     3    1
    28    34     4   ar
    29    35     6   ar
    30    36    35    1
    31    37    21   ar
    32    38    37    1
    33    39    60    2
    34    40     1    1
    35    41     1    1
    36    42     1    1
    37    43    44    1
    38    45    40    2
    39    46    45    1
    40    47    56   ar
    41    48    49    1
    42    50    51    1
    43    52    50   ar
    44    53    52    1
    45    54    48   ar
    46    55    54    1
    47    56    57    1
    48    58    59    1
    49    60    42    2
    50    61    47    1
    51    62    58   ar
    52    63    62    1
    53    64    41   ar
    54    65    64    1
    55    66    43   ar
    56    67    66    1
    57    68    56   ar
    58    69    68    1
    59    70    40    1
    60    71    41   ar
    61    72    43   ar
    62    73    72    1
    63    74    58   ar
    64    75    74    1
    65     8    34    1
    66    10    29   ar
    67    11    33   ar
    68    13    24   ar
    69    15    33   ar
    70    17    24   ar
    71    25    34   ar
    72    27    37   ar
    73    31    35   ar
    74    45    71    1
    75    47    66   ar
    76    48    70   ar
    77    50    61   ar
    78    52    70   ar
    79    54    61   ar
    80    62    71   ar
    81    64    74   ar
    82    68    72   ar
@<TRIPOS>SUBSTRUCTURE
     1 RES1        1 GROUP             0 ****  ****    0  
@<TRIPOS>CRYSIN
   12.9420   14.7010   17.6210   90.0000   90.0000   90.0000    56     1
