@<TRIPOS>MOLECULE
RONPIT29
    75    82     1     0     0
SMALL
NO_CHARGES
****
Generated from the CSD

@<TRIPOS>ATOM
     1 Fe1     -0.9506   2.5752  10.5865   Fe        1 RES1   0.0000
     2 S1       3.4572   2.0604   8.9604   S.2       1 RES1   0.0000
     3 S2      -2.2494   4.4955   6.5181   S.2       1 RES1   0.0000
     4 N1      -1.6565   0.7532  10.4427   N.ar      1 RES1   0.0000
     5 N2      -2.7671   2.8978  11.2683   N.2       1 RES1   0.0000
     6 N3       0.8235   2.1110   9.9332   N.2       1 RES1   0.0000
     7 N4      -0.3666   4.4366  10.8714   N.ar      1 RES1   0.0000
     8 N5      -0.3824   2.4309  12.4676   N.2       1 RES1   0.0000
     9 N6      -1.5283   2.9844   8.7720   N.2       1 RES1   0.0000
    10 C1      -1.0300  -0.3344   9.9758   C.ar      1 RES1   0.0000
    11 H1      -0.1267  -0.2543   9.6896   H         1 RES1   0.0000
    12 C2      -1.6469  -1.5732   9.8929   C.ar      1 RES1   0.0000
    13 H2      -1.1626  -2.3294   9.5820   H         1 RES1   0.0000
    14 C3      -2.9721  -1.7009  10.2664   C.ar      1 RES1   0.0000
    15 H3      -3.4159  -2.5378  10.1925   H         1 RES1   0.0000
    16 C4      -3.6417  -0.5860  10.7516   C.ar      1 RES1   0.0000
    17 H4      -4.5506  -0.6450  11.0198   H         1 RES1   0.0000
    18 C5      -2.9562   0.6156  10.8370   C.ar      1 RES1   0.0000
    19 C6      -3.5257   1.8535  11.3338   C.2       1 RES1   0.0000
    20 H5      -4.4071   1.8941  11.6872   H         1 RES1   0.0000
    21 C7      -3.2246   4.1368  11.8265   C.ar      1 RES1   0.0000
    22 C8      -3.5373   4.2240  13.1805   C.ar      1 RES1   0.0000
    23 H6      -3.5060   3.4483  13.7294   H         1 RES1   0.0000
    24 C9      -3.8959   5.4486  13.7254   C.ar      1 RES1   0.0000
    25 H7      -4.1209   5.5011  14.6474   H         1 RES1   0.0000
    26 C10     -3.9316   6.6037  12.9466   C.ar      1 RES1   0.0000
    27 C11     -3.6156   6.4893  11.5851   C.ar      1 RES1   0.0000
    28 H8      -3.6293   7.2661  11.0383   H         1 RES1   0.0000
    29 C12     -3.2854   5.2671  11.0223   C.ar      1 RES1   0.0000
    30 H9      -3.1020   5.2034  10.0925   H         1 RES1   0.0000
    31 C13     -4.3125   7.9254  13.5044   C.ar      1 RES1   0.0000
    32 C14     -5.4676   8.0609  14.2807   C.ar      1 RES1   0.0000
    33 H10     -5.9889   7.2947  14.4890   H         1 RES1   0.0000
    34 C15     -5.8577   9.3074  14.7486   C.ar      1 RES1   0.0000
    35 H11     -6.6581   9.3922  15.2533   H         1 RES1   0.0000
    36 C16     -5.0906  10.4284  14.4860   C.ar      1 RES1   0.0000
    37 H12     -5.3632  11.2800  14.8074   H         1 RES1   0.0000
    38 C17     -3.9219  10.3016  13.7498   C.ar      1 RES1   0.0000
    39 H13     -3.3767  11.0629  13.5894   H         1 RES1   0.0000
    40 C18     -3.5478   9.0632  13.2462   C.ar      1 RES1   0.0000
    41 H14     -2.7608   8.9903  12.7191   H         1 RES1   0.0000
    42 C19      1.9133   2.0898   9.5283   C.1       1 RES1   0.0000
    43 C20     -0.3124   5.4536   9.9887   C.ar      1 RES1   0.0000
    44 H15     -0.4883   5.2716   9.0730   H         1 RES1   0.0000
    45 C21     -0.0130   6.7495  10.3592   C.ar      1 RES1   0.0000
    46 H16      0.0056   7.4398   9.7065   H         1 RES1   0.0000
    47 C22      0.2611   7.0390  11.6852   C.ar      1 RES1   0.0000
    48 H17      0.4538   7.9285  11.9594   H         1 RES1   0.0000
    49 C23      0.2488   6.0010  12.5997   C.ar      1 RES1   0.0000
    50 H18      0.4512   6.1647  13.5141   H         1 RES1   0.0000
    51 C24     -0.0611   4.7213  12.1696   C.ar      1 RES1   0.0000
    52 C25     -0.0721   3.5522  13.0220   C.2       1 RES1   0.0000
    53 H19      0.1396   3.6083  13.9462   H         1 RES1   0.0000
    54 C26     -0.4392   1.2601  13.3117   C.ar      1 RES1   0.0000
    55 C27     -1.1536   1.2905  14.5054   C.ar      1 RES1   0.0000
    56 H20     -1.6088   2.0801  14.7705   H         1 RES1   0.0000
    57 C28     -1.1948   0.1604  15.3028   C.ar      1 RES1   0.0000
    58 H21     -1.6797   0.1898  16.1191   H         1 RES1   0.0000
    59 C29     -0.5467  -1.0172  14.9442   C.ar      1 RES1   0.0000
    60 C30      0.1845  -1.0255  13.7480   C.ar      1 RES1   0.0000
    61 H22      0.6569  -1.8085  13.4926   H         1 RES1   0.0000
    62 C31      0.2250   0.0975  12.9328   C.ar      1 RES1   0.0000
    63 H23      0.7077   0.0719  12.1147   H         1 RES1   0.0000
    64 C32     -0.6688  -2.2355  15.7896   C.ar      1 RES1   0.0000
    65 C33     -0.7907  -2.1492  17.1871   C.ar      1 RES1   0.0000
    66 H24     -0.7501  -1.2974  17.6061   H         1 RES1   0.0000
    67 C34     -0.9700  -3.2791  17.9648   C.ar      1 RES1   0.0000
    68 H25     -1.0498  -3.1989  18.9071   H         1 RES1   0.0000
    69 C35     -1.0320  -4.5295  17.3673   C.ar      1 RES1   0.0000
    70 H26     -1.1583  -5.3051  17.9014   H         1 RES1   0.0000
    71 C36     -0.9092  -4.6484  15.9910   C.ar      1 RES1   0.0000
    72 H27     -0.9477  -5.5036  15.5793   H         1 RES1   0.0000
    73 C37     -0.7292  -3.5120  15.2207   C.ar      1 RES1   0.0000
    74 H28     -0.6446  -3.6021  14.2784   H         1 RES1   0.0000
    75 C38     -1.8300   3.5796   7.8190   C.1       1 RES1   0.0000
@<TRIPOS>BOND
     1     1     4    1
     2     2    42    2
     3     3    75    2
     4     4    10   ar
     5     5     1    1
     6     6     1    1
     7     7     1    1
     8     8     1    1
     9     9     1    1
    10    10    11    1
    11    12    10   ar
    12    13    12    1
    13    14    12   ar
    14    15    14    1
    15    16    14   ar
    16    17    16    1
    17    18     4   ar
    18    19     5    2
    19    20    19    1
    20    21     5    1
    21    22    21   ar
    22    23    22    1
    23    24    22   ar
    24    25    24    1
    25    26    24   ar
    26    27    26   ar
    27    28    27    1
    28    29    21   ar
    29    30    29    1
    30    31    26    1
    31    32    31   ar
    32    33    32    1
    33    34    32   ar
    34    35    34    1
    35    36    34   ar
    36    37    36    1
    37    38    36   ar
    38    39    38    1
    39    40    31   ar
    40    41    40    1
    41    42     6    2
    42    43     7   ar
    43    44    43    1
    44    45    43   ar
    45    46    45    1
    46    47    45   ar
    47    48    47    1
    48    49    47   ar
    49    50    49    1
    50    51     7   ar
    51    52     8    2
    52    53    52    1
    53    54     8    1
    54    55    54   ar
    55    56    55    1
    56    57    55   ar
    57    58    57    1
    58    59    57   ar
    59    60    59   ar
    60    61    60    1
    61    62    54   ar
    62    63    62    1
    63    64    59    1
    64    65    64   ar
    65    66    65    1
    66    67    65   ar
    67    68    67    1
    68    69    67   ar
    69    70    69    1
    70    71    69   ar
    71    72    71    1
    72    73    64   ar
    73    74    73    1
    74    75     9    2
    75    16    18   ar
    76    18    19    1
    77    27    29   ar
    78    38    40   ar
    79    49    51   ar
    80    51    52    1
    81    60    62   ar
    82    71    73   ar
@<TRIPOS>SUBSTRUCTURE
     1 RES1        1 GROUP             0 ****  ****    0  
@<TRIPOS>CRYSIN
   17.1326   12.4038   17.0792   90.0000  115.7910   90.0000    14     1
