@<TRIPOS>MOLECULE
RONPIT44
    75    82     1     0     0
SMALL
NO_CHARGES
****
Generated from the CSD

@<TRIPOS>ATOM
     1 Fe1      9.7247  11.5053  10.1162   Fe        1 RES1   0.0000
     2 S1      11.7615   8.5627   6.9561   S.2       1 RES1   0.0000
     3 N1       9.6494  12.9258  11.8518   N.2       1 RES1   0.0000
     4 N2      10.3794  10.1492   8.7213   N.2       1 RES1   0.0000
     5 N3      11.7966  12.2171  10.4308   N.ar      1 RES1   0.0000
     6 C1       8.5097  13.1835  12.6538   C.ar      1 RES1   0.0000
     7 C2       7.3129  13.5272  12.0365   C.ar      1 RES1   0.0000
     8 H1       7.2792  13.6313  11.1137   H         1 RES1   0.0000
     9 C3      11.9834  12.9841  11.5071   C.ar      1 RES1   0.0000
    10 C4      10.7788  13.3400  12.2458   C.2       1 RES1   0.0000
    11 H2      10.8388  13.8725  13.0052   H         1 RES1   0.0000
    12 C5       8.5356  13.0209  14.0238   C.ar      1 RES1   0.0000
    13 H3       9.3282  12.7844  14.4483   H         1 RES1   0.0000
    14 C6       6.1965  13.5578  14.1557   C.ar      1 RES1   0.0000
    15 C7       6.1862  13.7143  12.7874   C.ar      1 RES1   0.0000
    16 H4       5.3929  13.9511  12.3647   H         1 RES1   0.0000
    17 C8      10.9564   9.5034   7.9827   C.1       1 RES1   0.0000
    18 C9       7.3843  13.2127  14.7695   C.ar      1 RES1   0.0000
    19 H5       7.4110  13.1059  15.6928   H         1 RES1   0.0000
    20 C10      4.9570  13.7772  14.9471   C.ar      1 RES1   0.0000
    21 C11     12.8715  11.8750   9.7080   C.ar      1 RES1   0.0000
    22 H6      12.7617  11.3411   8.9548   H         1 RES1   0.0000
    23 C12      4.9764  14.4507  16.1553   C.ar      1 RES1   0.0000
    24 H7       5.7871  14.7623  16.4898   H         1 RES1   0.0000
    25 C13     13.2281  13.4397  11.8940   C.ar      1 RES1   0.0000
    26 H8      13.3249  13.9860  12.6403   H         1 RES1   0.0000
    27 C14      3.7498  13.3124  14.5057   C.ar      1 RES1   0.0000
    28 H9       3.7056  12.8389  13.7062   H         1 RES1   0.0000
    29 C15      2.5816  13.5410  15.2390   C.ar      1 RES1   0.0000
    30 H10      1.7659  13.2276  14.9204   H         1 RES1   0.0000
    31 C16     14.3173  13.0654  11.1483   C.ar      1 RES1   0.0000
    32 H11     15.1716  13.3389  11.3927   H         1 RES1   0.0000
    33 C17      3.8147  14.6700  16.8817   C.ar      1 RES1   0.0000
    34 H12      3.8483  15.1291  17.6893   H         1 RES1   0.0000
    35 C18      2.6347  14.2144  16.4086   C.ar      1 RES1   0.0000
    36 H13      1.8537  14.3640  16.8913   H         1 RES1   0.0000
    37 C19     14.1306  12.2953  10.0509   C.ar      1 RES1   0.0000
    38 H14     14.8602  12.0498   9.5293   H         1 RES1   0.0000
    39 S1A      7.6878  14.4479   6.9561   S.2       1 RES1   0.0000
    40 N1A      9.7999  10.0848  11.8518   N.2       1 RES1   0.0000
    41 N2A      9.0699  12.8614   8.7213   N.2       1 RES1   0.0000
    42 N3A      7.6527  10.7935  10.4308   N.ar      1 RES1   0.0000
    43 C1A     10.9396   9.8271  12.6538   C.ar      1 RES1   0.0000
    44 C2A     12.1364   9.4834  12.0365   C.ar      1 RES1   0.0000
    45 H1A     12.1701   9.3793  11.1137   H         1 RES1   0.0000
    46 C3A      7.4659  10.0265  11.5071   C.ar      1 RES1   0.0000
    47 C4A      8.6705   9.6706  12.2458   C.2       1 RES1   0.0000
    48 H2A      8.6105   9.1381  13.0052   H         1 RES1   0.0000
    49 C5A     10.9137   9.9897  14.0238   C.ar      1 RES1   0.0000
    50 H3A     10.1211  10.2262  14.4483   H         1 RES1   0.0000
    51 C6A     13.2528   9.4528  14.1557   C.ar      1 RES1   0.0000
    52 C7A     13.2631   9.2963  12.7874   C.ar      1 RES1   0.0000
    53 H4A     14.0564   9.0595  12.3647   H         1 RES1   0.0000
    54 C8A      8.4929  13.5072   7.9827   C.1       1 RES1   0.0000
    55 C9A     12.0650   9.7979  14.7695   C.ar      1 RES1   0.0000
    56 H5A     12.0383   9.9047  15.6928   H         1 RES1   0.0000
    57 C10A    14.4923   9.2334  14.9471   C.ar      1 RES1   0.0000
    58 C11A     6.5778  11.1356   9.7080   C.ar      1 RES1   0.0000
    59 H6A      6.6876  11.6695   8.9548   H         1 RES1   0.0000
    60 C12A    14.4729   8.5599  16.1553   C.ar      1 RES1   0.0000
    61 H7A     13.6622   8.2483  16.4898   H         1 RES1   0.0000
    62 C13A     6.2212   9.5709  11.8940   C.ar      1 RES1   0.0000
    63 H8A      6.1244   9.0246  12.6403   H         1 RES1   0.0000
    64 C14A    15.6995   9.6982  14.5057   C.ar      1 RES1   0.0000
    65 H9A     15.7437  10.1717  13.7062   H         1 RES1   0.0000
    66 C15A    16.8677   9.4696  15.2390   C.ar      1 RES1   0.0000
    67 H10A    17.6834   9.7830  14.9204   H         1 RES1   0.0000
    68 C16A     5.1320   9.9452  11.1483   C.ar      1 RES1   0.0000
    69 H11A     4.2777   9.6717  11.3927   H         1 RES1   0.0000
    70 C17A    15.6346   8.3406  16.8817   C.ar      1 RES1   0.0000
    71 H12A    15.6010   7.8815  17.6893   H         1 RES1   0.0000
    72 C18A    16.8146   8.7962  16.4086   C.ar      1 RES1   0.0000
    73 H13A    17.5956   8.6466  16.8913   H         1 RES1   0.0000
    74 C19A     5.3187  10.7153  10.0509   C.ar      1 RES1   0.0000
    75 H14A     4.5891  10.9608   9.5293   H         1 RES1   0.0000
@<TRIPOS>BOND
     1     1     3    1
     2     2    17    2
     3     3     6    1
     4     4     1    1
     5     5     1    1
     6     6     7   ar
     7     7     8    1
     8     9     5   ar
     9    10     3    2
    10    11    10    1
    11    12     6   ar
    12    13    12    1
    13    14    15   ar
    14    15     7   ar
    15    16    15    1
    16    17     4    2
    17    18    12   ar
    18    19    18    1
    19    20    14    1
    20    21     5   ar
    21    22    21    1
    22    23    20   ar
    23    24    23    1
    24    25     9   ar
    25    26    25    1
    26    27    20   ar
    27    28    27    1
    28    29    27   ar
    29    30    29    1
    30    31    25   ar
    31    32    31    1
    32    33    23   ar
    33    34    33    1
    34    35    29   ar
    35    36    35    1
    36    37    21   ar
    37    38    37    1
    38    39    54    2
    39    40     1    1
    40    41     1    1
    41    42     1    1
    42    43    40    1
    43    44    43   ar
    44    45    44    1
    45    46    42   ar
    46    47    40    2
    47    48    47    1
    48    49    43   ar
    49    50    49    1
    50    51    52   ar
    51    52    44   ar
    52    53    52    1
    53    54    41    2
    54    55    49   ar
    55    56    55    1
    56    57    51    1
    57    58    42   ar
    58    59    58    1
    59    60    57   ar
    60    61    60    1
    61    62    46   ar
    62    63    62    1
    63    64    57   ar
    64    65    64    1
    65    66    64   ar
    66    67    66    1
    67    68    62   ar
    68    69    68    1
    69    70    60   ar
    70    71    70    1
    71    72    66   ar
    72    73    72    1
    73    74    58   ar
    74    75    74    1
    75     9    10    1
    76    14    18   ar
    77    31    37   ar
    78    33    35   ar
    79    46    47    1
    80    51    55   ar
    81    68    74   ar
    82    70    72   ar
@<TRIPOS>SUBSTRUCTURE
     1 RES1        1 GROUP             0 ****  ****    0  
@<TRIPOS>CRYSIN
   12.9662   15.3404   17.5869   90.0000   90.0000   90.0000    56     1
