@<TRIPOS>MOLECULE
RONPIT33
    75    82     1     0     0
SMALL
NO_CHARGES
****
Generated from the CSD

@<TRIPOS>ATOM
     1 Fe1     -0.8364   2.5593  10.5676   Fe        1 RES1   0.0000
     2 S1       3.5813   2.0426   8.9998   S.2       1 RES1   0.0000
     3 S2      -2.2778   4.6430   6.5952   S.2       1 RES1   0.0000
     4 N1      -1.6221   0.6904  10.4964   N.ar      1 RES1   0.0000
     5 N2      -2.7174   2.8801  11.3609   N.2       1 RES1   0.0000
     6 N3       0.9568   2.0174   9.8969   N.2       1 RES1   0.0000
     7 N4      -0.2588   4.4805  10.9318   N.ar      1 RES1   0.0000
     8 N5      -0.2583   2.4269  12.5524   N.2       1 RES1   0.0000
     9 N6      -1.4539   3.0511   8.7318   N.2       1 RES1   0.0000
    10 C1      -1.0207  -0.3820  10.0069   C.ar      1 RES1   0.0000
    11 H1      -0.1494  -0.3034   9.6629   H         1 RES1   0.0000
    12 C2      -1.6391  -1.6004   9.9914   C.ar      1 RES1   0.0000
    13 H2      -1.1639  -2.3520   9.6846   H         1 RES1   0.0000
    14 C3      -2.9237  -1.7553  10.4081   C.ar      1 RES1   0.0000
    15 H3      -3.3674  -2.5817  10.3446   H         1 RES1   0.0000
    16 C4      -3.5633  -0.6205  10.9411   C.ar      1 RES1   0.0000
    17 H4      -4.4412  -0.6816  11.2695   H         1 RES1   0.0000
    18 C5      -2.8944   0.5755  10.9783   C.ar      1 RES1   0.0000
    19 C6      -3.4267   1.8214  11.4694   C.2       1 RES1   0.0000
    20 H5      -4.2810   1.8551  11.8614   H         1 RES1   0.0000
    21 C7      -3.1849   4.1122  11.9419   C.ar      1 RES1   0.0000
    22 C8      -3.5213   4.1959  13.2914   C.ar      1 RES1   0.0000
    23 H6      -3.4935   3.4281  13.8321   H         1 RES1   0.0000
    24 C9      -3.8952   5.4131  13.8336   C.ar      1 RES1   0.0000
    25 H7      -4.1175   5.4555  14.7461   H         1 RES1   0.0000
    26 C10     -3.9517   6.5641  13.0807   C.ar      1 RES1   0.0000
    27 C11     -3.6121   6.4592  11.7281   C.ar      1 RES1   0.0000
    28 H8      -3.6244   7.2332  11.1952   H         1 RES1   0.0000
    29 C12     -3.2544   5.2520  11.1471   C.ar      1 RES1   0.0000
    30 H9      -3.0640   5.2033  10.2284   H         1 RES1   0.0000
    31 C13     -4.3774   7.8699  13.6400   C.ar      1 RES1   0.0000
    32 C14     -5.5427   7.9610  14.3418   C.ar      1 RES1   0.0000
    33 H10     -6.0548   7.1883  14.4967   H         1 RES1   0.0000
    34 C15     -5.9703   9.1745  14.8252   C.ar      1 RES1   0.0000
    35 H11     -6.7874   9.2182  15.2884   H         1 RES1   0.0000
    36 C16     -5.2541  10.3068  14.6516   C.ar      1 RES1   0.0000
    37 H12     -5.5616  11.1307  14.9832   H         1 RES1   0.0000
    38 C17     -4.0713  10.2219  13.9823   C.ar      1 RES1   0.0000
    39 H13     -3.5415  10.9909  13.8739   H         1 RES1   0.0000
    40 C18     -3.6386   9.0147  13.4556   C.ar      1 RES1   0.0000
    41 H14     -2.8355   8.9785  12.9707   H         1 RES1   0.0000
    42 C19      2.0512   2.0287   9.5312   C.1       1 RES1   0.0000
    43 C20     -0.2142   5.5179  10.0735   C.ar      1 RES1   0.0000
    44 H15     -0.3873   5.3581   9.1641   H         1 RES1   0.0000
    45 C21      0.0779   6.8100  10.4779   C.ar      1 RES1   0.0000
    46 H16      0.0885   7.5129   9.8535   H         1 RES1   0.0000
    47 C22      0.3511   7.0547  11.8102   C.ar      1 RES1   0.0000
    48 H17      0.5401   7.9261  12.1062   H         1 RES1   0.0000
    49 C23      0.3439   6.0023  12.6995   C.ar      1 RES1   0.0000
    50 H18      0.5362   6.1459  13.6090   H         1 RES1   0.0000
    51 C24      0.0480   4.7302  12.2378   C.ar      1 RES1   0.0000
    52 C25      0.0297   3.5592  13.0993   C.2       1 RES1   0.0000
    53 H19      0.2201   3.6241  14.0164   H         1 RES1   0.0000
    54 C26     -0.3289   1.2609  13.4138   C.ar      1 RES1   0.0000
    55 C27     -1.0316   1.3071  14.6114   C.ar      1 RES1   0.0000
    56 H20     -1.4693   2.0961  14.8763   H         1 RES1   0.0000
    57 C28     -1.0823   0.1848  15.4061   C.ar      1 RES1   0.0000
    58 H21     -1.5517   0.2285  16.2195   H         1 RES1   0.0000
    59 C29     -0.4678  -1.0087  15.0560   C.ar      1 RES1   0.0000
    60 C30      0.2539  -1.0249  13.8661   C.ar      1 RES1   0.0000
    61 H22      0.7172  -1.8052  13.6167   H         1 RES1   0.0000
    62 C31      0.3033   0.0836  13.0450   C.ar      1 RES1   0.0000
    63 H23      0.7699   0.0412  12.2301   H         1 RES1   0.0000
    64 C32     -0.5807  -2.2197  15.8895   C.ar      1 RES1   0.0000
    65 C33     -0.6643  -2.1210  17.2715   C.ar      1 RES1   0.0000
    66 H24     -0.6048  -1.2746  17.6774   H         1 RES1   0.0000
    67 C34     -0.8343  -3.2446  18.0678   C.ar      1 RES1   0.0000
    68 H25     -0.8875  -3.1547  19.0020   H         1 RES1   0.0000
    69 C35     -0.9227  -4.4867  17.4899   C.ar      1 RES1   0.0000
    70 H26     -1.0344  -5.2470  18.0306   H         1 RES1   0.0000
    71 C36     -0.8513  -4.6228  16.1188   C.ar      1 RES1   0.0000
    72 H27     -0.9254  -5.4680  15.7145   H         1 RES1   0.0000
    73 C37     -0.6680  -3.4905  15.3566   C.ar      1 RES1   0.0000
    74 H28     -0.5999  -3.5879  14.4239   H         1 RES1   0.0000
    75 C38     -1.7946   3.6953   7.8410   C.1       1 RES1   0.0000
@<TRIPOS>BOND
     1     1     4    1
     2     2    42    2
     3     3    75    2
     4     4    10   ar
     5     5     1    1
     6     6     1    1
     7     7     1    1
     8     8     1    1
     9     9     1    1
    10    10    11    1
    11    12    10   ar
    12    13    12    1
    13    14    12   ar
    14    15    14    1
    15    16    14   ar
    16    17    16    1
    17    18     4   ar
    18    19     5    2
    19    20    19    1
    20    21     5    1
    21    22    21   ar
    22    23    22    1
    23    24    22   ar
    24    25    24    1
    25    26    24   ar
    26    27    26   ar
    27    28    27    1
    28    29    21   ar
    29    30    29    1
    30    31    26    1
    31    32    31   ar
    32    33    32    1
    33    34    32   ar
    34    35    34    1
    35    36    34   ar
    36    37    36    1
    37    38    36   ar
    38    39    38    1
    39    40    31   ar
    40    41    40    1
    41    42     6    2
    42    43     7   ar
    43    44    43    1
    44    45    43   ar
    45    46    45    1
    46    47    45   ar
    47    48    47    1
    48    49    47   ar
    49    50    49    1
    50    51     7   ar
    51    52     8    2
    52    53    52    1
    53    54     8    1
    54    55    54   ar
    55    56    55    1
    56    57    55   ar
    57    58    57    1
    58    59    57   ar
    59    60    59   ar
    60    61    60    1
    61    62    54   ar
    62    63    62    1
    63    64    59    1
    64    65    64   ar
    65    66    65    1
    66    67    65   ar
    67    68    67    1
    68    69    67   ar
    69    70    69    1
    70    71    69   ar
    71    72    71    1
    72    73    64   ar
    73    74    73    1
    74    75     9    2
    75    16    18   ar
    76    18    19    1
    77    27    29   ar
    78    38    40   ar
    79    49    51   ar
    80    51    52    1
    81    60    62   ar
    82    71    73   ar
@<TRIPOS>SUBSTRUCTURE
     1 RES1        1 GROUP             0 ****  ****    0  
@<TRIPOS>CRYSIN
   17.4330   12.4840   17.1890   90.0000  115.6670   90.0000    14     1
