@<TRIPOS>MOLECULE
RONPIT38
    75    82     1     0     0
SMALL
NO_CHARGES
****
Generated from the CSD

@<TRIPOS>ATOM
     1 Fe1      3.0875   3.6738   1.6400   Fe        1 RES1   0.0000
     2 N1       2.7516   2.3439   3.0822   N.2       1 RES1   0.0000
     3 N2       4.8758   2.8846   1.7275   N.ar      1 RES1   0.0000
     4 N3       2.5565   2.4350   0.2437   N.2       1 RES1   0.0000
     5 S1       1.8735   0.8788  -1.9584   S.2       1 RES1   0.0000
     6 C1       5.9539   3.1962   0.9765   C.ar      1 RES1   0.0000
     7 H1       5.8638   3.8574   0.3019   H         1 RES1   0.0000
     8 C2      -0.7595   1.9662   5.2843   C.ar      1 RES1   0.0000
     9 C3      -0.7262   1.7178   3.9077   C.ar      1 RES1   0.0000
    10 H2      -1.5314   1.4489   3.4822   H         1 RES1   0.0000
    11 C4       0.3631   1.8383   3.1640   C.ar      1 RES1   0.0000
    12 H3       0.3396   1.6767   2.2275   H         1 RES1   0.0000
    13 C5      -2.0587   1.7854   6.0189   C.ar      1 RES1   0.0000
    14 C6      -1.9834   1.2682   7.3081   C.ar      1 RES1   0.0000
    15 H4      -1.1411   1.0595   7.6955   H         1 RES1   0.0000
    16 C7      -3.1567   1.0595   8.0264   C.ar      1 RES1   0.0000
    17 H5      -3.0912   0.7421   8.9193   H         1 RES1   0.0000
    18 C8      -4.3855   1.2888   7.5118   C.ar      1 RES1   0.0000
    19 H6      -5.1648   1.1124   8.0246   H         1 RES1   0.0000
    20 C9      -4.4880   1.7884   6.2098   C.ar      1 RES1   0.0000
    21 H7      -5.3377   1.9647   5.8207   H         1 RES1   0.0000
    22 C10     -3.3135   2.0206   5.4952   C.ar      1 RES1   0.0000
    23 H8      -3.3802   2.3541   4.6078   H         1 RES1   0.0000
    24 C11      2.3119   1.8031  -0.6728   C.1       1 RES1   0.0000
    25 C12      7.1432   2.6084   1.1474   C.ar      1 RES1   0.0000
    26 H9       7.8781   2.8258   0.5855   H         1 RES1   0.0000
    27 C13      7.2828   1.6341   2.2039   C.ar      1 RES1   0.0000
    28 H10      8.1140   1.2006   2.3548   H         1 RES1   0.0000
    29 C14      6.2207   1.3578   2.9640   C.ar      1 RES1   0.0000
    30 H11      6.2973   0.7245   3.6677   H         1 RES1   0.0000
    31 C15      5.0487   1.9677   2.7403   C.ar      1 RES1   0.0000
    32 C16      3.8680   1.7208   3.4313   C.2       1 RES1   0.0000
    33 H12      3.8618   1.1036   4.1550   H         1 RES1   0.0000
    34 C17      1.5413   2.2072   3.8059   C.ar      1 RES1   0.0000
    35 C18      1.5166   2.4879   5.1679   C.ar      1 RES1   0.0000
    36 H13      2.3107   2.7759   5.6007   H         1 RES1   0.0000
    37 C19      0.3890   2.3585   5.8789   C.ar      1 RES1   0.0000
    38 H14      0.3964   2.5452   6.8099   H         1 RES1   0.0000
    39 N1A      3.4234   5.0036   3.0822   N.2       1 RES1   0.0000
    40 N2A      1.2992   4.4629   1.7275   N.ar      1 RES1   0.0000
    41 N3A      3.6185   4.9125   0.2437   N.2       1 RES1   0.0000
    42 S1A      4.3015   6.4687  -1.9584   S.2       1 RES1   0.0000
    43 C1A      0.2211   4.1513   0.9765   C.ar      1 RES1   0.0000
    44 H1A      0.3112   3.4901   0.3019   H         1 RES1   0.0000
    45 C2A      6.9345   5.3813   5.2843   C.ar      1 RES1   0.0000
    46 C3A      6.9012   5.6297   3.9077   C.ar      1 RES1   0.0000
    47 H2A      7.7064   5.8986   3.4822   H         1 RES1   0.0000
    48 C4A      5.8119   5.5092   3.1640   C.ar      1 RES1   0.0000
    49 H3A      5.8354   5.6708   2.2275   H         1 RES1   0.0000
    50 C5A      8.2337   5.5621   6.0189   C.ar      1 RES1   0.0000
    51 C6A      8.1584   6.0793   7.3081   C.ar      1 RES1   0.0000
    52 H4A      7.3161   6.2880   7.6955   H         1 RES1   0.0000
    53 C7A      9.3317   6.2880   8.0264   C.ar      1 RES1   0.0000
    54 H5A      9.2662   6.6054   8.9193   H         1 RES1   0.0000
    55 C8A     10.5605   6.0587   7.5118   C.ar      1 RES1   0.0000
    56 H6A     11.3398   6.2351   8.0246   H         1 RES1   0.0000
    57 C9A     10.6630   5.5591   6.2098   C.ar      1 RES1   0.0000
    58 H7A     11.5127   5.3828   5.8207   H         1 RES1   0.0000
    59 C10A     9.4885   5.3269   5.4952   C.ar      1 RES1   0.0000
    60 H8A      9.5552   4.9934   4.6078   H         1 RES1   0.0000
    61 C11A     3.8631   5.5444  -0.6728   C.1       1 RES1   0.0000
    62 C12A    -0.9682   4.7391   1.1474   C.ar      1 RES1   0.0000
    63 H9A     -1.7031   4.5217   0.5855   H         1 RES1   0.0000
    64 C13A    -1.1078   5.7134   2.2039   C.ar      1 RES1   0.0000
    65 H10A    -1.9389   6.1469   2.3548   H         1 RES1   0.0000
    66 C14A    -0.0457   5.9897   2.9640   C.ar      1 RES1   0.0000
    67 H11A    -0.1223   6.6230   3.6677   H         1 RES1   0.0000
    68 C15A     1.1263   5.3798   2.7403   C.ar      1 RES1   0.0000
    69 C16A     2.3070   5.6267   3.4313   C.2       1 RES1   0.0000
    70 H12A     2.3132   6.2439   4.1550   H         1 RES1   0.0000
    71 C17A     4.6337   5.1403   3.8059   C.ar      1 RES1   0.0000
    72 C18A     4.6584   4.8596   5.1679   C.ar      1 RES1   0.0000
    73 H13A     3.8643   4.5716   5.6007   H         1 RES1   0.0000
    74 C19A     5.7860   4.9890   5.8789   C.ar      1 RES1   0.0000
    75 H14A     5.7786   4.8023   6.8099   H         1 RES1   0.0000
@<TRIPOS>BOND
     1     1     2    1
     2     2    32    2
     3     3     1    1
     4     4     1    1
     5     5    24    2
     6     6     3   ar
     7     7     6    1
     8     8     9   ar
     9     9    10    1
    10    11     9   ar
    11    12    11    1
    12    13     8    1
    13    14    13   ar
    14    15    14    1
    15    16    14   ar
    16    17    16    1
    17    18    16   ar
    18    19    18    1
    19    20    18   ar
    20    21    20    1
    21    22    13   ar
    22    23    22    1
    23    24     4    2
    24    25     6   ar
    25    26    25    1
    26    27    25   ar
    27    28    27    1
    28    29    27   ar
    29    30    29    1
    30    31     3   ar
    31    32    31    1
    32    33    32    1
    33    34     2    1
    34    35    34   ar
    35    36    35    1
    36    37     8   ar
    37    38    37    1
    38    39     1    1
    39    40     1    1
    40    41     1    1
    41    42    61    2
    42    43    40   ar
    43    44    43    1
    44    45    46   ar
    45    46    47    1
    46    48    46   ar
    47    49    48    1
    48    50    45    1
    49    51    50   ar
    50    52    51    1
    51    53    51   ar
    52    54    53    1
    53    55    53   ar
    54    56    55    1
    55    57    55   ar
    56    58    57    1
    57    59    50   ar
    58    60    59    1
    59    61    41    2
    60    62    43   ar
    61    63    62    1
    62    64    62   ar
    63    65    64    1
    64    66    64   ar
    65    67    66    1
    66    68    40   ar
    67    69    39    2
    68    70    69    1
    69    71    39    1
    70    72    71   ar
    71    73    72    1
    72    74    45   ar
    73    75    74    1
    74    11    34   ar
    75    20    22   ar
    76    29    31   ar
    77    35    37   ar
    78    48    71   ar
    79    57    59   ar
    80    66    68   ar
    81    68    69    1
    82    72    74   ar
@<TRIPOS>SUBSTRUCTURE
     1 RES1        1 GROUP             0 ****  ****    0  
@<TRIPOS>CRYSIN
   12.3500   14.6950   18.1840   90.0000   90.0000   90.0000    56     1
