@<TRIPOS>MOLECULE
RONPIT27
    75    82     1     0     0
SMALL
NO_CHARGES
****
Generated from the CSD

@<TRIPOS>ATOM
     1 Fe1     -0.8234   2.5000  10.5518   Fe        1 RES1   0.0000
     2 S1       3.6267   1.9703   9.0603   S.2       1 RES1   0.0000
     3 S2      -2.3817   4.8786   6.7318   S.2       1 RES1   0.0000
     4 N1      -1.7640   0.5518  10.6212   N.ar      1 RES1   0.0000
     5 N2      -2.8290   2.8436  11.5173   N.2       1 RES1   0.0000
     6 N3       1.0137   1.7867   9.8834   N.2       1 RES1   0.0000
     7 N4      -0.2132   4.5280  11.0661   N.ar      1 RES1   0.0000
     8 N5      -0.2562   2.3878  12.7298   N.2       1 RES1   0.0000
     9 N6      -1.4983   3.1492   8.6944   N.2       1 RES1   0.0000
    10 C1      -1.2301  -0.5467  10.1152   C.ar      1 RES1   0.0000
    11 H1      -0.3948  -0.5000   9.7063   H         1 RES1   0.0000
    12 C2      -1.8872  -1.7754  10.1779   C.ar      1 RES1   0.0000
    13 H2      -1.4789  -2.5532   9.8755   H         1 RES1   0.0000
    14 C3      -3.1635  -1.8019  10.7042   C.ar      1 RES1   0.0000
    15 H3      -3.6507  -2.5936  10.6760   H         1 RES1   0.0000
    16 C4      -3.7237  -0.6844  11.2651   C.ar      1 RES1   0.0000
    17 H4      -4.5527  -0.7160  11.6865   H         1 RES1   0.0000
    18 C5      -3.0011   0.4912  11.1758   C.ar      1 RES1   0.0000
    19 C6      -3.4825   1.7577  11.7115   C.2       1 RES1   0.0000
    20 H5      -4.2717   1.7779  12.2003   H         1 RES1   0.0000
    21 C7      -3.2938   4.0735  12.1392   C.ar      1 RES1   0.0000
    22 C8      -3.6249   4.1505  13.4802   C.ar      1 RES1   0.0000
    23 H6      -3.6052   3.3866  14.0112   H         1 RES1   0.0000
    24 C9      -3.9824   5.3677  14.0285   C.ar      1 RES1   0.0000
    25 H7      -4.2036   5.4170  14.9308   H         1 RES1   0.0000
    26 C10     -4.0181   6.5080  13.2593   C.ar      1 RES1   0.0000
    27 C11     -3.6801   6.4170  11.9152   C.ar      1 RES1   0.0000
    28 H8      -3.6969   7.1848  11.3888   H         1 RES1   0.0000
    29 C12     -3.3198   5.2086  11.3387   C.ar      1 RES1   0.0000
    30 H9      -3.0985   5.1594  10.4364   H         1 RES1   0.0000
    31 C13     -4.4259   7.8022  13.8358   C.ar      1 RES1   0.0000
    32 C14     -5.6105   7.8944  14.5266   C.ar      1 RES1   0.0000
    33 H10     -6.1268   7.1393  14.6911   H         1 RES1   0.0000
    34 C15     -6.0304   9.1899  14.9888   C.ar      1 RES1   0.0000
    35 H11     -6.8621   9.2783  15.3976   H         1 RES1   0.0000
    36 C16     -5.2290  10.3062  14.8415   C.ar      1 RES1   0.0000
    37 H12     -5.4691  11.1282  15.2034   H         1 RES1   0.0000
    38 C17     -4.1695  10.1572  14.1992   C.ar      1 RES1   0.0000
    39 H13     -3.6365  10.9022  14.0473   H         1 RES1   0.0000
    40 C18     -3.7468   8.9172  13.6979   C.ar      1 RES1   0.0000
    41 H14     -2.9374   8.8831  13.2405   H         1 RES1   0.0000
    42 C19      2.1071   1.8764   9.5372   C.1       1 RES1   0.0000
    43 C20     -0.1841   5.5773  10.2311   C.ar      1 RES1   0.0000
    44 H15     -0.3312   5.4347   9.3241   H         1 RES1   0.0000
    45 C21      0.0594   6.8590  10.6729   C.ar      1 RES1   0.0000
    46 H16      0.0752   7.5699  10.0714   H         1 RES1   0.0000
    47 C22      0.2783   7.0749  12.0060   C.ar      1 RES1   0.0000
    48 H17      0.4224   7.9386  12.3178   H         1 RES1   0.0000
    49 C23      0.2909   6.0130  12.8896   C.ar      1 RES1   0.0000
    50 H18      0.4712   6.1405  13.7935   H         1 RES1   0.0000
    51 C24      0.0215   4.7604  12.3883   C.ar      1 RES1   0.0000
    52 C25     -0.0099   3.5482  13.2170   C.2       1 RES1   0.0000
    53 H19      0.1543   3.6252  14.1287   H         1 RES1   0.0000
    54 C26     -0.3397   1.2564  13.6306   C.ar      1 RES1   0.0000
    55 C27     -1.0159   1.3132  14.8446   C.ar      1 RES1   0.0000
    56 H20     -1.4241   2.1024  15.1172   H         1 RES1   0.0000
    57 C28     -1.0778   0.1957  15.6342   C.ar      1 RES1   0.0000
    58 H21     -1.5417   0.2450  16.4378   H         1 RES1   0.0000
    59 C29     -0.4846  -0.9887  15.2942   C.ar      1 RES1   0.0000
    60 C30      0.1922  -1.0329  14.0974   C.ar      1 RES1   0.0000
    61 H22      0.6126  -1.8221  13.8467   H         1 RES1   0.0000
    62 C31      0.2615   0.0619  13.2593   C.ar      1 RES1   0.0000
    63 H23      0.7133  -0.0013  12.4478   H         1 RES1   0.0000
    64 C32     -0.6048  -2.1958  16.1433   C.ar      1 RES1   0.0000
    65 C33     -0.6627  -2.0734  17.5078   C.ar      1 RES1   0.0000
    66 H24     -0.5899  -1.2349  17.9025   H         1 RES1   0.0000
    67 C34     -0.8314  -3.2174  18.3114   C.ar      1 RES1   0.0000
    68 H25     -0.8742  -3.1378  19.2372   H         1 RES1   0.0000
    69 C35     -0.9344  -4.4485  17.7192   C.ar      1 RES1   0.0000
    70 H26     -1.0544  -5.2036  18.2487   H         1 RES1   0.0000
    71 C36     -0.8614  -4.5811  16.3673   C.ar      1 RES1   0.0000
    72 H27     -0.9334  -5.4195  15.9710   H         1 RES1   0.0000
    73 C37     -0.6816  -3.4648  15.6028   C.ar      1 RES1   0.0000
    74 H28     -0.6094  -3.5621  14.6817   H         1 RES1   0.0000
    75 C38     -1.8589   3.8613   7.8625   C.1       1 RES1   0.0000
@<TRIPOS>BOND
     1     1     4    1
     2     2    42    2
     3     3    75    2
     4     4    10   ar
     5     5     1    1
     6     6     1    1
     7     7     1    1
     8     8     1    1
     9     9     1    1
    10    10    11    1
    11    12    10   ar
    12    13    12    1
    13    14    12   ar
    14    15    14    1
    15    16    14   ar
    16    17    16    1
    17    18     4   ar
    18    19     5    2
    19    20    19    1
    20    21     5    1
    21    22    21   ar
    22    23    22    1
    23    24    22   ar
    24    25    24    1
    25    26    24   ar
    26    27    26   ar
    27    28    27    1
    28    29    21   ar
    29    30    29    1
    30    31    26    1
    31    32    31   ar
    32    33    32    1
    33    34    32   ar
    34    35    34    1
    35    36    34   ar
    36    37    36    1
    37    38    36   ar
    38    39    38    1
    39    40    31   ar
    40    41    40    1
    41    42     6    2
    42    43     7   ar
    43    44    43    1
    44    45    43   ar
    45    46    45    1
    46    47    45   ar
    47    48    47    1
    48    49    47   ar
    49    50    49    1
    50    51     7   ar
    51    52     8    2
    52    53    52    1
    53    54     8    1
    54    55    54   ar
    55    56    55    1
    56    57    55   ar
    57    58    57    1
    58    59    57   ar
    59    60    59   ar
    60    61    60    1
    61    62    54   ar
    62    63    62    1
    63    64    59    1
    64    65    64   ar
    65    66    65    1
    66    67    65   ar
    67    68    67    1
    68    69    67   ar
    69    70    69    1
    70    71    69   ar
    71    72    71    1
    72    73    64   ar
    73    74    73    1
    74    75     9    2
    75    16    18   ar
    76    18    19    1
    77    27    29   ar
    78    38    40   ar
    79    49    51   ar
    80    51    52    1
    81    60    62   ar
    82    71    73   ar
@<TRIPOS>SUBSTRUCTURE
     1 RES1        1 GROUP             0 ****  ****    0  
@<TRIPOS>CRYSIN
   17.5680   12.6270   17.3690   90.0000  115.5880   90.0000    14     1
