@<TRIPOS>MOLECULE
RONPIT39
    75    82     1     0     0
SMALL
NO_CHARGES
****
Generated from the CSD

@<TRIPOS>ATOM
     1 Fe1      9.2537   3.6641   1.6517   Fe        1 RES1   0.0000
     2 S1       8.0511   6.4495  -1.9720   S.2       1 RES1   0.0000
     3 N1       7.4578   2.8849   1.7474   N.ar      1 RES1   0.0000
     4 N2       9.5577   2.3557   3.0817   N.2       1 RES1   0.0000
     5 N3       8.7558   4.9122   0.2565   N.2       1 RES1   0.0000
     6 C1       6.3854   3.1776   0.9836   C.ar      1 RES1   0.0000
     7 H1       6.4801   3.8136   0.2832   H         1 RES1   0.0000
     8 C2       5.1600   2.5873   1.1832   C.ar      1 RES1   0.0000
     9 H2       4.4245   2.8272   0.6322   H         1 RES1   0.0000
    10 C3       4.9942   1.6474   2.1799   C.ar      1 RES1   0.0000
    11 H3       4.1531   1.2267   2.3188   H         1 RES1   0.0000
    12 C4       6.0856   1.3321   2.9733   C.ar      1 RES1   0.0000
    13 H4       6.0051   0.6918   3.6691   H         1 RES1   0.0000
    14 C5       7.2923   1.9628   2.7365   C.ar      1 RES1   0.0000
    15 C6       8.5129   1.7126   3.4716   C.2       1 RES1   0.0000
    16 H5       8.5418   1.1066   4.2027   H         1 RES1   0.0000
    17 C7      10.7754   2.2037   3.8319   C.ar      1 RES1   0.0000
    18 C8      10.7874   2.4681   5.1951   C.ar      1 RES1   0.0000
    19 H6       9.9879   2.7261   5.6389   H         1 RES1   0.0000
    20 C9      11.9764   2.3537   5.9041   C.ar      1 RES1   0.0000
    21 H7      11.9830   2.5399   6.8358   H         1 RES1   0.0000
    22 C10     13.1606   1.9704   5.2751   C.ar      1 RES1   0.0000
    23 C11     13.1183   1.7230   3.9034   C.ar      1 RES1   0.0000
    24 H8      13.9176   1.4744   3.4535   H         1 RES1   0.0000
    25 C12     11.9413   1.8295   3.1798   C.ar      1 RES1   0.0000
    26 H9      11.9324   1.6488   2.2475   H         1 RES1   0.0000
    27 C13     14.4067   1.7614   6.0526   C.ar      1 RES1   0.0000
    28 C14     14.3415   1.2698   7.3507   C.ar      1 RES1   0.0000
    29 H10     13.4956   1.0890   7.7421   H         1 RES1   0.0000
    30 C15     15.5041   1.0400   8.0845   C.ar      1 RES1   0.0000
    31 H11     15.4451   0.7050   8.9718   H         1 RES1   0.0000
    32 C16     16.7421   1.2977   7.5281   C.ar      1 RES1   0.0000
    33 H12     17.5340   1.1388   8.0290   H         1 RES1   0.0000
    34 C17     16.8206   1.7878   6.2399   C.ar      1 RES1   0.0000
    35 H13     17.6697   1.9683   5.8545   H         1 RES1   0.0000
    36 C18     15.6652   2.0193   5.5041   C.ar      1 RES1   0.0000
    37 H14     15.7313   2.3567   4.6193   H         1 RES1   0.0000
    38 C19      8.4763   5.5382  -0.6781   C.1       1 RES1   0.0000
    39 S1A     10.4563   0.8786  -1.9720   S.2       1 RES1   0.0000
    40 N1A     11.0497   4.4432   1.7474   N.ar      1 RES1   0.0000
    41 N2A      8.9497   4.9724   3.0817   N.2       1 RES1   0.0000
    42 N3A      9.7517   2.4159   0.2565   N.2       1 RES1   0.0000
    43 C1A     12.1220   4.1505   0.9836   C.ar      1 RES1   0.0000
    44 H1A     12.0274   3.5146   0.2832   H         1 RES1   0.0000
    45 C2A     13.3474   4.7409   1.1832   C.ar      1 RES1   0.0000
    46 H2A     14.0829   4.5009   0.6322   H         1 RES1   0.0000
    47 C3A     13.5133   5.6808   2.1799   C.ar      1 RES1   0.0000
    48 H3A     14.3544   6.1014   2.3188   H         1 RES1   0.0000
    49 C4A     12.4218   5.9960   2.9733   C.ar      1 RES1   0.0000
    50 H4A     12.5024   6.6364   3.6691   H         1 RES1   0.0000
    51 C5A     11.2151   5.3654   2.7365   C.ar      1 RES1   0.0000
    52 C6A      9.9945   5.6156   3.4716   C.2       1 RES1   0.0000
    53 H5A      9.9656   6.2216   4.2027   H         1 RES1   0.0000
    54 C7A      7.7320   5.1244   3.8319   C.ar      1 RES1   0.0000
    55 C8A      7.7201   4.8600   5.1951   C.ar      1 RES1   0.0000
    56 H6A      8.5196   4.6021   5.6389   H         1 RES1   0.0000
    57 C9A      6.5310   4.9745   5.9041   C.ar      1 RES1   0.0000
    58 H7A      6.5245   4.7882   6.8358   H         1 RES1   0.0000
    59 C10A     5.3468   5.3578   5.2751   C.ar      1 RES1   0.0000
    60 C11A     5.3891   5.6052   3.9034   C.ar      1 RES1   0.0000
    61 H8A      4.5898   5.8537   3.4535   H         1 RES1   0.0000
    62 C12A     6.5662   5.4986   3.1798   C.ar      1 RES1   0.0000
    63 H9A      6.5751   5.6793   2.2475   H         1 RES1   0.0000
    64 C13A     4.1008   5.5668   6.0526   C.ar      1 RES1   0.0000
    65 C14A     4.1659   6.0583   7.3507   C.ar      1 RES1   0.0000
    66 H10A     5.0118   6.2392   7.7421   H         1 RES1   0.0000
    67 C15A     3.0034   6.2881   8.0845   C.ar      1 RES1   0.0000
    68 H11A     3.0624   6.6232   8.9718   H         1 RES1   0.0000
    69 C16A     1.7654   6.0305   7.5281   C.ar      1 RES1   0.0000
    70 H12A     0.9735   6.1894   8.0290   H         1 RES1   0.0000
    71 C17A     1.6869   5.5404   6.2399   C.ar      1 RES1   0.0000
    72 H13A     0.8378   5.3598   5.8545   H         1 RES1   0.0000
    73 C18A     2.8423   5.3088   5.5041   C.ar      1 RES1   0.0000
    74 H14A     2.7761   4.9714   4.6193   H         1 RES1   0.0000
    75 C19A    10.0312   1.7900  -0.6781   C.1       1 RES1   0.0000
@<TRIPOS>BOND
     1     1     3    1
     2     2    38    2
     3     3     6   ar
     4     4     1    1
     5     5     1    1
     6     6     7    1
     7     8     6   ar
     8     9     8    1
     9    10     8   ar
    10    11    10    1
    11    12    10   ar
    12    13    12    1
    13    14     3   ar
    14    15     4    2
    15    16    15    1
    16    17     4    1
    17    18    17   ar
    18    19    18    1
    19    20    18   ar
    20    21    20    1
    21    22    20   ar
    22    23    22   ar
    23    24    23    1
    24    25    17   ar
    25    26    25    1
    26    27    22    1
    27    28    27   ar
    28    29    28    1
    29    30    28   ar
    30    31    30    1
    31    32    30   ar
    32    33    32    1
    33    34    32   ar
    34    35    34    1
    35    36    27   ar
    36    37    36    1
    37    38     5    2
    38    39    75    2
    39    40     1    1
    40    41     1    1
    41    42     1    1
    42    43    40   ar
    43    44    43    1
    44    45    43   ar
    45    46    45    1
    46    47    45   ar
    47    48    47    1
    48    49    47   ar
    49    50    49    1
    50    51    40   ar
    51    52    41    2
    52    53    52    1
    53    54    41    1
    54    55    54   ar
    55    56    55    1
    56    57    55   ar
    57    58    57    1
    58    59    57   ar
    59    60    59   ar
    60    61    60    1
    61    62    54   ar
    62    63    62    1
    63    64    59    1
    64    65    64   ar
    65    66    65    1
    66    67    65   ar
    67    68    67    1
    68    69    67   ar
    69    70    69    1
    70    71    69   ar
    71    72    71    1
    72    73    64   ar
    73    74    73    1
    74    75    42    2
    75    12    14   ar
    76    14    15    1
    77    23    25   ar
    78    34    36   ar
    79    49    51   ar
    80    51    52    1
    81    60    62   ar
    82    71    73   ar
@<TRIPOS>SUBSTRUCTURE
     1 RES1        1 GROUP             0 ****  ****    0  
@<TRIPOS>CRYSIN
   12.3383   14.6563   18.2726   90.0000   90.0000   90.0000    56     1
