@<TRIPOS>MOLECULE
RONPIT37
    75    82     1     0     0
SMALL
NO_CHARGES
****
Generated from the CSD

@<TRIPOS>ATOM
     1 Fe1      9.7008   3.7295   1.3679   Fe        1 RES1   0.0000
     2 S1       7.5889   6.6103  -1.8427   S.2       1 RES1   0.0000
     3 N1       7.6144   3.0455   1.6727   N.ar      1 RES1   0.0000
     4 N2       9.7505   2.3117   3.1015   N.2       1 RES1   0.0000
     5 N3       9.0369   5.0660  -0.0389   N.2       1 RES1   0.0000
     6 C1       6.5408   3.3958   0.9598   C.ar      1 RES1   0.0000
     7 H1       6.6651   3.9398   0.1903   H         1 RES1   0.0000
     8 C2       5.2613   3.0045   1.2905   C.ar      1 RES1   0.0000
     9 H2       4.5232   3.2745   0.7559   H         1 RES1   0.0000
    10 C3       5.0651   2.2249   2.3937   C.ar      1 RES1   0.0000
    11 H3       4.1907   1.9453   2.6378   H         1 RES1   0.0000
    12 C4       6.1585   1.8489   3.1491   C.ar      1 RES1   0.0000
    13 H4       6.0494   1.3128   3.9258   H         1 RES1   0.0000
    14 C5       7.4123   2.2660   2.7549   C.ar      1 RES1   0.0000
    15 C6       8.6094   1.9111   3.5054   C.2       1 RES1   0.0000
    16 H5       8.5406   1.3829   4.2923   H         1 RES1   0.0000
    17 C7      10.8950   2.0590   3.9126   C.ar      1 RES1   0.0000
    18 C8      10.8489   2.2128   5.2923   C.ar      1 RES1   0.0000
    19 H6      10.0306   2.4376   5.7196   H         1 RES1   0.0000
    20 C9      12.0023   2.0379   6.0463   C.ar      1 RES1   0.0000
    21 H7      11.9630   2.1348   6.9900   H         1 RES1   0.0000
    22 C10     13.2107   1.7247   5.4414   C.ar      1 RES1   0.0000
    23 C11     13.2363   1.5774   4.0599   C.ar      1 RES1   0.0000
    24 H8      14.0558   1.3620   3.6298   H         1 RES1   0.0000
    25 C12     12.0965   1.7372   3.3028   C.ar      1 RES1   0.0000
    26 H9      12.1351   1.6261   2.3594   H         1 RES1   0.0000
    27 C13     14.4457   1.5246   6.2366   C.ar      1 RES1   0.0000
    28 C14     14.4132   0.8599   7.4555   C.ar      1 RES1   0.0000
    29 H10     13.5850   0.5430   7.7970   H         1 RES1   0.0000
    30 C15     15.5743   0.6543   8.1792   C.ar      1 RES1   0.0000
    31 H11     15.5381   0.1969   9.0111   H         1 RES1   0.0000
    32 C16     16.7746   1.1051   7.7063   C.ar      1 RES1   0.0000
    33 H12     17.5714   0.9518   8.2005   H         1 RES1   0.0000
    34 C17     16.8251   1.7812   6.5121   C.ar      1 RES1   0.0000
    35 H13     17.6555   2.1109   6.1883   H         1 RES1   0.0000
    36 C18     15.6739   1.9839   5.7809   C.ar      1 RES1   0.0000
    37 H14     15.7218   2.4450   4.9513   H         1 RES1   0.0000
    38 C19      8.4330   5.7004  -0.7994   C.1       1 RES1   0.0000
    39 S1A     11.8127   0.8487  -1.8427   S.2       1 RES1   0.0000
    40 N1A     11.7872   4.4135   1.6727   N.ar      1 RES1   0.0000
    41 N2A      9.6511   5.1473   3.1015   N.2       1 RES1   0.0000
    42 N3A     10.3647   2.3930  -0.0389   N.2       1 RES1   0.0000
    43 C1A     12.8608   4.0632   0.9598   C.ar      1 RES1   0.0000
    44 H1A     12.7365   3.5191   0.1903   H         1 RES1   0.0000
    45 C2A     14.1403   4.4545   1.2905   C.ar      1 RES1   0.0000
    46 H2A     14.8784   4.1845   0.7559   H         1 RES1   0.0000
    47 C3A     14.3365   5.2341   2.3937   C.ar      1 RES1   0.0000
    48 H3A     15.2109   5.5137   2.6378   H         1 RES1   0.0000
    49 C4A     13.2431   5.6100   3.1491   C.ar      1 RES1   0.0000
    50 H4A     13.3522   6.1462   3.9258   H         1 RES1   0.0000
    51 C5A     11.9893   5.1929   2.7549   C.ar      1 RES1   0.0000
    52 C6A     10.7922   5.5478   3.5054   C.2       1 RES1   0.0000
    53 H5A     10.8610   6.0761   4.2923   H         1 RES1   0.0000
    54 C7A      8.5066   5.4000   3.9126   C.ar      1 RES1   0.0000
    55 C8A      8.5527   5.2462   5.2923   C.ar      1 RES1   0.0000
    56 H6A      9.3710   5.0214   5.7196   H         1 RES1   0.0000
    57 C9A      7.3993   5.4210   6.0463   C.ar      1 RES1   0.0000
    58 H7A      7.4386   5.3242   6.9900   H         1 RES1   0.0000
    59 C10A     6.1909   5.7343   5.4414   C.ar      1 RES1   0.0000
    60 C11A     6.1653   5.8815   4.0599   C.ar      1 RES1   0.0000
    61 H8A      5.3458   6.0969   3.6298   H         1 RES1   0.0000
    62 C12A     7.3051   5.7218   3.3028   C.ar      1 RES1   0.0000
    63 H9A      7.2665   5.8329   2.3594   H         1 RES1   0.0000
    64 C13A     4.9559   5.9343   6.2366   C.ar      1 RES1   0.0000
    65 C14A     4.9884   6.5991   7.4555   C.ar      1 RES1   0.0000
    66 H10A     5.8166   6.9159   7.7970   H         1 RES1   0.0000
    67 C15A     3.8273   6.8047   8.1792   C.ar      1 RES1   0.0000
    68 H11A     3.8635   7.2620   9.0111   H         1 RES1   0.0000
    69 C16A     2.6270   6.3538   7.7063   C.ar      1 RES1   0.0000
    70 H12A     1.8302   6.5072   8.2005   H         1 RES1   0.0000
    71 C17A     2.5765   5.6778   6.5121   C.ar      1 RES1   0.0000
    72 H13A     1.7461   5.3481   6.1883   H         1 RES1   0.0000
    73 C18A     3.7277   5.4750   5.7809   C.ar      1 RES1   0.0000
    74 H14A     3.6798   5.0139   4.9513   H         1 RES1   0.0000
    75 C19A    10.9686   1.7585  -0.7994   C.1       1 RES1   0.0000
@<TRIPOS>BOND
     1     1     3    1
     2     2    38    2
     3     3     6   ar
     4     4     1    1
     5     5     1    1
     6     6     7    1
     7     8     6   ar
     8     9     8    1
     9    10     8   ar
    10    11    10    1
    11    12    10   ar
    12    13    12    1
    13    14     3   ar
    14    15     4    2
    15    16    15    1
    16    17     4    1
    17    18    17   ar
    18    19    18    1
    19    20    18   ar
    20    21    20    1
    21    22    20   ar
    22    23    22   ar
    23    24    23    1
    24    25    17   ar
    25    26    25    1
    26    27    22    1
    27    28    27   ar
    28    29    28    1
    29    30    28   ar
    30    31    30    1
    31    32    30   ar
    32    33    32    1
    33    34    32   ar
    34    35    34    1
    35    36    27   ar
    36    37    36    1
    37    38     5    2
    38    39    75    2
    39    40     1    1
    40    41     1    1
    41    42     1    1
    42    43    40   ar
    43    44    43    1
    44    45    43   ar
    45    46    45    1
    46    47    45   ar
    47    48    47    1
    48    49    47   ar
    49    50    49    1
    50    51    40   ar
    51    52    41    2
    52    53    52    1
    53    54    41    1
    54    55    54   ar
    55    56    55    1
    56    57    55   ar
    57    58    57    1
    58    59    57   ar
    59    60    59   ar
    60    61    60    1
    61    62    54   ar
    62    63    62    1
    63    64    59    1
    64    65    64   ar
    65    66    65    1
    66    67    65   ar
    67    68    67    1
    68    69    67   ar
    69    70    69    1
    70    71    69   ar
    71    72    71    1
    72    73    64   ar
    73    74    73    1
    74    75    42    2
    75    12    14   ar
    76    14    15    1
    77    23    25   ar
    78    34    36   ar
    79    49    51   ar
    80    51    52    1
    81    60    62   ar
    82    71    73   ar
@<TRIPOS>SUBSTRUCTURE
     1 RES1        1 GROUP             0 ****  ****    0  
@<TRIPOS>CRYSIN
   12.9344   14.9179   17.6204   90.0000   90.0000   90.0000    56     1
