@<TRIPOS>MOLECULE
RONPIT28
    75    82     1     0     0
SMALL
NO_CHARGES
****
Generated from the CSD

@<TRIPOS>ATOM
     1 Fe1     -0.8395   2.5934  10.5448   Fe        1 RES1   0.0000
     2 S1       3.5679   2.0713   8.9467   S.2       1 RES1   0.0000
     3 S2      -2.2169   4.4813   6.4816   S.2       1 RES1   0.0000
     4 N1      -1.5326   0.7635  10.3971   N.ar      1 RES1   0.0000
     5 N2      -2.6435   2.8929  11.2443   N.2       1 RES1   0.0000
     6 N3       0.9376   2.1481   9.8748   N.2       1 RES1   0.0000
     7 N4      -0.2649   4.4533  10.8393   N.ar      1 RES1   0.0000
     8 N5      -0.2594   2.4376  12.4251   N.2       1 RES1   0.0000
     9 N6      -1.4359   3.0130   8.7305   N.2       1 RES1   0.0000
    10 C1      -0.9035  -0.3155   9.9170   C.ar      1 RES1   0.0000
    11 H1      -0.0247  -0.2264   9.6238   H         1 RES1   0.0000
    12 C2      -1.5096  -1.5566   9.8387   C.ar      1 RES1   0.0000
    13 H2      -1.0399  -2.2879   9.5086   H         1 RES1   0.0000
    14 C3      -2.8161  -1.7014  10.2563   C.ar      1 RES1   0.0000
    15 H3      -3.2387  -2.5279  10.2041   H         1 RES1   0.0000
    16 C4      -3.4837  -0.6014  10.7523   C.ar      1 RES1   0.0000
    17 H4      -4.3677  -0.6719  11.0348   H         1 RES1   0.0000
    18 C5      -2.8159   0.6113  10.8214   C.ar      1 RES1   0.0000
    19 C6      -3.3907   1.8424  11.3265   C.2       1 RES1   0.0000
    20 H5      -4.2465   1.8746  11.6873   H         1 RES1   0.0000
    21 C7      -3.1312   4.1266  11.8071   C.ar      1 RES1   0.0000
    22 C8      -3.4563   4.2107  13.1551   C.ar      1 RES1   0.0000
    23 H6      -3.4108   3.4522  13.6910   H         1 RES1   0.0000
    24 C9      -3.8446   5.4209  13.7017   C.ar      1 RES1   0.0000
    25 H7      -4.0751   5.4629  14.6015   H         1 RES1   0.0000
    26 C10     -3.8959   6.5679  12.9294   C.ar      1 RES1   0.0000
    27 C11     -3.5674   6.4640  11.5706   C.ar      1 RES1   0.0000
    28 H8      -3.5945   7.2249  11.0363   H         1 RES1   0.0000
    29 C12     -3.2046   5.2613  11.0087   C.ar      1 RES1   0.0000
    30 H9      -3.0114   5.2080  10.0997   H         1 RES1   0.0000
    31 C13     -4.3213   7.8783  13.4883   C.ar      1 RES1   0.0000
    32 C14     -5.4863   7.9773  14.2207   C.ar      1 RES1   0.0000
    33 H10     -5.9866   7.2126  14.3911   H         1 RES1   0.0000
    34 C15     -5.9199   9.2010  14.7028   C.ar      1 RES1   0.0000
    35 H11     -6.7173   9.2530  15.1803   H         1 RES1   0.0000
    36 C16     -5.1904  10.3245  14.4817   C.ar      1 RES1   0.0000
    37 H12     -5.4925  11.1449  14.8026   H         1 RES1   0.0000
    38 C17     -4.0117  10.2540  13.7892   C.ar      1 RES1   0.0000
    39 H13     -3.4964  11.0175  13.6633   H         1 RES1   0.0000
    40 C18     -3.5901   9.0340  13.2780   C.ar      1 RES1   0.0000
    41 H14     -2.8018   8.9931  12.7836   H         1 RES1   0.0000
    42 C19      2.0382   2.1060   9.4909   C.1       1 RES1   0.0000
    43 C20     -0.2264   5.4766   9.9631   C.ar      1 RES1   0.0000
    44 H15     -0.4171   5.3046   9.0695   H         1 RES1   0.0000
    45 C21      0.0874   6.7721  10.3346   C.ar      1 RES1   0.0000
    46 H16      0.0927   7.4526   9.7005   H         1 RES1   0.0000
    47 C22      0.3916   7.0431  11.6551   C.ar      1 RES1   0.0000
    48 H17      0.5921   7.9104  11.9268   H         1 RES1   0.0000
    49 C23      0.3917   6.0061  12.5625   C.ar      1 RES1   0.0000
    50 H18      0.6039   6.1633  13.4545   H         1 RES1   0.0000
    51 C24      0.0723   4.7267  12.1341   C.ar      1 RES1   0.0000
    52 C25      0.0648   3.5574  12.9816   C.2       1 RES1   0.0000
    53 H19      0.2823   3.6081  13.8844   H         1 RES1   0.0000
    54 C26     -0.3090   1.2671  13.2641   C.ar      1 RES1   0.0000
    55 C27     -1.0274   1.2943  14.4525   C.ar      1 RES1   0.0000
    56 H20     -1.4759   2.0664  14.7135   H         1 RES1   0.0000
    57 C28     -1.0715   0.1596  15.2463   C.ar      1 RES1   0.0000
    58 H21     -1.5491   0.1893  16.0432   H         1 RES1   0.0000
    59 C29     -0.4294  -1.0159  14.8932   C.ar      1 RES1   0.0000
    60 C30      0.3061  -1.0109  13.7017   C.ar      1 RES1   0.0000
    61 H22      0.7755  -1.7744  13.4515   H         1 RES1   0.0000
    62 C31      0.3470   0.1039  12.8929   C.ar      1 RES1   0.0000
    63 H23      0.8166   0.0755  12.0911   H         1 RES1   0.0000
    64 C32     -0.5507  -2.2347  15.7392   C.ar      1 RES1   0.0000
    65 C33     -0.6498  -2.1493  17.1225   C.ar      1 RES1   0.0000
    66 H24     -0.6009  -1.3166  17.5325   H         1 RES1   0.0000
    67 C34     -0.8201  -3.2790  17.9010   C.ar      1 RES1   0.0000
    68 H25     -0.8802  -3.1998  18.8253   H         1 RES1   0.0000
    69 C35     -0.9004  -4.5250  17.3114   C.ar      1 RES1   0.0000
    70 H26     -1.0218  -5.2848  17.8334   H         1 RES1   0.0000
    71 C36     -0.7995  -4.6339  15.9388   C.ar      1 RES1   0.0000
    72 H27     -0.8454  -5.4691  15.5334   H         1 RES1   0.0000
    73 C37     -0.6277  -3.5017  15.1680   C.ar      1 RES1   0.0000
    74 H28     -0.5624  -3.5883  14.2437   H         1 RES1   0.0000
    75 C38     -1.7659   3.5958   7.7813   C.1       1 RES1   0.0000
@<TRIPOS>BOND
     1     1     4    1
     2     2    42    2
     3     3    75    2
     4     4    10   ar
     5     5     1    1
     6     6     1    1
     7     7     1    1
     8     8     1    1
     9     9     1    1
    10    10    11    1
    11    12    10   ar
    12    13    12    1
    13    14    12   ar
    14    15    14    1
    15    16    14   ar
    16    17    16    1
    17    18     4   ar
    18    19     5    2
    19    20    19    1
    20    21     5    1
    21    22    21   ar
    22    23    22    1
    23    24    22   ar
    24    25    24    1
    25    26    24   ar
    26    27    26   ar
    27    28    27    1
    28    29    21   ar
    29    30    29    1
    30    31    26    1
    31    32    31   ar
    32    33    32    1
    33    34    32   ar
    34    35    34    1
    35    36    34   ar
    36    37    36    1
    37    38    36   ar
    38    39    38    1
    39    40    31   ar
    40    41    40    1
    41    42     6    2
    42    43     7   ar
    43    44    43    1
    44    45    43   ar
    45    46    45    1
    46    47    45   ar
    47    48    47    1
    48    49    47   ar
    49    50    49    1
    50    51     7   ar
    51    52     8    2
    52    53    52    1
    53    54     8    1
    54    55    54   ar
    55    56    55    1
    56    57    55   ar
    57    58    57    1
    58    59    57   ar
    59    60    59   ar
    60    61    60    1
    61    62    54   ar
    62    63    62    1
    63    64    59    1
    64    65    64   ar
    65    66    65    1
    66    67    65   ar
    67    68    67    1
    68    69    67   ar
    69    70    69    1
    70    71    69   ar
    71    72    71    1
    72    73    64   ar
    73    74    73    1
    74    75     9    2
    75    16    18   ar
    76    18    19    1
    77    27    29   ar
    78    38    40   ar
    79    49    51   ar
    80    51    52    1
    81    60    62   ar
    82    71    73   ar
@<TRIPOS>SUBSTRUCTURE
     1 RES1        1 GROUP             0 ****  ****    0  
@<TRIPOS>CRYSIN
   17.3523   12.3736   17.0431   90.0000  115.7260   90.0000    14     1
