@<TRIPOS>MOLECULE
RONPIT43
    75    82     1     0     0
SMALL
NO_CHARGES
****
Generated from the CSD

@<TRIPOS>ATOM
     1 Fe1      9.2501  11.0082  10.7867   Fe        1 RES1   0.0000
     2 S1      10.4511   8.2177   7.1665   S.2       1 RES1   0.0000
     3 N1       8.9450  12.3204  12.2198   N.2       1 RES1   0.0000
     4 N2       9.7496   9.7606   9.3912   N.2       1 RES1   0.0000
     5 N3      11.0497  11.7895  10.8846   N.ar      1 RES1   0.0000
     6 C1       7.7318  12.4705  12.9640   C.ar      1 RES1   0.0000
     7 C2       6.5605  12.8436  12.3141   C.ar      1 RES1   0.0000
     8 H1       6.5664  13.0180  11.4006   H         1 RES1   0.0000
     9 C3      11.2065  12.7038  11.8654   C.ar      1 RES1   0.0000
    10 C4       9.9917  12.9590  12.6109   C.2       1 RES1   0.0000
    11 H2       9.9692  13.5492  13.3292   H         1 RES1   0.0000
    12 C5       7.7174  12.2055  14.3346   C.ar      1 RES1   0.0000
    13 H3       8.4994  11.9537  14.7705   H         1 RES1   0.0000
    14 C6       5.3465  12.7054  14.4139   C.ar      1 RES1   0.0000
    15 C7       5.3841  12.9537  13.0388   C.ar      1 RES1   0.0000
    16 H4       4.6016  13.1985  12.5999   H         1 RES1   0.0000
    17 C8      10.0267   9.1305   8.4581   C.1       1 RES1   0.0000
    18 C9       6.5307  12.3199  15.0423   C.ar      1 RES1   0.0000
    19 H5       6.5241  12.1361  15.9539   H         1 RES1   0.0000
    20 C10      4.0947  12.9156  15.1894   C.ar      1 RES1   0.0000
    21 C11     12.1140  11.4920  10.1161   C.ar      1 RES1   0.0000
    22 H6      12.0176  10.8700   9.4314   H         1 RES1   0.0000
    23 C12      4.1617  13.4086  16.4869   C.ar      1 RES1   0.0000
    24 H7       4.9911  13.5857  16.8683   H         1 RES1   0.0000
    25 C13     12.4190  13.3424  12.1118   C.ar      1 RES1   0.0000
    26 H8      12.4953  13.9686  12.7950   H         1 RES1   0.0000
    27 C14      2.8398  12.6527  14.6386   C.ar      1 RES1   0.0000
    28 H9       2.7761  12.3209  13.7721   H         1 RES1   0.0000
    29 C15      1.6817  12.8839  15.3773   C.ar      1 RES1   0.0000
    30 H10      0.8498  12.7066  15.0012   H         1 RES1   0.0000
    31 C16     13.5086  13.0261  11.3183   C.ar      1 RES1   0.0000
    32 H11     14.3314  13.4372  11.4561   H         1 RES1   0.0000
    33 C17      3.0028  13.6411  17.2233   C.ar      1 RES1   0.0000
    34 H12      3.0629  13.9749  18.0893   H         1 RES1   0.0000
    35 C18      1.7626  13.3766  16.6703   C.ar      1 RES1   0.0000
    36 H13      0.9884  13.5285  17.1627   H         1 RES1   0.0000
    37 C19     13.3484  12.0867  10.3169   C.ar      1 RES1   0.0000
    38 H14     14.0697  11.8539   9.7781   H         1 RES1   0.0000
    39 S1A      8.0490  13.7987   7.1665   S.2       1 RES1   0.0000
    40 N1A      9.5551   9.6960  12.2198   N.2       1 RES1   0.0000
    41 N2A      8.7505  12.2558   9.3912   N.2       1 RES1   0.0000
    42 N3A      7.4504  10.2269  10.8846   N.ar      1 RES1   0.0000
    43 C1A     10.7683   9.5459  12.9640   C.ar      1 RES1   0.0000
    44 C2A     11.9396   9.1728  12.3141   C.ar      1 RES1   0.0000
    45 H1A     11.9337   8.9984  11.4006   H         1 RES1   0.0000
    46 C3A      7.2936   9.3126  11.8654   C.ar      1 RES1   0.0000
    47 C4A      8.5084   9.0574  12.6109   C.2       1 RES1   0.0000
    48 H2A      8.5309   8.4672  13.3292   H         1 RES1   0.0000
    49 C5A     10.7827   9.8109  14.3346   C.ar      1 RES1   0.0000
    50 H3A     10.0007  10.0627  14.7705   H         1 RES1   0.0000
    51 C6A     13.1536   9.3110  14.4139   C.ar      1 RES1   0.0000
    52 C7A     13.1160   9.0627  13.0388   C.ar      1 RES1   0.0000
    53 H4A     13.8985   8.8179  12.5999   H         1 RES1   0.0000
    54 C8A      8.4734  12.8859   8.4581   C.1       1 RES1   0.0000
    55 C9A     11.9694   9.6965  15.0423   C.ar      1 RES1   0.0000
    56 H5A     11.9760   9.8803  15.9539   H         1 RES1   0.0000
    57 C10A    14.4054   9.1008  15.1894   C.ar      1 RES1   0.0000
    58 C11A     6.3861  10.5244  10.1161   C.ar      1 RES1   0.0000
    59 H6A      6.4825  11.1464   9.4314   H         1 RES1   0.0000
    60 C12A    14.3384   8.6078  16.4869   C.ar      1 RES1   0.0000
    61 H7A     13.5090   8.4307  16.8683   H         1 RES1   0.0000
    62 C13A     6.0811   8.6740  12.1118   C.ar      1 RES1   0.0000
    63 H8A      6.0048   8.0478  12.7950   H         1 RES1   0.0000
    64 C14A    15.6603   9.3637  14.6386   C.ar      1 RES1   0.0000
    65 H9A     15.7240   9.6955  13.7721   H         1 RES1   0.0000
    66 C15A    16.8184   9.1325  15.3773   C.ar      1 RES1   0.0000
    67 H10A    17.6503   9.3098  15.0012   H         1 RES1   0.0000
    68 C16A     4.9915   8.9903  11.3183   C.ar      1 RES1   0.0000
    69 H11A     4.1687   8.5792  11.4561   H         1 RES1   0.0000
    70 C17A    15.4973   8.3753  17.2233   C.ar      1 RES1   0.0000
    71 H12A    15.4372   8.0415  18.0893   H         1 RES1   0.0000
    72 C18A    16.7375   8.6398  16.6703   C.ar      1 RES1   0.0000
    73 H13A    17.5117   8.4879  17.1627   H         1 RES1   0.0000
    74 C19A     5.1517   9.9297  10.3169   C.ar      1 RES1   0.0000
    75 H14A     4.4304  10.1625   9.7781   H         1 RES1   0.0000
@<TRIPOS>BOND
     1     1     3    1
     2     2    17    2
     3     3     6    1
     4     4     1    1
     5     5     1    1
     6     6     7   ar
     7     7     8    1
     8     9     5   ar
     9    10     3    2
    10    11    10    1
    11    12     6   ar
    12    13    12    1
    13    14    15   ar
    14    15     7   ar
    15    16    15    1
    16    17     4    2
    17    18    12   ar
    18    19    18    1
    19    20    14    1
    20    21     5   ar
    21    22    21    1
    22    23    20   ar
    23    24    23    1
    24    25     9   ar
    25    26    25    1
    26    27    20   ar
    27    28    27    1
    28    29    27   ar
    29    30    29    1
    30    31    25   ar
    31    32    31    1
    32    33    23   ar
    33    34    33    1
    34    35    29   ar
    35    36    35    1
    36    37    21   ar
    37    38    37    1
    38    39    54    2
    39    40     1    1
    40    41     1    1
    41    42     1    1
    42    43    40    1
    43    44    43   ar
    44    45    44    1
    45    46    42   ar
    46    47    40    2
    47    48    47    1
    48    49    43   ar
    49    50    49    1
    50    51    52   ar
    51    52    44   ar
    52    53    52    1
    53    54    41    2
    54    55    49   ar
    55    56    55    1
    56    57    51    1
    57    58    42   ar
    58    59    58    1
    59    60    57   ar
    60    61    60    1
    61    62    46   ar
    62    63    62    1
    63    64    57   ar
    64    65    64    1
    65    66    64   ar
    66    67    66    1
    67    68    62   ar
    68    69    68    1
    69    70    60   ar
    70    71    70    1
    71    72    66   ar
    72    73    72    1
    73    74    58   ar
    74    75    74    1
    75     9    10    1
    76    14    18   ar
    77    31    37   ar
    78    33    35   ar
    79    46    47    1
    80    51    55   ar
    81    68    74   ar
    82    70    72   ar
@<TRIPOS>SUBSTRUCTURE
     1 RES1        1 GROUP             0 ****  ****    0  
@<TRIPOS>CRYSIN
   12.3334   14.6776   18.2772   90.0000   90.0000   90.0000    56     1
