@<TRIPOS>MOLECULE
RONPIT32
    75    82     1     0     0
SMALL
NO_CHARGES
****
Generated from the CSD

@<TRIPOS>ATOM
     1 Fe1     -0.8820   2.4973  10.5650   Fe        1 RES1   0.0000
     2 S1       3.5439   2.0046   9.0287   S.2       1 RES1   0.0000
     3 S2      -2.3584   4.7629   6.6764   S.2       1 RES1   0.0000
     4 N1      -1.7566   0.5982  10.5743   N.ar      1 RES1   0.0000
     5 N2      -2.8329   2.8512  11.4234   N.2       1 RES1   0.0000
     6 N3       0.9325   1.8460   9.9257   N.2       1 RES1   0.0000
     7 N4      -0.2936   4.4744  11.0015   N.ar      1 RES1   0.0000
     8 N5      -0.3264   2.3933  12.6397   N.2       1 RES1   0.0000
     9 N6      -1.5092   3.0512   8.7165   N.2       1 RES1   0.0000
    10 C1      -1.2146  -0.5368  10.1034   C.ar      1 RES1   0.0000
    11 H1      -0.3463  -0.5104   9.7449   H         1 RES1   0.0000
    12 C2      -1.8920  -1.7482  10.1299   C.ar      1 RES1   0.0000
    13 H2      -1.4761  -2.5345   9.8244   H         1 RES1   0.0000
    14 C3      -3.1698  -1.7833  10.6036   C.ar      1 RES1   0.0000
    15 H3      -3.6603  -2.5847  10.5771   H         1 RES1   0.0000
    16 C4      -3.7382  -0.6484  11.1179   C.ar      1 RES1   0.0000
    17 H4      -4.6020  -0.6709  11.4888   H         1 RES1   0.0000
    18 C5      -3.0173   0.5305  11.0805   C.ar      1 RES1   0.0000
    19 C6      -3.5318   1.7984  11.5873   C.2       1 RES1   0.0000
    20 H5      -4.3608   1.8373  12.0265   H         1 RES1   0.0000
    21 C7      -3.2870   4.0771  12.0080   C.ar      1 RES1   0.0000
    22 C8      -3.6144   4.1611  13.3479   C.ar      1 RES1   0.0000
    23 H6      -3.5865   3.3886  13.8842   H         1 RES1   0.0000
    24 C9      -3.9812   5.3638  13.9032   C.ar      1 RES1   0.0000
    25 H7      -4.2295   5.3976  14.8099   H         1 RES1   0.0000
    26 C10     -3.9921   6.5326  13.1467   C.ar      1 RES1   0.0000
    27 C11     -3.6626   6.4310  11.8016   C.ar      1 RES1   0.0000
    28 H8      -3.6792   7.2036  11.2660   H         1 RES1   0.0000
    29 C12     -3.3121   5.2258  11.2331   C.ar      1 RES1   0.0000
    30 H9      -3.0906   5.1819  10.3200   H         1 RES1   0.0000
    31 C13     -4.4069   7.8281  13.7210   C.ar      1 RES1   0.0000
    32 C14     -5.5867   7.9372  14.4312   C.ar      1 RES1   0.0000
    33 H10     -6.1081   7.1722  14.5917   H         1 RES1   0.0000
    34 C15     -6.0017   9.1800  14.9081   C.ar      1 RES1   0.0000
    35 H11     -6.8200   9.2490  15.3647   H         1 RES1   0.0000
    36 C16     -5.2390  10.3012  14.7257   C.ar      1 RES1   0.0000
    37 H12     -5.5208  11.1339  15.0592   H         1 RES1   0.0000
    38 C17     -4.0715  10.1883  14.0556   C.ar      1 RES1   0.0000
    39 H13     -3.5306  10.9470  13.9340   H         1 RES1   0.0000
    40 C18     -3.6626   8.9668  13.5444   C.ar      1 RES1   0.0000
    41 H14     -2.8563   8.9179  13.0660   H         1 RES1   0.0000
    42 C19      2.0106   1.9125   9.5459   C.1       1 RES1   0.0000
    43 C20     -0.2434   5.5205  10.1760   C.ar      1 RES1   0.0000
    44 H15     -0.3909   5.3688   9.2603   H         1 RES1   0.0000
    45 C21      0.0118   6.8135  10.5881   C.ar      1 RES1   0.0000
    46 H16      0.0237   7.5196   9.9678   H         1 RES1   0.0000
    47 C22      0.2493   7.0493  11.9236   C.ar      1 RES1   0.0000
    48 H17      0.4266   7.9171  12.2369   H         1 RES1   0.0000
    49 C23      0.2203   5.9833  12.7886   C.ar      1 RES1   0.0000
    50 H18      0.3783   6.1162  13.7049   H         1 RES1   0.0000
    51 C24     -0.0395   4.7179  12.3094   C.ar      1 RES1   0.0000
    52 C25     -0.0657   3.5378  13.1578   C.2       1 RES1   0.0000
    53 H19      0.1065   3.6131  14.0790   H         1 RES1   0.0000
    54 C26     -0.3919   1.2566  13.5131   C.ar      1 RES1   0.0000
    55 C27     -1.0817   1.3130  14.7240   C.ar      1 RES1   0.0000
    56 H20     -1.5014   2.1107  14.9938   H         1 RES1   0.0000
    57 C28     -1.1443   0.1919  15.5229   C.ar      1 RES1   0.0000
    58 H21     -1.6221   0.2383  16.3309   H         1 RES1   0.0000
    59 C29     -0.5288  -1.0033  15.1788   C.ar      1 RES1   0.0000
    60 C30      0.1615  -1.0321  13.9646   C.ar      1 RES1   0.0000
    61 H22      0.5960  -1.8235  13.7034   H         1 RES1   0.0000
    62 C31      0.2179   0.0702  13.1433   C.ar      1 RES1   0.0000
    63 H23      0.6745   0.0176  12.3242   H         1 RES1   0.0000
    64 C32     -0.6685  -2.2072  16.0473   C.ar      1 RES1   0.0000
    65 C33     -0.7545  -2.0893  17.4343   C.ar      1 RES1   0.0000
    66 H24     -0.6873  -1.2416  17.8333   H         1 RES1   0.0000
    67 C34     -0.9384  -3.2105  18.2291   C.ar      1 RES1   0.0000
    68 H25     -1.0066  -3.1139  19.1610   H         1 RES1   0.0000
    69 C35     -1.0211  -4.4621  17.6649   C.ar      1 RES1   0.0000
    70 H26     -1.1387  -5.2196  18.2088   H         1 RES1   0.0000
    71 C36     -0.9330  -4.5975  16.2982   C.ar      1 RES1   0.0000
    72 H27     -0.9995  -5.4478  15.9023   H         1 RES1   0.0000
    73 C37     -0.7439  -3.4764  15.5081   C.ar      1 RES1   0.0000
    74 H28     -0.6644  -3.5830  14.5777   H         1 RES1   0.0000
    75 C38     -1.8623   3.7460   7.8561   C.1       1 RES1   0.0000
@<TRIPOS>BOND
     1     1     4    1
     2     2    42    2
     3     3    75    2
     4     4    10   ar
     5     5     1    1
     6     6     1    1
     7     7     1    1
     8     8     1    1
     9     9     1    1
    10    10    11    1
    11    12    10   ar
    12    13    12    1
    13    14    12   ar
    14    15    14    1
    15    16    14   ar
    16    17    16    1
    17    18     4   ar
    18    19     5    2
    19    20    19    1
    20    21     5    1
    21    22    21   ar
    22    23    22    1
    23    24    22   ar
    24    25    24    1
    25    26    24   ar
    26    27    26   ar
    27    28    27    1
    28    29    21   ar
    29    30    29    1
    30    31    26    1
    31    32    31   ar
    32    33    32    1
    33    34    32   ar
    34    35    34    1
    35    36    34   ar
    36    37    36    1
    37    38    36   ar
    38    39    38    1
    39    40    31   ar
    40    41    40    1
    41    42     6    2
    42    43     7   ar
    43    44    43    1
    44    45    43   ar
    45    46    45    1
    46    47    45   ar
    47    48    47    1
    48    49    47   ar
    49    50    49    1
    50    51     7   ar
    51    52     8    2
    52    53    52    1
    53    54     8    1
    54    55    54   ar
    55    56    55    1
    56    57    55   ar
    57    58    57    1
    58    59    57   ar
    59    60    59   ar
    60    61    60    1
    61    62    54   ar
    62    63    62    1
    63    64    59    1
    64    65    64   ar
    65    66    65    1
    66    67    65   ar
    67    68    67    1
    68    69    67   ar
    69    70    69    1
    70    71    69   ar
    71    72    71    1
    72    73    64   ar
    73    74    73    1
    74    75     9    2
    75    16    18   ar
    76    18    19    1
    77    27    29   ar
    78    38    40   ar
    79    49    51   ar
    80    51    52    1
    81    60    62   ar
    82    71    73   ar
@<TRIPOS>SUBSTRUCTURE
     1 RES1        1 GROUP             0 ****  ****    0  
@<TRIPOS>CRYSIN
   17.3540   12.5410   17.2930   90.0000  115.6840   90.0000    14     1
