@<TRIPOS>MOLECULE
RONPIT03
    75    82     1     0     0
SMALL
NO_CHARGES
****
Generated from the CSD

@<TRIPOS>ATOM
     1 Fe1      3.0560  10.8630   7.4202   Fe        1 RES1   0.0000
     2 S1       1.8657  13.6161  11.0252   S.2       1 RES1   0.0000
     3 N1       2.7504  12.1622   6.0010   N.2       1 RES1   0.0000
     4 N2       2.5658  12.0999   8.8076   N.2       1 RES1   0.0000
     5 C1       2.2834  12.7271   9.7304   C.1       1 RES1   0.0000
     6 C2      -3.3078  12.4924   3.6061   C.ar      1 RES1   0.0000
     7 H1      -3.3775  12.1680   4.4962   H         1 RES1   0.0000
     8 C3       0.3765  12.6764   5.9068   C.ar      1 RES1   0.0000
     9 H2       0.3814  12.8459   6.8423   H         1 RES1   0.0000
    10 C4      -0.7921  12.7879   5.1870   C.ar      1 RES1   0.0000
    11 H3      -1.5891  13.0428   5.6366   H         1 RES1   0.0000
    12 C5       0.3508  12.1492   3.2108   C.ar      1 RES1   0.0000
    13 H4       0.3459  11.9464   2.2826   H         1 RES1   0.0000
    14 C6       1.5439  12.3157   5.2595   C.ar      1 RES1   0.0000
    15 C7      -0.8361  12.5374   3.8218   C.ar      1 RES1   0.0000
    16 C8      -4.4556  12.7242   2.8591   C.ar      1 RES1   0.0000
    17 H5      -5.3077  12.5475   3.2398   H         1 RES1   0.0000
    18 C9      -2.0671  12.7343   3.0531   C.ar      1 RES1   0.0000
    19 C10     -1.9925  13.2224   1.7622   C.ar      1 RES1   0.0000
    20 H6      -1.1442  13.4006   1.3724   H         1 RES1   0.0000
    21 C11      3.7821  12.7923   5.6203   C.2       1 RES1   0.0000
    22 H7       3.7479  13.3977   4.8897   H         1 RES1   0.0000
    23 C12      1.5329  12.0521   3.9088   C.ar      1 RES1   0.0000
    24 H8       2.3336  11.8045   3.4610   H         1 RES1   0.0000
    25 C13     -4.3725  13.2036   1.5846   C.ar      1 RES1   0.0000
    26 H9      -5.1610  13.3629   1.0787   H         1 RES1   0.0000
    27 C14     -3.1403  13.4542   1.0370   C.ar      1 RES1   0.0000
    28 H10     -3.0780  13.7902   0.1505   H         1 RES1   0.0000
    29 N3       4.8370  11.6451   7.3155   N.ar      1 RES1   0.0000
    30 C15      5.0070  12.5576   6.3382   C.ar      1 RES1   0.0000
    31 C16      7.2879  12.8632   6.9021   C.ar      1 RES1   0.0000
    32 H11      8.1302  13.2775   6.7589   H         1 RES1   0.0000
    33 C17      7.1180  11.9392   7.8902   C.ar      1 RES1   0.0000
    34 H12      7.8515  11.7045   8.4468   H         1 RES1   0.0000
    35 C18      6.2049  13.1746   6.1189   C.ar      1 RES1   0.0000
    36 H13      6.2880  13.8192   5.4263   H         1 RES1   0.0000
    37 C19      5.8981  11.3453   8.0914   C.ar      1 RES1   0.0000
    38 H14      5.7991  10.7095   8.7912   H         1 RES1   0.0000
    39 N1A      3.3616   9.5638   6.0010   N.2       1 RES1   0.0000
    40 C6A      4.5681   9.4103   5.2595   C.ar      1 RES1   0.0000
    41 C3A      5.7355   9.0496   5.9068   C.ar      1 RES1   0.0000
    42 H2A      5.7306   8.8801   6.8423   H         1 RES1   0.0000
    43 C4A      6.9041   8.9381   5.1870   C.ar      1 RES1   0.0000
    44 H3A      7.7011   8.6832   5.6366   H         1 RES1   0.0000
    45 C7A      6.9481   9.1886   3.8218   C.ar      1 RES1   0.0000
    46 C5A      5.7612   9.5768   3.2108   C.ar      1 RES1   0.0000
    47 H4A      5.7661   9.7796   2.2826   H         1 RES1   0.0000
    48 C12A     4.5791   9.6739   3.9088   C.ar      1 RES1   0.0000
    49 H8A      3.7784   9.9215   3.4610   H         1 RES1   0.0000
    50 C9A      8.1791   8.9917   3.0531   C.ar      1 RES1   0.0000
    51 C2A      9.4198   9.2335   3.6061   C.ar      1 RES1   0.0000
    52 H1A      9.4895   9.5580   4.4962   H         1 RES1   0.0000
    53 C8A     10.5676   9.0018   2.8591   C.ar      1 RES1   0.0000
    54 H5A     11.4197   9.1785   3.2398   H         1 RES1   0.0000
    55 C13A    10.4845   8.5224   1.5846   C.ar      1 RES1   0.0000
    56 H9A     11.2730   8.3631   1.0787   H         1 RES1   0.0000
    57 C14A     9.2523   8.2718   1.0370   C.ar      1 RES1   0.0000
    58 C10A     8.1045   8.5036   1.7622   C.ar      1 RES1   0.0000
    59 H6A      7.2562   8.3254   1.3724   H         1 RES1   0.0000
    60 H10A     9.1900   7.9358   0.1505   H         1 RES1   0.0000
    61 C11A     2.3299   8.9337   5.6203   C.2       1 RES1   0.0000
    62 H7A      2.3641   8.3283   4.8897   H         1 RES1   0.0000
    63 C15A     1.1050   9.1684   6.3382   C.ar      1 RES1   0.0000
    64 N3A      1.2750  10.0809   7.3155   N.ar      1 RES1   0.0000
    65 N2A      3.5462   9.6261   8.8076   N.2       1 RES1   0.0000
    66 C1A      3.8286   8.9989   9.7304   C.1       1 RES1   0.0000
    67 S1A      4.2463   8.1099  11.0252   S.2       1 RES1   0.0000
    68 C19A     0.2139  10.3807   8.0914   C.ar      1 RES1   0.0000
    69 C17A    -1.0060   9.7868   7.8902   C.ar      1 RES1   0.0000
    70 C16A    -1.1759   8.8628   6.9021   C.ar      1 RES1   0.0000
    71 H11A    -2.0182   8.4485   6.7589   H         1 RES1   0.0000
    72 C18A    -0.0929   8.5514   6.1189   C.ar      1 RES1   0.0000
    73 H13A    -0.1760   7.9068   5.4263   H         1 RES1   0.0000
    74 H12A    -1.7395  10.0215   8.4468   H         1 RES1   0.0000
    75 H14A     0.3129  11.0165   8.7912   H         1 RES1   0.0000
@<TRIPOS>BOND
     1     1     3    1
     2     2     5    2
     3     3    14    1
     4     4     1    1
     5     5     4    2
     6     6     7    1
     7     8     9    1
     8    10     8   ar
     9    11    10    1
    10    12    13    1
    11    14     8   ar
    12    15    10   ar
    13    16     6   ar
    14    17    16    1
    15    18     6   ar
    16    19    18   ar
    17    20    19    1
    18    21     3    2
    19    22    21    1
    20    23    12   ar
    21    24    23    1
    22    25    16   ar
    23    26    25    1
    24    27    19   ar
    25    28    27    1
    26    29     1    1
    27    30    21    1
    28    31    32    1
    29    33    31   ar
    30    34    33    1
    31    35    30   ar
    32    36    35    1
    33    37    29   ar
    34    38    37    1
    35    39     1    1
    36    40    39    1
    37    41    40   ar
    38    42    41    1
    39    43    41   ar
    40    44    43    1
    41    45    43   ar
    42    46    45   ar
    43    47    46    1
    44    48    40   ar
    45    49    48    1
    46    50    45    1
    47    51    50   ar
    48    52    51    1
    49    53    51   ar
    50    54    53    1
    51    55    53   ar
    52    56    55    1
    53    57    55   ar
    54    58    50   ar
    55    59    58    1
    56    60    57    1
    57    61    39    2
    58    62    61    1
    59    63    61    1
    60    64     1    1
    61    65     1    1
    62    66    65    2
    63    67    66    2
    64    68    64   ar
    65    69    68   ar
    66    70    69   ar
    67    71    70    1
    68    72    63   ar
    69    73    72    1
    70    74    69    1
    71    75    68    1
    72    12    15   ar
    73    14    23   ar
    74    15    18    1
    75    25    27   ar
    76    29    30   ar
    77    31    35   ar
    78    33    37   ar
    79    46    48   ar
    80    57    58   ar
    81    63    64   ar
    82    70    72   ar
@<TRIPOS>SUBSTRUCTURE
     1 RES1        1 GROUP             0 ****  ****    0  
@<TRIPOS>CRYSIN
   12.2240   14.4840   18.1300   90.0000   90.0000   90.0000    56     1
