@<TRIPOS>MOLECULE
RONPIT26
    75    82     1     0     0
SMALL
NO_CHARGES
****
Generated from the CSD

@<TRIPOS>ATOM
     1 Fe1     -0.8180   2.4991  10.5474   Fe        1 RES1   0.0000
     2 S1       3.6389   1.9671   9.0605   S.2       1 RES1   0.0000
     3 S2      -2.3836   4.8788   6.7271   S.2       1 RES1   0.0000
     4 N1      -1.7639   0.5566  10.6129   N.ar      1 RES1   0.0000
     5 N2      -2.8140   2.8422  11.5071   N.2       1 RES1   0.0000
     6 N3       1.0220   1.8073   9.8894   N.2       1 RES1   0.0000
     7 N4      -0.2085   4.5145  11.0686   N.ar      1 RES1   0.0000
     8 N5      -0.2473   2.4043  12.7254   N.2       1 RES1   0.0000
     9 N6      -1.5022   3.1439   8.6851   N.2       1 RES1   0.0000
    10 C1      -1.2503  -0.5768  10.1274   C.ar      1 RES1   0.0000
    11 H1      -0.4010  -0.5553   9.7484   H         1 RES1   0.0000
    12 C2      -1.9325  -1.7808  10.1681   C.ar      1 RES1   0.0000
    13 H2      -1.5413  -2.5583   9.8393   H         1 RES1   0.0000
    14 C3      -3.2115  -1.8086  10.7068   C.ar      1 RES1   0.0000
    15 H3      -3.7120  -2.5924  10.6912   H         1 RES1   0.0000
    16 C4      -3.7279  -0.6639  11.2643   C.ar      1 RES1   0.0000
    17 H4      -4.5542  -0.6777  11.6871   H         1 RES1   0.0000
    18 C5      -3.0004   0.5036  11.1876   C.ar      1 RES1   0.0000
    19 C6      -3.4853   1.7657  11.6903   C.2       1 RES1   0.0000
    20 H5      -4.2907   1.7985  12.1538   H         1 RES1   0.0000
    21 C7      -3.2807   4.0627  12.0818   C.ar      1 RES1   0.0000
    22 C8      -3.6110   4.1359  13.4442   C.ar      1 RES1   0.0000
    23 H6      -3.5876   3.3711  13.9720   H         1 RES1   0.0000
    24 C9      -3.9718   5.3475  13.9923   C.ar      1 RES1   0.0000
    25 H7      -4.1978   5.3892  14.8943   H         1 RES1   0.0000
    26 C10     -4.0060   6.5036  13.2375   C.ar      1 RES1   0.0000
    27 C11     -3.6721   6.4052  11.8860   C.ar      1 RES1   0.0000
    28 H8      -3.6847   7.1738  11.3614   H         1 RES1   0.0000
    29 C12     -3.3230   5.2049  11.3035   C.ar      1 RES1   0.0000
    30 H9      -3.1183   5.1645  10.3983   H         1 RES1   0.0000
    31 C13     -4.4394   7.7973  13.8310   C.ar      1 RES1   0.0000
    32 C14     -5.6519   7.9058  14.4950   C.ar      1 RES1   0.0000
    33 H10     -6.1826   7.1536  14.6234   H         1 RES1   0.0000
    34 C15     -6.0708   9.1414  14.9664   C.ar      1 RES1   0.0000
    35 H11     -6.9108   9.1957  15.3626   H         1 RES1   0.0000
    36 C16     -5.3453  10.2533  14.8865   C.ar      1 RES1   0.0000
    37 H12     -5.6065  11.0497  15.2890   H         1 RES1   0.0000
    38 C17     -4.2467  10.1485  14.2069   C.ar      1 RES1   0.0000
    39 H13     -3.7476  10.9184  14.0565   H         1 RES1   0.0000
    40 C18     -3.7631   8.9218  13.6775   C.ar      1 RES1   0.0000
    41 H14     -2.9550   8.9104  13.2156   H         1 RES1   0.0000
    42 C19      2.1185   1.8717   9.5448   C.1       1 RES1   0.0000
    43 C20     -0.1897   5.5760  10.2433   C.ar      1 RES1   0.0000
    44 H15     -0.3594   5.4472   9.3381   H         1 RES1   0.0000
    45 C21      0.0756   6.8507  10.6990   C.ar      1 RES1   0.0000
    46 H16      0.1000   7.5625  10.1008   H         1 RES1   0.0000
    47 C22      0.3037   7.0715  12.0332   C.ar      1 RES1   0.0000
    48 H17      0.4559   7.9323  12.3543   H         1 RES1   0.0000
    49 C23      0.2978   5.9849  12.8977   C.ar      1 RES1   0.0000
    50 H18      0.4685   6.0972  13.8044   H         1 RES1   0.0000
    51 C24      0.0336   4.7417  12.3809   C.ar      1 RES1   0.0000
    52 C25      0.0103   3.5478  13.2265   C.2       1 RES1   0.0000
    53 H19      0.1823   3.6235  14.1380   H         1 RES1   0.0000
    54 C26     -0.3039   1.2608  13.6039   C.ar      1 RES1   0.0000
    55 C27     -0.9758   1.3290  14.8207   C.ar      1 RES1   0.0000
    56 H20     -1.3797   2.1216  15.0917   H         1 RES1   0.0000
    57 C28     -1.0349   0.2120  15.6163   C.ar      1 RES1   0.0000
    58 H21     -1.4864   0.2688  16.4275   H         1 RES1   0.0000
    59 C29     -0.4540  -0.9933  15.2655   C.ar      1 RES1   0.0000
    60 C30      0.2281  -1.0286  14.0644   C.ar      1 RES1   0.0000
    61 H22      0.6561  -1.8136  13.8091   H         1 RES1   0.0000
    62 C31      0.2906   0.0694  13.2359   C.ar      1 RES1   0.0000
    63 H23      0.7365   0.0088  12.4216   H         1 RES1   0.0000
    64 C32     -0.5698  -2.1847  16.1393   C.ar      1 RES1   0.0000
    65 C33     -0.6448  -2.0711  17.5080   C.ar      1 RES1   0.0000
    66 H24     -0.5878  -1.2293  17.8995   H         1 RES1   0.0000
    67 C34     -0.8060  -3.1956  18.3223   C.ar      1 RES1   0.0000
    68 H25     -0.8386  -3.1022  19.2463   H         1 RES1   0.0000
    69 C35     -0.9144  -4.4262  17.7554   C.ar      1 RES1   0.0000
    70 H26     -1.0454  -5.1708  18.2973   H         1 RES1   0.0000
    71 C36     -0.8356  -4.5827  16.3899   C.ar      1 RES1   0.0000
    72 H27     -0.8961  -5.4245  15.9984   H         1 RES1   0.0000
    73 C37     -0.6653  -3.4531  15.6225   C.ar      1 RES1   0.0000
    74 H28     -0.6098  -3.5541  14.6986   H         1 RES1   0.0000
    75 C38     -1.8799   3.8671   7.8582   C.1       1 RES1   0.0000
@<TRIPOS>BOND
     1     1     4    1
     2     2    42    2
     3     3    75    2
     4     4    10   ar
     5     5     1    1
     6     6     1    1
     7     7     1    1
     8     8     1    1
     9     9     1    1
    10    10    11    1
    11    12    10   ar
    12    13    12    1
    13    14    12   ar
    14    15    14    1
    15    16    14   ar
    16    17    16    1
    17    18     4   ar
    18    19     5    2
    19    20    19    1
    20    21     5    1
    21    22    21   ar
    22    23    22    1
    23    24    22   ar
    24    25    24    1
    25    26    24   ar
    26    27    26   ar
    27    28    27    1
    28    29    21   ar
    29    30    29    1
    30    31    26    1
    31    32    31   ar
    32    33    32    1
    33    34    32   ar
    34    35    34    1
    35    36    34   ar
    36    37    36    1
    37    38    36   ar
    38    39    38    1
    39    40    31   ar
    40    41    40    1
    41    42     6    2
    42    43     7   ar
    43    44    43    1
    44    45    43   ar
    45    46    45    1
    46    47    45   ar
    47    48    47    1
    48    49    47   ar
    49    50    49    1
    50    51     7   ar
    51    52     8    2
    52    53    52    1
    53    54     8    1
    54    55    54   ar
    55    56    55    1
    56    57    55   ar
    57    58    57    1
    58    59    57   ar
    59    60    59   ar
    60    61    60    1
    61    62    54   ar
    62    63    62    1
    63    64    59    1
    64    65    64   ar
    65    66    65    1
    66    67    65   ar
    67    68    67    1
    68    69    67   ar
    69    70    69    1
    70    71    69   ar
    71    72    71    1
    72    73    64   ar
    73    74    73    1
    74    75     9    2
    75    16    18   ar
    76    18    19    1
    77    27    29   ar
    78    38    40   ar
    79    49    51   ar
    80    51    52    1
    81    60    62   ar
    82    71    73   ar
@<TRIPOS>SUBSTRUCTURE
     1 RES1        1 GROUP             0 ****  ****    0  
@<TRIPOS>CRYSIN
   17.5770   12.6210   17.3610   90.0000  115.5740   90.0000    14     1
