@<TRIPOS>MOLECULE
RONPIT40
    75    82     1     0     0
SMALL
NO_CHARGES
****
Generated from the CSD

@<TRIPOS>ATOM
     1 Fe1      9.2749   3.6976   1.6396   Fe        1 RES1   0.0000
     2 S1       8.0703   6.5069  -1.9657   S.2       1 RES1   0.0000
     3 N1       7.4753   2.9189   1.7398   N.ar      1 RES1   0.0000
     4 N2       9.5788   2.3869   3.0722   N.2       1 RES1   0.0000
     5 N3       8.7784   4.9493   0.2448   N.2       1 RES1   0.0000
     6 C1       6.4093   3.2103   0.9698   C.ar      1 RES1   0.0000
     7 H1       6.5073   3.8425   0.2665   H         1 RES1   0.0000
     8 C2       5.1786   2.6188   1.1702   C.ar      1 RES1   0.0000
     9 H2       4.4408   2.8605   0.6225   H         1 RES1   0.0000
    10 C3       5.0184   1.6799   2.1608   C.ar      1 RES1   0.0000
    11 H3       4.1786   1.2572   2.2966   H         1 RES1   0.0000
    12 C4       6.1108   1.3604   2.9615   C.ar      1 RES1   0.0000
    13 H4       6.0299   0.7203   3.6604   H         1 RES1   0.0000
    14 C5       7.3152   1.9933   2.7195   C.ar      1 RES1   0.0000
    15 C6       8.5333   1.7432   3.4596   C.2       1 RES1   0.0000
    16 H5       8.5601   1.1374   4.1916   H         1 RES1   0.0000
    17 C7      10.7972   2.2280   3.8238   C.ar      1 RES1   0.0000
    18 C8      10.8138   2.4907   5.1850   C.ar      1 RES1   0.0000
    19 H6      10.0169   2.7540   5.6302   H         1 RES1   0.0000
    20 C9      11.9964   2.3684   5.8920   C.ar      1 RES1   0.0000
    21 H7      12.0042   2.5543   6.8242   H         1 RES1   0.0000
    22 C10     13.1786   1.9776   5.2620   C.ar      1 RES1   0.0000
    23 C11     13.1327   1.7376   3.8932   C.ar      1 RES1   0.0000
    24 H8      13.9321   1.4924   3.4413   H         1 RES1   0.0000
    25 C12     11.9601   1.8455   3.1686   C.ar      1 RES1   0.0000
    26 H9      11.9497   1.6610   2.2364   H         1 RES1   0.0000
    27 C13     14.4254   1.7719   6.0399   C.ar      1 RES1   0.0000
    28 C14     14.3638   1.2674   7.3334   C.ar      1 RES1   0.0000
    29 H10     13.5191   1.0753   7.7224   H         1 RES1   0.0000
    30 C15     15.5297   1.0404   8.0664   C.ar      1 RES1   0.0000
    31 H11     15.4754   0.7011   8.9511   H         1 RES1   0.0000
    32 C16     16.7578   1.3082   7.5072   C.ar      1 RES1   0.0000
    33 H12     17.5505   1.1477   8.0054   H         1 RES1   0.0000
    34 C17     16.8416   1.8083   6.2296   C.ar      1 RES1   0.0000
    35 H13     17.6915   1.9967   5.8493   H         1 RES1   0.0000
    36 C18     15.6829   2.0402   5.4919   C.ar      1 RES1   0.0000
    37 H14     15.7475   2.3842   4.6079   H         1 RES1   0.0000
    38 C19      8.4962   5.5866  -0.6806   C.1       1 RES1   0.0000
    39 S1A     10.4795   0.8883  -1.9657   S.2       1 RES1   0.0000
    40 N1A     11.0744   4.4763   1.7398   N.ar      1 RES1   0.0000
    41 N2A      8.9709   5.0083   3.0722   N.2       1 RES1   0.0000
    42 N3A      9.7714   2.4459   0.2448   N.2       1 RES1   0.0000
    43 C1A     12.1404   4.1849   0.9698   C.ar      1 RES1   0.0000
    44 H1A     12.0425   3.5527   0.2665   H         1 RES1   0.0000
    45 C2A     13.3712   4.7764   1.1702   C.ar      1 RES1   0.0000
    46 H2A     14.1089   4.5347   0.6225   H         1 RES1   0.0000
    47 C3A     13.5313   5.7153   2.1608   C.ar      1 RES1   0.0000
    48 H3A     14.3711   6.1380   2.2966   H         1 RES1   0.0000
    49 C4A     12.4390   6.0348   2.9615   C.ar      1 RES1   0.0000
    50 H4A     12.5198   6.6749   3.6604   H         1 RES1   0.0000
    51 C5A     11.2346   5.4019   2.7195   C.ar      1 RES1   0.0000
    52 C6A     10.0165   5.6520   3.4596   C.2       1 RES1   0.0000
    53 H5A      9.9897   6.2578   4.1916   H         1 RES1   0.0000
    54 C7A      7.7526   5.1672   3.8238   C.ar      1 RES1   0.0000
    55 C8A      7.7360   4.9045   5.1850   C.ar      1 RES1   0.0000
    56 H6A      8.5329   4.6412   5.6302   H         1 RES1   0.0000
    57 C9A      6.5534   5.0268   5.8920   C.ar      1 RES1   0.0000
    58 H7A      6.5456   4.8409   6.8242   H         1 RES1   0.0000
    59 C10A     5.3711   5.4176   5.2620   C.ar      1 RES1   0.0000
    60 C11A     5.4170   5.6576   3.8932   C.ar      1 RES1   0.0000
    61 H8A      4.6177   5.9028   3.4413   H         1 RES1   0.0000
    62 C12A     6.5896   5.5497   3.1686   C.ar      1 RES1   0.0000
    63 H9A      6.6000   5.7342   2.2364   H         1 RES1   0.0000
    64 C13A     4.1244   5.6233   6.0399   C.ar      1 RES1   0.0000
    65 C14A     4.1859   6.1278   7.3334   C.ar      1 RES1   0.0000
    66 H10A     5.0307   6.3199   7.7224   H         1 RES1   0.0000
    67 C15A     3.0200   6.3548   8.0664   C.ar      1 RES1   0.0000
    68 H11A     3.0743   6.6941   8.9511   H         1 RES1   0.0000
    69 C16A     1.7919   6.0870   7.5072   C.ar      1 RES1   0.0000
    70 H12A     0.9992   6.2475   8.0054   H         1 RES1   0.0000
    71 C17A     1.7082   5.5869   6.2296   C.ar      1 RES1   0.0000
    72 H13A     0.8582   5.3985   5.8493   H         1 RES1   0.0000
    73 C18A     2.8668   5.3550   5.4919   C.ar      1 RES1   0.0000
    74 H14A     2.8022   5.0110   4.6079   H         1 RES1   0.0000
    75 C19A    10.0536   1.8086  -0.6806   C.1       1 RES1   0.0000
@<TRIPOS>BOND
     1     1     3    1
     2     2    38    2
     3     3     6   ar
     4     4     1    1
     5     5     1    1
     6     6     7    1
     7     8     6   ar
     8     9     8    1
     9    10     8   ar
    10    11    10    1
    11    12    10   ar
    12    13    12    1
    13    14     3   ar
    14    15     4    2
    15    16    15    1
    16    17     4    1
    17    18    17   ar
    18    19    18    1
    19    20    18   ar
    20    21    20    1
    21    22    20   ar
    22    23    22   ar
    23    24    23    1
    24    25    17   ar
    25    26    25    1
    26    27    22    1
    27    28    27   ar
    28    29    28    1
    29    30    28   ar
    30    31    30    1
    31    32    30   ar
    32    33    32    1
    33    34    32   ar
    34    35    34    1
    35    36    27   ar
    36    37    36    1
    37    38     5    2
    38    39    75    2
    39    40     1    1
    40    41     1    1
    41    42     1    1
    42    43    40   ar
    43    44    43    1
    44    45    43   ar
    45    46    45    1
    46    47    45   ar
    47    48    47    1
    48    49    47   ar
    49    50    49    1
    50    51    40   ar
    51    52    41    2
    52    53    52    1
    53    54    41    1
    54    55    54   ar
    55    56    55    1
    56    57    55   ar
    57    58    57    1
    58    59    57   ar
    59    60    59   ar
    60    61    60    1
    61    62    54   ar
    62    63    62    1
    63    64    59    1
    64    65    64   ar
    65    66    65    1
    66    67    65   ar
    67    68    67    1
    68    69    67   ar
    69    70    69    1
    70    71    69   ar
    71    72    71    1
    72    73    64   ar
    73    74    73    1
    74    75    42    2
    75    12    14   ar
    76    14    15    1
    77    23    25   ar
    78    34    36   ar
    79    49    51   ar
    80    51    52    1
    81    60    62   ar
    82    71    73   ar
@<TRIPOS>SUBSTRUCTURE
     1 RES1        1 GROUP             0 ****  ****    0  
@<TRIPOS>CRYSIN
   12.3665   14.7904   18.2563   90.0000   90.0000   90.0000    56     1
