@<TRIPOS>MOLECULE
RONPIT35
    75    82     1     0     0
SMALL
NO_CHARGES
****
Generated from the CSD

@<TRIPOS>ATOM
     1 Fe1     -0.8597   2.3708  10.2989   Fe        1 RES1   0.0000
     2 S1       3.6673   1.9659   8.8007   S.2       1 RES1   0.0000
     3 S2      -2.4242   4.8547   6.5820   S.2       1 RES1   0.0000
     4 N1      -1.8477   0.4501  10.3829   N.ar      1 RES1   0.0000
     5 N2      -2.9106   2.7819  11.1766   N.2       1 RES1   0.0000
     6 N3       1.0040   1.6032   9.7064   N.2       1 RES1   0.0000
     7 N4      -0.2318   4.4123  10.7436   N.ar      1 RES1   0.0000
     8 N5      -0.2860   2.3318  12.4201   N.2       1 RES1   0.0000
     9 N6      -1.5411   2.9614   8.4435   N.2       1 RES1   0.0000
    10 C1      -1.3465  -0.7094   9.9413   C.ar      1 RES1   0.0000
    11 H1      -0.4610  -0.7228   9.5968   H         1 RES1   0.0000
    12 C2      -2.0726  -1.8963   9.9687   C.ar      1 RES1   0.0000
    13 H2      -1.6770  -2.7038   9.6624   H         1 RES1   0.0000
    14 C3      -3.3874  -1.8975  10.4487   C.ar      1 RES1   0.0000
    15 H3      -3.9060  -2.6937  10.4456   H         1 RES1   0.0000
    16 C4      -3.9145  -0.7099  10.9276   C.ar      1 RES1   0.0000
    17 H4      -4.7957  -0.6788  11.2807   H         1 RES1   0.0000
    18 C5      -3.1273   0.4369  10.8810   C.ar      1 RES1   0.0000
    19 C6      -3.6205   1.7260  11.3671   C.2       1 RES1   0.0000
    20 H5      -4.4550   1.7824  11.8181   H         1 RES1   0.0000
    21 C7      -3.3222   4.0179  11.7428   C.ar      1 RES1   0.0000
    22 C8      -3.6315   4.0967  13.0657   C.ar      1 RES1   0.0000
    23 H6      -3.6458   3.3134  13.6028   H         1 RES1   0.0000
    24 C9      -3.9252   5.3291  13.6184   C.ar      1 RES1   0.0000
    25 H7      -4.1543   5.3748  14.5402   H         1 RES1   0.0000
    26 C10     -3.8988   6.4997  12.8767   C.ar      1 RES1   0.0000
    27 C11     -3.5697   6.3971  11.5549   C.ar      1 RES1   0.0000
    28 H8      -3.5284   7.1811  11.0212   H         1 RES1   0.0000
    29 C12     -3.2976   5.1751  10.9870   C.ar      1 RES1   0.0000
    30 H9      -3.0887   5.1247  10.0609   H         1 RES1   0.0000
    31 C13     -4.2504   7.8218  13.4414   C.ar      1 RES1   0.0000
    32 C14     -5.4423   7.9806  14.1498   C.ar      1 RES1   0.0000
    33 H10     -5.9948   7.2264  14.3219   H         1 RES1   0.0000
    34 C15     -5.8230   9.2338  14.6037   C.ar      1 RES1   0.0000
    35 H11     -6.6539   9.3406  15.0516   H         1 RES1   0.0000
    36 C16     -5.0005  10.3299  14.4074   C.ar      1 RES1   0.0000
    37 H12     -5.2648  11.1834  14.7280   H         1 RES1   0.0000
    38 C17     -3.7900  10.1815  13.7436   C.ar      1 RES1   0.0000
    39 H13     -3.2124  10.9282  13.6303   H         1 RES1   0.0000
    40 C18     -3.4291   8.9445  13.2481   C.ar      1 RES1   0.0000
    41 H14     -2.6126   8.8517  12.7692   H         1 RES1   0.0000
    42 C19      2.1113   1.7591   9.3334   C.1       1 RES1   0.0000
    43 C20     -0.1864   5.4510   9.9209   C.ar      1 RES1   0.0000
    44 H15     -0.3081   5.2906   8.9922   H         1 RES1   0.0000
    45 C21      0.0299   6.7607  10.3325   C.ar      1 RES1   0.0000
    46 H16      0.0464   7.4690   9.7006   H         1 RES1   0.0000
    47 C22      0.2172   7.0116  11.6581   C.ar      1 RES1   0.0000
    48 H17      0.3595   7.8963  11.9738   H         1 RES1   0.0000
    49 C23      0.1952   5.9429  12.5268   C.ar      1 RES1   0.0000
    50 H18      0.3324   6.0813  13.4562   H         1 RES1   0.0000
    51 C24     -0.0292   4.6616  12.0401   C.ar      1 RES1   0.0000
    52 C25     -0.0491   3.4952  12.9045   C.2       1 RES1   0.0000
    53 H19      0.1143   3.5950  13.8349   H         1 RES1   0.0000
    54 C26     -0.3495   1.2163  13.2910   C.ar      1 RES1   0.0000
    55 C27     -1.0134   1.3052  14.4872   C.ar      1 RES1   0.0000
    56 H20     -1.4323   2.1168  14.7478   H         1 RES1   0.0000
    57 C28     -1.0619   0.2077  15.2977   C.ar      1 RES1   0.0000
    58 H21     -1.5217   0.2765  16.1264   H         1 RES1   0.0000
    59 C29     -0.4657  -1.0169  14.9658   C.ar      1 RES1   0.0000
    60 C30      0.2040  -1.0830  13.7671   C.ar      1 RES1   0.0000
    61 H22      0.6393  -1.8880  13.5112   H         1 RES1   0.0000
    62 C31      0.2446   0.0092  12.9407   C.ar      1 RES1   0.0000
    63 H23      0.6918  -0.0603  12.1051   H         1 RES1   0.0000
    64 C32     -0.5858  -2.2057  15.8289   C.ar      1 RES1   0.0000
    65 C33     -0.7032  -2.0694  17.1856   C.ar      1 RES1   0.0000
    66 H24     -0.6577  -1.2054  17.5783   H         1 RES1   0.0000
    67 C34     -0.8871  -3.1785  17.9879   C.ar      1 RES1   0.0000
    68 H25     -0.9580  -3.0695  18.9294   H         1 RES1   0.0000
    69 C35     -0.9683  -4.4441  17.4386   C.ar      1 RES1   0.0000
    70 H26     -1.1080  -5.1989  17.9981   H         1 RES1   0.0000
    71 C36     -0.8478  -4.6012  16.0986   C.ar      1 RES1   0.0000
    72 H27     -0.8973  -5.4666  15.7096   H         1 RES1   0.0000
    73 C37     -0.6521  -3.4940  15.3092   C.ar      1 RES1   0.0000
    74 H28     -0.5578  -3.6126  14.3707   H         1 RES1   0.0000
    75 C38     -1.9121   3.7359   7.6608   C.1       1 RES1   0.0000
@<TRIPOS>BOND
     1     1     4    1
     2     2    42    2
     3     3    75    2
     4     4    10   ar
     5     5     1    1
     6     6     1    1
     7     7     1    1
     8     8     1    1
     9     9     1    1
    10    10    11    1
    11    12    10   ar
    12    13    12    1
    13    14    12   ar
    14    15    14    1
    15    16    14   ar
    16    17    16    1
    17    18     4   ar
    18    19     5    2
    19    20    19    1
    20    21     5    1
    21    22    21   ar
    22    23    22    1
    23    24    22   ar
    24    25    24    1
    25    26    24   ar
    26    27    26   ar
    27    28    27    1
    28    29    21   ar
    29    30    29    1
    30    31    26    1
    31    32    31   ar
    32    33    32    1
    33    34    32   ar
    34    35    34    1
    35    36    34   ar
    36    37    36    1
    37    38    36   ar
    38    39    38    1
    39    40    31   ar
    40    41    40    1
    41    42     6    2
    42    43     7   ar
    43    44    43    1
    44    45    43   ar
    45    46    45    1
    46    47    45   ar
    47    48    47    1
    48    49    47   ar
    49    50    49    1
    50    51     7   ar
    51    52     8    2
    52    53    52    1
    53    54     8    1
    54    55    54   ar
    55    56    55    1
    56    57    55   ar
    57    58    57    1
    58    59    57   ar
    59    60    59   ar
    60    61    60    1
    61    62    54   ar
    62    63    62    1
    63    64    59    1
    64    65    64   ar
    65    66    65    1
    66    67    65   ar
    67    68    67    1
    68    69    67   ar
    69    70    69    1
    70    71    69   ar
    71    72    71    1
    72    73    64   ar
    73    74    73    1
    74    75     9    2
    75    16    18   ar
    76    18    19    1
    77    27    29   ar
    78    38    40   ar
    79    49    51   ar
    80    51    52    1
    81    60    62   ar
    82    71    73   ar
@<TRIPOS>SUBSTRUCTURE
     1 RES1        1 GROUP             0 ****  ****    0  
@<TRIPOS>CRYSIN
   17.3857   12.5698   16.9919   90.0000  116.0410   90.0000    14     1
