@<TRIPOS>MOLECULE
RONPIT04
    75    82     1     0     0
SMALL
NO_CHARGES
****
Generated from the CSD

@<TRIPOS>ATOM
     1 Fe1      2.1005   2.4931   5.1034   Fe        1 RES1   0.0000
     2 S1      -2.3615   1.9687   6.5949   S.2       1 RES1   0.0000
     3 S2       3.6574   4.8702   8.9229   S.2       1 RES1   0.0000
     4 N1       1.5289   2.3893   2.9385   N.2       1 RES1   0.0000
     5 N2       1.4921   4.5191   4.5892   N.ar      1 RES1   0.0000
     6 N3       4.1077   2.8342   4.1462   N.2       1 RES1   0.0000
     7 N4       2.7726   3.1354   6.9596   N.2       1 RES1   0.0000
     8 N5       3.0377   0.5545   5.0383   N.ar      1 RES1   0.0000
     9 N6       0.2754   1.7807   5.7551   N.2       1 RES1   0.0000
    10 C1       2.5185  -0.5986   5.5188   C.ar      1 RES1   0.0000
    11 H1       1.6697  -0.5961   5.8990   H         1 RES1   0.0000
    12 C2       3.2338  -1.7907   5.4563   C.ar      1 RES1   0.0000
    13 H2       2.8637  -2.5746   5.7910   H         1 RES1   0.0000
    14 C3       4.4966  -1.8096   4.8947   C.ar      1 RES1   0.0000
    15 H3       4.9815  -2.6036   4.8618   H         1 RES1   0.0000
    16 C4       5.0370  -0.6528   4.3847   C.ar      1 RES1   0.0000
    17 H4       5.8817  -0.6452   3.9983   H         1 RES1   0.0000
    18 C5       4.2717   0.5053   4.4708   C.ar      1 RES1   0.0000
    19 C6       4.7763   1.7668   3.9514   C.2       1 RES1   0.0000
    20 H5       5.5800   1.7933   3.4821   H         1 RES1   0.0000
    21 C7       4.5617   4.0591   3.5682   C.ar      1 RES1   0.0000
    22 C8       4.8789   4.1259   2.2182   C.ar      1 RES1   0.0000
    23 H6       4.8435   3.3597   1.6926   H         1 RES1   0.0000
    24 C9       5.2444   5.3269   1.6629   C.ar      1 RES1   0.0000
    25 H7       5.4721   5.3609   0.7618   H         1 RES1   0.0000
    26 C10      5.2816   6.4951   2.4184   C.ar      1 RES1   0.0000
    27 C11      4.9436   6.4081   3.7715   C.ar      1 RES1   0.0000
    28 H8       4.9597   7.1743   4.2971   H         1 RES1   0.0000
    29 C12      4.5864   5.1983   4.3425   C.ar      1 RES1   0.0000
    30 H9       4.3649   5.1542   5.2451   H         1 RES1   0.0000
    31 C13      5.7133   7.7969   1.8349   C.ar      1 RES1   0.0000
    32 C14      6.9193   7.8989   1.1576   C.ar      1 RES1   0.0000
    33 H10      7.4577   7.1567   1.0027   H         1 RES1   0.0000
    34 C15      7.2979   9.2297   0.6992   C.ar      1 RES1   0.0000
    35 H11      8.1315   9.3444   0.3066   H         1 RES1   0.0000
    36 C16      6.4787  10.3185   0.8244   C.ar      1 RES1   0.0000
    37 H12      6.6851  11.1402   0.4427   H         1 RES1   0.0000
    38 C17      5.4506  10.1408   1.4751   C.ar      1 RES1   0.0000
    39 H13      4.9223  10.8919   1.6237   H         1 RES1   0.0000
    40 C18      4.9895   8.9550   2.0101   C.ar      1 RES1   0.0000
    41 H14      4.1918   8.9386   2.4888   H         1 RES1   0.0000
    42 C19     -0.8284   1.8638   6.1102   C.1       1 RES1   0.0000
    43 C20      1.4610   5.5802   5.4125   C.ar      1 RES1   0.0000
    44 H15      1.6192   5.4478   6.3182   H         1 RES1   0.0000
    45 C21      1.2075   6.8391   4.9713   C.ar      1 RES1   0.0000
    46 H16      1.1909   7.5486   5.5720   H         1 RES1   0.0000
    47 C22      0.9795   7.0584   3.6479   C.ar      1 RES1   0.0000
    48 H17      0.8109   7.9178   3.3335   H         1 RES1   0.0000
    49 C23      1.0065   5.9733   2.7735   C.ar      1 RES1   0.0000
    50 H18      0.8532   6.0931   1.8646   H         1 RES1   0.0000
    51 C24      1.2572   4.7283   3.2788   C.ar      1 RES1   0.0000
    52 C25      1.2814   3.5349   2.4356   C.2       1 RES1   0.0000
    53 H19      1.1131   3.6117   1.5252   H         1 RES1   0.0000
    54 C26      1.6096   1.2715   2.0711   C.ar      1 RES1   0.0000
    55 C27      2.2807   1.3320   0.8619   C.ar      1 RES1   0.0000
    56 H20      2.6870   2.1247   0.5944   H         1 RES1   0.0000
    57 C28      2.3466   0.2231   0.0563   C.ar      1 RES1   0.0000
    58 H21      2.8096   0.2823  -0.7493   H         1 RES1   0.0000
    59 C29      1.7512  -0.9842   0.3958   C.ar      1 RES1   0.0000
    60 C30      1.0692  -1.0245   1.6128   C.ar      1 RES1   0.0000
    61 H22      0.6454  -1.8109   1.8693   H         1 RES1   0.0000
    62 C31      1.0106   0.0769   2.4434   C.ar      1 RES1   0.0000
    63 H23      0.5659   0.0164   3.2584   H         1 RES1   0.0000
    64 C32      1.8763  -2.1776  -0.4818   C.ar      1 RES1   0.0000
    65 C33      1.9424  -2.0692  -1.8615   C.ar      1 RES1   0.0000
    66 H24      1.8735  -1.2312  -2.2588   H         1 RES1   0.0000
    67 C34      2.1117  -3.1883  -2.6593   C.ar      1 RES1   0.0000
    68 H25      2.1628  -3.0913  -3.5838   H         1 RES1   0.0000
    69 C35      2.2041  -4.4422  -2.1024   C.ar      1 RES1   0.0000
    70 H26      2.3301  -5.1882  -2.6421   H         1 RES1   0.0000
    71 C36      2.1093  -4.5796  -0.7618   C.ar      1 RES1   0.0000
    72 H27      2.1426  -5.4277  -0.3817   H         1 RES1   0.0000
    73 C37      1.9623  -3.4656   0.0516   C.ar      1 RES1   0.0000
    74 H28      1.9208  -3.5790   0.9746   H         1 RES1   0.0000
    75 C38      3.1359   3.8499   7.7933   C.1       1 RES1   0.0000
@<TRIPOS>BOND
     1     1     4    1
     2     2    42    2
     3     3    75    2
     4     4    52    2
     5     5     1    1
     6     6     1    1
     7     7     1    1
     8     8     1    1
     9     9     1    1
    10    10     8   ar
    11    11    10    1
    12    12    10   ar
    13    13    12    1
    14    14    12   ar
    15    15    14    1
    16    16    14   ar
    17    17    16    1
    18    18     8   ar
    19    19     6    2
    20    20    19    1
    21    21     6    1
    22    22    21   ar
    23    23    22    1
    24    24    22   ar
    25    25    24    1
    26    26    24   ar
    27    27    26   ar
    28    28    27    1
    29    29    21   ar
    30    30    29    1
    31    31    26    1
    32    32    31   ar
    33    33    32    1
    34    34    32   ar
    35    35    34    1
    36    36    34   ar
    37    37    36    1
    38    38    36   ar
    39    39    38    1
    40    40    31   ar
    41    41    40    1
    42    42     9    2
    43    43     5   ar
    44    44    43    1
    45    45    43   ar
    46    46    45    1
    47    47    45   ar
    48    48    47    1
    49    49    47   ar
    50    50    49    1
    51    51     5   ar
    52    52    51    1
    53    53    52    1
    54    54     4    1
    55    55    54   ar
    56    56    55    1
    57    57    55   ar
    58    58    57    1
    59    59    57   ar
    60    60    59   ar
    61    61    60    1
    62    62    54   ar
    63    63    62    1
    64    64    59    1
    65    65    64   ar
    66    66    65    1
    67    67    65   ar
    68    68    67    1
    69    69    67   ar
    70    70    69    1
    71    71    69   ar
    72    72    71    1
    73    73    64   ar
    74    74    73    1
    75    75     7    2
    76    16    18   ar
    77    18    19    1
    78    27    29   ar
    79    38    40   ar
    80    49    51   ar
    81    60    62   ar
    82    71    73   ar
@<TRIPOS>SUBSTRUCTURE
     1 RES1        1 GROUP             0 ****  ****    0  
@<TRIPOS>CRYSIN
   17.5700   12.6020   17.3580   90.0000  115.6840   90.0000    14     1
