@<TRIPOS>MOLECULE
RONPIT41
    75    82     1     0     0
SMALL
NO_CHARGES
****
Generated from the CSD

@<TRIPOS>ATOM
     1 Fe1      9.7260   3.8003   1.3384   Fe        1 RES1   0.0000
     2 S1       7.6588   6.7233  -1.8397   S.2       1 RES1   0.0000
     3 N1       7.6440   3.1001   1.6537   N.ar      1 RES1   0.0000
     4 N2       9.7925   2.3744   3.0770   N.2       1 RES1   0.0000
     5 N3       9.0637   5.1464  -0.0625   N.2       1 RES1   0.0000
     6 C1       6.5722   3.4429   0.9253   C.ar      1 RES1   0.0000
     7 H1       6.6863   3.9706   0.1673   H         1 RES1   0.0000
     8 C2       5.3025   3.0296   1.2744   C.ar      1 RES1   0.0000
     9 H2       4.5725   3.2865   0.7592   H         1 RES1   0.0000
    10 C3       5.1185   2.2513   2.3667   C.ar      1 RES1   0.0000
    11 H3       4.2652   1.9731   2.6070   H         1 RES1   0.0000
    12 C4       6.2128   1.8760   3.1200   C.ar      1 RES1   0.0000
    13 H4       6.1131   1.3392   3.8718   H         1 RES1   0.0000
    14 C5       7.4532   2.3168   2.7285   C.ar      1 RES1   0.0000
    15 C6       8.6521   1.9689   3.4730   C.2       1 RES1   0.0000
    16 H5       8.5861   1.4487   4.2417   H         1 RES1   0.0000
    17 C7      10.9394   2.1194   3.8802   C.ar      1 RES1   0.0000
    18 C8      10.9049   2.2784   5.2586   C.ar      1 RES1   0.0000
    19 H6      10.1086   2.5082   5.6808   H         1 RES1   0.0000
    20 C9      12.0528   2.0938   6.0009   C.ar      1 RES1   0.0000
    21 H7      12.0161   2.1920   6.9244   H         1 RES1   0.0000
    22 C10     13.2606   1.7644   5.4018   C.ar      1 RES1   0.0000
    23 C11     13.2656   1.6112   4.0210   C.ar      1 RES1   0.0000
    24 H8      14.0599   1.3818   3.5952   H         1 RES1   0.0000
    25 C12     12.1377   1.7867   3.2679   C.ar      1 RES1   0.0000
    26 H9      12.1744   1.6828   2.3445   H         1 RES1   0.0000
    27 C13     14.4895   1.5502   6.1957   C.ar      1 RES1   0.0000
    28 C14     14.4543   0.8774   7.4028   C.ar      1 RES1   0.0000
    29 H10     13.6410   0.5655   7.7294   H         1 RES1   0.0000
    30 C15     15.6096   0.6614   8.1326   C.ar      1 RES1   0.0000
    31 H11     15.5707   0.2052   8.9431   H         1 RES1   0.0000
    32 C16     16.8013   1.1158   7.6646   C.ar      1 RES1   0.0000
    33 H12     17.5781   0.9668   8.1557   H         1 RES1   0.0000
    34 C17     16.8675   1.7907   6.4717   C.ar      1 RES1   0.0000
    35 H13     17.6845   2.1023   6.1529   H         1 RES1   0.0000
    36 C18     15.7068   2.0073   5.7418   C.ar      1 RES1   0.0000
    37 H14     15.7522   2.4672   4.9339   H         1 RES1   0.0000
    38 C19      8.4813   5.7945  -0.8073   C.1       1 RES1   0.0000
    39 S1A     11.7932   0.8773  -1.8397   S.2       1 RES1   0.0000
    40 N1A     11.8080   4.5005   1.6537   N.ar      1 RES1   0.0000
    41 N2A      9.6595   5.2262   3.0770   N.2       1 RES1   0.0000
    42 N3A     10.3883   2.4542  -0.0625   N.2       1 RES1   0.0000
    43 C1A     12.8798   4.1577   0.9253   C.ar      1 RES1   0.0000
    44 H1A     12.7657   3.6300   0.1673   H         1 RES1   0.0000
    45 C2A     14.1495   4.5710   1.2744   C.ar      1 RES1   0.0000
    46 H2A     14.8795   4.3141   0.7592   H         1 RES1   0.0000
    47 C3A     14.3335   5.3493   2.3667   C.ar      1 RES1   0.0000
    48 H3A     15.1868   5.6275   2.6070   H         1 RES1   0.0000
    49 C4A     13.2392   5.7246   3.1200   C.ar      1 RES1   0.0000
    50 H4A     13.3389   6.2614   3.8718   H         1 RES1   0.0000
    51 C5A     11.9988   5.2838   2.7285   C.ar      1 RES1   0.0000
    52 C6A     10.7999   5.6317   3.4730   C.2       1 RES1   0.0000
    53 H5A     10.8659   6.1519   4.2417   H         1 RES1   0.0000
    54 C7A      8.5126   5.4812   3.8802   C.ar      1 RES1   0.0000
    55 C8A      8.5471   5.3222   5.2586   C.ar      1 RES1   0.0000
    56 H6A      9.3434   5.0924   5.6808   H         1 RES1   0.0000
    57 C9A      7.3992   5.5068   6.0009   C.ar      1 RES1   0.0000
    58 H7A      7.4359   5.4086   6.9244   H         1 RES1   0.0000
    59 C10A     6.1914   5.8362   5.4018   C.ar      1 RES1   0.0000
    60 C11A     6.1864   5.9894   4.0210   C.ar      1 RES1   0.0000
    61 H8A      5.3921   6.2188   3.5952   H         1 RES1   0.0000
    62 C12A     7.3143   5.8139   3.2679   C.ar      1 RES1   0.0000
    63 H9A      7.2776   5.9178   2.3445   H         1 RES1   0.0000
    64 C13A     4.9625   6.0504   6.1957   C.ar      1 RES1   0.0000
    65 C14A     4.9977   6.7232   7.4028   C.ar      1 RES1   0.0000
    66 H10A     5.8110   7.0351   7.7294   H         1 RES1   0.0000
    67 C15A     3.8424   6.9392   8.1326   C.ar      1 RES1   0.0000
    68 H11A     3.8813   7.3954   8.9431   H         1 RES1   0.0000
    69 C16A     2.6507   6.4848   7.6646   C.ar      1 RES1   0.0000
    70 H12A     1.8739   6.6338   8.1557   H         1 RES1   0.0000
    71 C17A     2.5845   5.8099   6.4717   C.ar      1 RES1   0.0000
    72 H13A     1.7675   5.4983   6.1529   H         1 RES1   0.0000
    73 C18A     3.7452   5.5933   5.7418   C.ar      1 RES1   0.0000
    74 H14A     3.6998   5.1334   4.9339   H         1 RES1   0.0000
    75 C19A    10.9707   1.8061  -0.8073   C.1       1 RES1   0.0000
@<TRIPOS>BOND
     1     1     3    1
     2     2    38    2
     3     3     6   ar
     4     4     1    1
     5     5     1    1
     6     6     7    1
     7     8     6   ar
     8     9     8    1
     9    10     8   ar
    10    11    10    1
    11    12    10   ar
    12    13    12    1
    13    14     3   ar
    14    15     4    2
    15    16    15    1
    16    17     4    1
    17    18    17   ar
    18    19    18    1
    19    20    18   ar
    20    21    20    1
    21    22    20   ar
    22    23    22   ar
    23    24    23    1
    24    25    17   ar
    25    26    25    1
    26    27    22    1
    27    28    27   ar
    28    29    28    1
    29    30    28   ar
    30    31    30    1
    31    32    30   ar
    32    33    32    1
    33    34    32   ar
    34    35    34    1
    35    36    27   ar
    36    37    36    1
    37    38     5    2
    38    39    75    2
    39    40     1    1
    40    41     1    1
    41    42     1    1
    42    43    40   ar
    43    44    43    1
    44    45    43   ar
    45    46    45    1
    46    47    45   ar
    47    48    47    1
    48    49    47   ar
    49    50    49    1
    50    51    40   ar
    51    52    41    2
    52    53    52    1
    53    54    41    1
    54    55    54   ar
    55    56    55    1
    56    57    55   ar
    57    58    57    1
    58    59    57   ar
    59    60    59   ar
    60    61    60    1
    61    62    54   ar
    62    63    62    1
    63    64    59    1
    64    65    64   ar
    65    66    65    1
    66    67    65   ar
    67    68    67    1
    68    69    67   ar
    69    70    69    1
    70    71    69   ar
    71    72    71    1
    72    73    64   ar
    73    74    73    1
    74    75    42    2
    75    12    14   ar
    76    14    15    1
    77    23    25   ar
    78    34    36   ar
    79    49    51   ar
    80    51    52    1
    81    60    62   ar
    82    71    73   ar
@<TRIPOS>SUBSTRUCTURE
     1 RES1        1 GROUP             0 ****  ****    0  
@<TRIPOS>CRYSIN
   12.9680   15.2012   17.6149   90.0000   90.0000   90.0000    56     1
