@<TRIPOS>MOLECULE
RONPIT36
    75    82     1     0     0
SMALL
NO_CHARGES
****
Generated from the CSD

@<TRIPOS>ATOM
     1 Fe1      3.2241   3.6659   1.3958   Fe        1 RES1   0.0000
     2 S1       1.0739   0.8201  -1.8469   S.2       1 RES1   0.0000
     3 N1       3.1958   2.2494   3.1241   N.2       1 RES1   0.0000
     4 N2       5.3263   3.0016   1.6962   N.ar      1 RES1   0.0000
     5 N3       2.5587   2.3476  -0.0282   N.2       1 RES1   0.0000
     6 C1       6.3992   3.3653   0.9796   C.ar      1 RES1   0.0000
     7 H1       6.2690   3.9137   0.2153   H         1 RES1   0.0000
     8 C2       7.6812   2.9826   1.3008   C.ar      1 RES1   0.0000
     9 H2       8.4150   3.2421   0.7554   H         1 RES1   0.0000
    10 C3       7.8836   2.2127   2.4322   C.ar      1 RES1   0.0000
    11 H3       8.7606   1.9576   2.6916   H         1 RES1   0.0000
    12 C4       6.7836   1.8212   3.1788   C.ar      1 RES1   0.0000
    13 H4       6.8932   1.2948   3.9624   H         1 RES1   0.0000
    14 C5       5.5339   2.2098   2.7640   C.ar      1 RES1   0.0000
    15 C6       4.3268   1.8535   3.5459   C.2       1 RES1   0.0000
    16 H5       4.3977   1.3432   4.3454   H         1 RES1   0.0000
    17 C7       2.0467   2.0060   3.9518   C.ar      1 RES1   0.0000
    18 C8       2.0905   2.1468   5.3268   C.ar      1 RES1   0.0000
    19 H6       2.9159   2.3520   5.7468   H         1 RES1   0.0000
    20 C9       0.9531   1.9942   6.0998   C.ar      1 RES1   0.0000
    21 H7       1.0046   2.0940   7.0424   H         1 RES1   0.0000
    22 C10     -0.2708   1.6936   5.4962   C.ar      1 RES1   0.0000
    23 C11     -0.2992   1.5367   4.1036   C.ar      1 RES1   0.0000
    24 H8      -1.1194   1.3212   3.6747   H         1 RES1   0.0000
    25 C12      0.8537   1.6892   3.3394   C.ar      1 RES1   0.0000
    26 H9       0.8176   1.5749   2.3969   H         1 RES1   0.0000
    27 C13     -1.4908   1.5118   6.2728   C.ar      1 RES1   0.0000
    28 C14     -1.4612   0.8417   7.5136   C.ar      1 RES1   0.0000
    29 H10     -0.6397   0.5088   7.8525   H         1 RES1   0.0000
    30 C15     -2.6322   0.6657   8.2373   C.ar      1 RES1   0.0000
    31 H11     -2.6012   0.2346   9.0827   H         1 RES1   0.0000
    32 C16     -3.8432   1.1100   7.7413   C.ar      1 RES1   0.0000
    33 H12     -4.6415   0.9619   8.2337   H         1 RES1   0.0000
    34 C17     -3.8909   1.7596   6.5517   C.ar      1 RES1   0.0000
    35 H13     -4.7227   2.0778   6.2199   H         1 RES1   0.0000
    36 C18     -2.7328   1.9649   5.8139   C.ar      1 RES1   0.0000
    37 H14     -2.7844   2.4195   4.9808   H         1 RES1   0.0000
    38 C19      1.9512   1.7259  -0.7854   C.1       1 RES1   0.0000
    39 S1A      5.3744   6.5117  -1.8469   S.2       1 RES1   0.0000
    40 N1A      3.2525   5.0824   3.1241   N.2       1 RES1   0.0000
    41 N2A      1.1220   4.3302   1.6962   N.ar      1 RES1   0.0000
    42 N3A      3.8896   4.9842  -0.0282   N.2       1 RES1   0.0000
    43 C1A      0.0490   3.9665   0.9796   C.ar      1 RES1   0.0000
    44 H1A      0.1793   3.4181   0.2153   H         1 RES1   0.0000
    45 C2A     -1.2329   4.3492   1.3008   C.ar      1 RES1   0.0000
    46 H2A     -1.9667   4.0897   0.7554   H         1 RES1   0.0000
    47 C3A     -1.4354   5.1191   2.4322   C.ar      1 RES1   0.0000
    48 H3A     -2.3123   5.3742   2.6916   H         1 RES1   0.0000
    49 C4A     -0.3353   5.5106   3.1788   C.ar      1 RES1   0.0000
    50 H4A     -0.4449   6.0370   3.9624   H         1 RES1   0.0000
    51 C5A      0.9144   5.1220   2.7640   C.ar      1 RES1   0.0000
    52 C6A      2.1215   5.4783   3.5459   C.2       1 RES1   0.0000
    53 H5A      2.0505   5.9886   4.3454   H         1 RES1   0.0000
    54 C7A      4.4016   5.3258   3.9518   C.ar      1 RES1   0.0000
    55 C8A      4.3577   5.1850   5.3268   C.ar      1 RES1   0.0000
    56 H6A      3.5324   4.9798   5.7468   H         1 RES1   0.0000
    57 C9A      5.4952   5.3376   6.0998   C.ar      1 RES1   0.0000
    58 H7A      5.4436   5.2378   7.0424   H         1 RES1   0.0000
    59 C10A     6.7191   5.6382   5.4962   C.ar      1 RES1   0.0000
    60 C11A     6.7474   5.7951   4.1036   C.ar      1 RES1   0.0000
    61 H8A      7.5677   6.0106   3.6747   H         1 RES1   0.0000
    62 C12A     5.5945   5.6426   3.3394   C.ar      1 RES1   0.0000
    63 H9A      5.6306   5.7569   2.3969   H         1 RES1   0.0000
    64 C13A     7.9391   5.8200   6.2728   C.ar      1 RES1   0.0000
    65 C14A     7.9094   6.4901   7.5136   C.ar      1 RES1   0.0000
    66 H10A     7.0879   6.8230   7.8525   H         1 RES1   0.0000
    67 C15A     9.0804   6.6661   8.2373   C.ar      1 RES1   0.0000
    68 H11A     9.0495   7.0972   9.0827   H         1 RES1   0.0000
    69 C16A    10.2914   6.2218   7.7413   C.ar      1 RES1   0.0000
    70 H12A    11.0897   6.3699   8.2337   H         1 RES1   0.0000
    71 C17A    10.3391   5.5722   6.5517   C.ar      1 RES1   0.0000
    72 H13A    11.1709   5.2540   6.2199   H         1 RES1   0.0000
    73 C18A     9.1810   5.3669   5.8139   C.ar      1 RES1   0.0000
    74 H14A     9.2326   4.9123   4.9808   H         1 RES1   0.0000
    75 C19A     4.4970   5.6059  -0.7854   C.1       1 RES1   0.0000
@<TRIPOS>BOND
     1     1     3    1
     2     2    38    2
     3     3    15    2
     4     4     1    1
     5     5     1    1
     6     6     4   ar
     7     7     6    1
     8     8     6   ar
     9     9     8    1
    10    10     8   ar
    11    11    10    1
    12    12    10   ar
    13    13    12    1
    14    14     4   ar
    15    15    14    1
    16    16    15    1
    17    17     3    1
    18    18    17   ar
    19    19    18    1
    20    20    18   ar
    21    21    20    1
    22    22    20   ar
    23    23    22   ar
    24    24    23    1
    25    25    17   ar
    26    26    25    1
    27    27    22    1
    28    28    27   ar
    29    29    28    1
    30    30    28   ar
    31    31    30    1
    32    32    30   ar
    33    33    32    1
    34    34    32   ar
    35    35    34    1
    36    36    27   ar
    37    37    36    1
    38    38     5    2
    39    39    75    2
    40    40     1    1
    41    41     1    1
    42    42     1    1
    43    43    41   ar
    44    44    43    1
    45    45    43   ar
    46    46    45    1
    47    47    45   ar
    48    48    47    1
    49    49    47   ar
    50    50    49    1
    51    51    41   ar
    52    52    40    2
    53    53    52    1
    54    54    40    1
    55    55    54   ar
    56    56    55    1
    57    57    55   ar
    58    58    57    1
    59    59    57   ar
    60    60    59   ar
    61    61    60    1
    62    62    54   ar
    63    63    62    1
    64    64    59    1
    65    65    64   ar
    66    66    65    1
    67    67    65   ar
    68    68    67    1
    69    69    67   ar
    70    70    69    1
    71    71    69   ar
    72    72    71    1
    73    73    64   ar
    74    74    73    1
    75    75    42    2
    76    12    14   ar
    77    23    25   ar
    78    34    36   ar
    79    49    51   ar
    80    51    52    1
    81    60    62   ar
    82    71    73   ar
@<TRIPOS>SUBSTRUCTURE
     1 RES1        1 GROUP             0 ****  ****    0  
@<TRIPOS>CRYSIN
   12.8965   14.6636   17.6500   90.0000   90.0000   90.0000    56     1
