@<TRIPOS>MOLECULE
RUCJEF
    93   102     3     0     0
SMALL
USER_CHARGES
****
Generated from the CSD

@<TRIPOS>ATOM
     1 Fe1      5.8385   6.9070   6.6184   Fe        1 RES1   2.0000
     2 N1       5.2195   5.1641   7.3330   N.ar      1 RES1   0.0000
     3 N2       7.5822   6.0522   6.2156   N.ar      1 RES1   0.0000
     4 N3       5.2328   6.3352   4.8591   N.ar      1 RES1   0.0000
     5 N4       7.4280   2.7371   3.7576   N.ar      1 RES1   0.0000
     6 C1       6.2972   4.1518   5.3838   C.3       1 RES1   0.0000
     7 C2       5.6336   4.0138   6.7673   C.ar      1 RES1   0.0000
     8 C3       5.5985   2.8170   7.4723   C.ar      1 RES1   0.0000
     9 C4       5.0034   2.7730   8.7161   C.ar      1 RES1   0.0000
    10 C5       4.4401   3.9290   9.2283   C.ar      1 RES1   0.0000
    11 C6       4.5930   5.0999   8.5279   C.ar      1 RES1   0.0000
    12 C7       7.6551   4.7827   5.7508   C.ar      1 RES1   0.0000
    13 C8       8.8530   4.0778   5.7735   C.ar      1 RES1   0.0000
    14 C9      10.0168   4.7073   6.1847   C.ar      1 RES1   0.0000
    15 C10      9.9587   6.0351   6.5634   C.ar      1 RES1   0.0000
    16 C11      8.7323   6.6706   6.5828   C.ar      1 RES1   0.0000
    17 C12      5.4719   5.0762   4.4437   C.ar      1 RES1   0.0000
    18 C13      4.9934   4.6427   3.2114   C.ar      1 RES1   0.0000
    19 C14      4.2703   5.5010   2.4066   C.ar      1 RES1   0.0000
    20 C15      4.0552   6.7954   2.8214   C.ar      1 RES1   0.0000
    21 C16      4.5418   7.1742   4.0486   C.ar      1 RES1   0.0000
    22 C17      6.4153   2.8170   4.6191   C.ar      1 RES1   0.0000
    23 C18      5.3818   1.8750   4.6452   C.ar      1 RES1   0.0000
    24 C19      5.4465   0.7950   3.7722   C.ar      1 RES1   0.0000
    25 C20      6.5035   0.6986   2.8977   C.ar      1 RES1   0.0000
    26 C21      7.4659   1.6932   2.9180   C.ar      1 RES1   0.0000
    27 H1       5.9830   2.0320   7.0989   H         1 RES1   0.0000
    28 H2       4.9810   1.9630   9.2128   H         1 RES1   0.0000
    29 H3       3.9576   3.9121  10.0467   H         1 RES1   0.0000
    30 H4       4.2426   5.9000   8.9004   H         1 RES1   0.0000
    31 H5       8.8734   3.1662   5.5078   H         1 RES1   0.0000
    32 H6      10.8411   4.2340   6.2054   H         1 RES1   0.0000
    33 H7      10.7487   6.5036   6.8063   H         1 RES1   0.0000
    34 H8       8.6930   7.5770   6.8646   H         1 RES1   0.0000
    35 H9       5.1644   3.7533   2.9227   H         1 RES1   0.0000
    36 H10      3.9246   5.2010   1.5738   H         1 RES1   0.0000
    37 H11      3.5831   7.4112   2.2728   H         1 RES1   0.0000
    38 H12      4.3876   8.0646   4.3430   H         1 RES1   0.0000
    39 H13      4.6513   1.9713   5.2457   H         1 RES1   0.0000
    40 H14      4.7672   0.1299   3.7791   H         1 RES1   0.0000
    41 H15      6.5721  -0.0318   2.2953   H         1 RES1   0.0000
    42 H16      8.1895   1.6328   2.3058   H         1 RES1   0.0000
    43 N1B      6.4576   8.6499   5.9037   N.ar      1 RES1   0.0000
    44 N2B      4.0949   7.7618   7.0212   N.ar      1 RES1   0.0000
    45 N3B      6.4443   7.4788   8.3777   N.ar      1 RES1   0.0000
    46 N4B      4.2491  11.0769   9.4791   N.ar      1 RES1   0.0000
    47 C1B      5.3798   9.6622   7.8530   C.3       1 RES1   0.0000
    48 C2B      6.0435   9.8002   6.4695   C.ar      1 RES1   0.0000
    49 C3B      6.0785  10.9970   5.7645   C.ar      1 RES1   0.0000
    50 C4B      6.6736  11.0410   4.5206   C.ar      1 RES1   0.0000
    51 C5B      7.2370   9.8850   4.0085   C.ar      1 RES1   0.0000
    52 C6B      7.0841   8.7141   4.7088   C.ar      1 RES1   0.0000
    53 C7B      4.0220   9.0313   7.4859   C.ar      1 RES1   0.0000
    54 C8B      2.8241   9.7362   7.4633   C.ar      1 RES1   0.0000
    55 C9B      1.6602   9.1067   7.0520   C.ar      1 RES1   0.0000
    56 C10B     1.7184   7.7789   6.6733   C.ar      1 RES1   0.0000
    57 C11B     2.9447   7.1434   6.6540   C.ar      1 RES1   0.0000
    58 C12B     6.2052   8.7378   8.7930   C.ar      1 RES1   0.0000
    59 C13B     6.6836   9.1713  10.0254   C.ar      1 RES1   0.0000
    60 C14B     7.4068   8.3130  10.8302   C.ar      1 RES1   0.0000
    61 C15B     7.6218   7.0186  10.4153   C.ar      1 RES1   0.0000
    62 C16B     7.1353   6.6398   9.1882   C.ar      1 RES1   0.0000
    63 C17B     5.2617  10.9970   8.6177   C.ar      1 RES1   0.0000
    64 C18B     6.2953  11.9390   8.5916   C.ar      1 RES1   0.0000
    65 C19B     6.2305  13.0190   9.4645   C.ar      1 RES1   0.0000
    66 C20B     5.1735  13.1154  10.3391   C.ar      1 RES1   0.0000
    67 C21B     4.2112  12.1208  10.3187   C.ar      1 RES1   0.0000
    68 H1B      5.6941  11.7820   6.1379   H         1 RES1   0.0000
    69 H2B      6.6961  11.8510   4.0240   H         1 RES1   0.0000
    70 H3B      7.7195   9.9019   3.1901   H         1 RES1   0.0000
    71 H4B      7.4345   7.9140   4.3364   H         1 RES1   0.0000
    72 H5B      2.8037  10.6478   7.7289   H         1 RES1   0.0000
    73 H6B      0.8360   9.5800   7.0314   H         1 RES1   0.0000
    74 H7B      0.9284   7.3104   6.4304   H         1 RES1   0.0000
    75 H8B      2.9841   6.2370   6.3722   H         1 RES1   0.0000
    76 H9B      6.5126  10.0607  10.3141   H         1 RES1   0.0000
    77 H10B     7.7524   8.6130  11.6629   H         1 RES1   0.0000
    78 H11B     8.0940   6.4028  10.9640   H         1 RES1   0.0000
    79 H12B     7.2894   5.7494   8.8938   H         1 RES1   0.0000
    80 H13B     7.0257  11.8427   7.9910   H         1 RES1   0.0000
    81 H14B     6.9099  13.6841   9.4577   H         1 RES1   0.0000
    82 H15B     5.1050  13.8458  10.9415   H         1 RES1   0.0000
    83 H16B     3.4876  12.1812  10.9309   H         1 RES1   0.0000
    84 Cl1      1.5603   3.7429   5.1074   Cl        2 RES2   0.0000
    85 O1       2.6953   3.7805   5.9663   O.3       2 RES2  -1.0000
    86 O2       1.0211   5.0391   4.9333   O.2       2 RES2   0.0000
    87 O3       1.9877   3.2242   3.8201   O.2       2 RES2   0.0000
    88 O4       0.5698   2.8603   5.6111   O.2       2 RES2   0.0000
    89 Cl2      1.8486   1.4075   9.0988   Cl        3 RES3   0.0000
    90 Cl3      0.6763  -0.8482   7.7659   Cl        3 RES3   0.0000
    91 Cl4      3.3765  -0.0395   7.1230   Cl        3 RES3   0.0000
    92 C22      1.7639   0.5195   7.5980   C.3       3 RES3   0.0000
    93 H17      1.4111   1.1258   6.8858   H         3 RES3   0.0000
@<TRIPOS>BOND
     1     1     2    1
     2     2     7   ar
     3     3     1    1
     4     4     1    1
     5     5    22   ar
     6     6     7    1
     7     7     8   ar
     8     8     9   ar
     9     9    10   ar
    10    10    11   ar
    11    11     2   ar
    12    12     3   ar
    13    13    12   ar
    14    14    13   ar
    15    15    14   ar
    16    16     3   ar
    17    17     4   ar
    18    18    17   ar
    19    19    18   ar
    20    20    19   ar
    21    21     4   ar
    22    22     6    1
    23    23    22   ar
    24    24    23   ar
    25    25    24   ar
    26    26     5   ar
    27    27     8    1
    28    28     9    1
    29    29    10    1
    30    30    11    1
    31    31    13    1
    32    32    14    1
    33    33    15    1
    34    34    16    1
    35    35    18    1
    36    36    19    1
    37    37    20    1
    38    38    21    1
    39    39    23    1
    40    40    24    1
    41    41    25    1
    42    42    26    1
    43    43     1    1
    44    44     1    1
    45    45     1    1
    46    46    63   ar
    47    47    48    1
    48    48    43   ar
    49    49    48   ar
    50    50    49   ar
    51    51    50   ar
    52    52    43   ar
    53    53    44   ar
    54    54    53   ar
    55    55    54   ar
    56    56    55   ar
    57    57    44   ar
    58    58    45   ar
    59    59    58   ar
    60    60    59   ar
    61    61    60   ar
    62    62    45   ar
    63    63    47    1
    64    64    63   ar
    65    65    64   ar
    66    66    65   ar
    67    67    46   ar
    68    68    49    1
    69    69    50    1
    70    70    51    1
    71    71    52    1
    72    72    54    1
    73    73    55    1
    74    74    56    1
    75    75    57    1
    76    76    59    1
    77    77    60    1
    78    78    61    1
    79    79    62    1
    80    80    64    1
    81    81    65    1
    82    82    66    1
    83    83    67    1
    84     6    12    1
    85     6    17    1
    86    15    16   ar
    87    20    21   ar
    88    25    26   ar
    89    47    53    1
    90    47    58    1
    91    51    52   ar
    92    56    57   ar
    93    61    62   ar
    94    66    67   ar
    95    84    85    1
    96    86    84    2
    97    87    84    2
    98    88    84    2
    99    89    92    1
   100    90    92    1
   101    91    92    1
   102    92    93    1
@<TRIPOS>SUBSTRUCTURE
     1 RES1        1 GROUP             0 ****  ****    0  
     2 RES2       84 GROUP             0 ****  ****    0  
     3 RES3       89 GROUP             0 ****  ****    0  
@<TRIPOS>CRYSIN
   12.4753   13.8140   13.2608   90.0000   93.4510   90.0000   231     1
