@<TRIPOS>MOLECULE
RUDCEZ
    91    96     2     0     0
SMALL
NO_CHARGES
****
Generated from the CSD

@<TRIPOS>ATOM
     1 C1       1.0548  12.5830   0.9923   C.ar      1 RES1   0.0000
     2 C2       1.4156  11.3064   1.4303   C.ar      1 RES1   0.0000
     3 C3       0.5407  10.6655   2.3047   C.ar      1 RES1   0.0000
     4 H1       0.7610   9.8045   2.6397   H         1 RES1   0.0000
     5 C4      -0.6420  11.2640   2.6921   C.ar      1 RES1   0.0000
     6 H2      -1.2320  10.8055   3.2789   H         1 RES1   0.0000
     7 C5      -0.9732  12.5214   2.2355   C.ar      1 RES1   0.0000
     8 H3      -1.7934  12.9158   2.5096   H         1 RES1   0.0000
     9 C6      -0.1300  13.2236   1.3796   C.ar      1 RES1   0.0000
    10 C7       2.6938  10.6098   0.9837   C.3       1 RES1   0.0000
    11 H4       3.2375  11.2668   0.4620   H         1 RES1   0.0000
    12 C8       3.5227  10.1599   2.1898   C.3       1 RES1   0.0000
    13 H5       3.6460  10.9157   2.8019   H         1 RES1   0.0000
    14 H6       4.3973   9.8400   1.8836   H         1 RES1   0.0000
    15 H7       3.0549   9.4348   2.6567   H         1 RES1   0.0000
    16 C9       2.3725   9.4264   0.0654   C.3       1 RES1   0.0000
    17 H8       1.8181   8.7793   0.5487   H         1 RES1   0.0000
    18 H9       3.2072   8.9959  -0.2149   H         1 RES1   0.0000
    19 H10      1.8887   9.7466  -0.7240   H         1 RES1   0.0000
    20 C10     -0.5310  14.5824   0.8432   C.3       1 RES1   0.0000
    21 H11      0.2759  15.0019   0.4280   H         1 RES1   0.0000
    22 C11     -1.0509  15.5225   1.9260   C.3       1 RES1   0.0000
    23 H12     -1.9195  15.2036   2.2456   H         1 RES1   0.0000
    24 H13     -1.1517  16.4249   1.5555   H         1 RES1   0.0000
    25 H14     -0.4159  15.5453   2.6718   H         1 RES1   0.0000
    26 C12     -1.5906  14.4044  -0.2512   C.3       1 RES1   0.0000
    27 H15     -1.2442  13.8104  -0.9484   H         1 RES1   0.0000
    28 H16     -1.8057  15.2764  -0.6430   H         1 RES1   0.0000
    29 H17     -2.4001  14.0139   0.1395   H         1 RES1   0.0000
    30 C13      2.9171  14.0823   0.2280   C.3       1 RES1   0.0000
    31 C14      1.7466  12.9506  -1.3676   C.2       1 RES1   0.0000
    32 H18      1.0939  12.3799  -1.7554   H         1 RES1   0.0000
    33 C15      2.6939  13.6453  -2.0299   C.2       1 RES1   0.0000
    34 H19      2.8458  13.6610  -2.9678   H         1 RES1   0.0000
    35 C16      4.4642  15.2344  -1.1683   C.ar      1 RES1   0.0000
    36 C17      5.1207  15.6221  -2.3273   C.ar      1 RES1   0.0000
    37 H20      4.8968  15.2559  -3.1752   H         1 RES1   0.0000
    38 C18      6.1217  16.5728  -2.1861   C.ar      1 RES1   0.0000
    39 H21      6.6002  16.8563  -2.9565   H         1 RES1   0.0000
    40 C19      6.4452  17.1245  -0.9463   C.ar      1 RES1   0.0000
    41 H22      7.1162  17.7901  -0.8541   H         1 RES1   0.0000
    42 C20      5.7392  16.6509   0.1399   C.ar      1 RES1   0.0000
    43 C21      5.0665  16.4081   2.4123   C.3       1 RES1   0.0000
    44 C22      6.6845  18.0110   2.0511   C.2       1 RES1   0.0000
    45 H23      7.3102  18.5707   1.6046   H         1 RES1   0.0000
    46 C23      6.4074  17.9935   3.3596   C.2       1 RES1   0.0000
    47 H24      6.8019  18.5446   4.0237   H         1 RES1   0.0000
    48 C24      5.0420  16.6220   4.9187   C.ar      1 RES1   0.0000
    49 C25      3.8794  17.1534   5.4931   C.ar      1 RES1   0.0000
    50 C26      3.6530  16.8683   6.8423   C.ar      1 RES1   0.0000
    51 H25      2.8741  17.2130   7.2630   H         1 RES1   0.0000
    52 C27      4.5307  16.0992   7.5799   C.ar      1 RES1   0.0000
    53 H26      4.3657  15.9394   8.5018   H         1 RES1   0.0000
    54 C28      5.6525  15.5627   6.9717   C.ar      1 RES1   0.0000
    55 H27      6.2380  15.0131   7.4798   H         1 RES1   0.0000
    56 C29      5.9418  15.8099   5.6294   C.ar      1 RES1   0.0000
    57 C30      2.8966  18.0351   4.7456   C.3       1 RES1   0.0000
    58 H28      3.1586  18.0478   3.7804   H         1 RES1   0.0000
    59 C31      1.4627  17.4905   4.8484   C.3       1 RES1   0.0000
    60 H29      1.4389  16.5669   4.5215   H         1 RES1   0.0000
    61 H30      0.8629  18.0441   4.3065   H         1 RES1   0.0000
    62 H31      1.1711  17.5118   5.7829   H         1 RES1   0.0000
    63 C32      2.9566  19.4712   5.2766   C.3       1 RES1   0.0000
    64 H32      2.7020  19.4802   6.2222   H         1 RES1   0.0000
    65 H33      2.3384  20.0349   4.7666   H         1 RES1   0.0000
    66 H34      3.8689  19.8182   5.1795   H         1 RES1   0.0000
    67 C33      7.2127  15.2432   5.0160   C.3       1 RES1   0.0000
    68 H35      7.1737  15.4015   4.0293   H         1 RES1   0.0000
    69 C34      7.3207  13.7364   5.2419   C.3       1 RES1   0.0000
    70 H36      7.3466  13.5508   6.2033   H         1 RES1   0.0000
    71 H37      8.1408  13.4014   4.8231   H         1 RES1   0.0000
    72 H38      6.5440  13.2893   4.8439   H         1 RES1   0.0000
    73 C35      8.4447  15.9765   5.5600   C.3       1 RES1   0.0000
    74 H39      8.4012  16.9217   5.3058   H         1 RES1   0.0000
    75 H40      9.2567  15.5752   5.1852   H         1 RES1   0.0000
    76 H41      8.4657  15.9002   6.5371   H         1 RES1   0.0000
    77 C36      3.0271  14.5066   3.0587   C.1       1 RES1   0.0000
    78 N1       1.9012  13.2260   0.0017   N.pl3     1 RES1   0.0000
    79 N2       3.3988  14.3314  -1.0525   N.pl3     1 RES1   0.0000
    80 N3       4.7863  15.7168   0.0285   N.ar      1 RES1   0.0000
    81 N4       5.8697  17.0436   1.4782   N.pl3     1 RES1   0.0000
    82 N5       5.4245  17.0098   3.5721   N.pl3     1 RES1   0.0000
    83 O1       2.5291  14.0870   3.9999   O.2       1 RES1   0.0000
    84 Fe1      3.8454  15.1064   1.6148   Fe        1 RES1   0.0000
    85 Br1      5.5375  13.3465   1.8791   Br        1 RES1   0.0000
    86 Br2      2.2782  16.9597   1.1985   Br        1 RES1   0.0000
    87 C37     -0.7713   2.2679   2.1355   C.3       2 RES2   0.0000
    88 H42     -1.3612   2.3680   1.3463   H         2 RES2   0.0000
    89 H43     -0.2516   3.1038   2.2343   H         2 RES2   0.0000
    90 Cl1      0.3276   0.9315   1.8685   Cl        2 RES2   0.0000
    91 Cl2     -1.7594   2.0240   3.5717   Cl        2 RES2   0.0000
@<TRIPOS>BOND
     1     1     2   ar
     2     2     3   ar
     3     3     4    1
     4     5     3   ar
     5     6     5    1
     6     7     5   ar
     7     8     7    1
     8     9     1   ar
     9    10     2    1
    10    11    10    1
    11    12    10    1
    12    13    12    1
    13    14    12    1
    14    15    12    1
    15    16    10    1
    16    17    16    1
    17    18    16    1
    18    19    16    1
    19    20     9    1
    20    21    20    1
    21    22    20    1
    22    23    22    1
    23    24    22    1
    24    25    22    1
    25    26    20    1
    26    27    26    1
    27    28    26    1
    28    29    26    1
    29    30    78    1
    30    31    32    1
    31    33    31    2
    32    34    33    1
    33    35    36   ar
    34    36    37    1
    35    38    36   ar
    36    39    38    1
    37    40    38   ar
    38    41    40    1
    39    42    40   ar
    40    43    81    1
    41    44    45    1
    42    46    44    2
    43    47    46    1
    44    48    49   ar
    45    49    50   ar
    46    50    51    1
    47    52    50   ar
    48    53    52    1
    49    54    52   ar
    50    55    54    1
    51    56    48   ar
    52    57    49    1
    53    58    57    1
    54    59    57    1
    55    60    59    1
    56    61    59    1
    57    62    59    1
    58    63    57    1
    59    64    63    1
    60    65    63    1
    61    66    63    1
    62    67    56    1
    63    68    67    1
    64    69    67    1
    65    70    69    1
    66    71    69    1
    67    72    69    1
    68    73    67    1
    69    74    73    1
    70    75    73    1
    71    76    73    1
    72    77    83    3
    73    78     1    1
    74    79    30    1
    75    80    35   ar
    76    81    42    1
    77    82    43    1
    78    84    30    1
    79    85    84    1
    80    86    84    1
    81     7     9   ar
    82    31    78    1
    83    33    79    1
    84    35    79    1
    85    42    80   ar
    86    43    84    1
    87    44    81    1
    88    46    82    1
    89    48    82    1
    90    54    56   ar
    91    77    84    1
    92    80    84    1
    93    87    88    1
    94    89    87    1
    95    90    87    1
    96    91    87    1
@<TRIPOS>SUBSTRUCTURE
     1 RES1        1 GROUP             0 ****  ****    0  
     2 RES2       87 GROUP             0 ****  ****    0  
@<TRIPOS>CRYSIN
   10.6092   18.6753   18.9664   90.0000   96.2100   90.0000    14     1
