@<TRIPOS>MOLECULE
RUDHUV
    88   100     1     0     0
SMALL
NO_CHARGES
****
Generated from the CSD

@<TRIPOS>ATOM
     1 Fe1      0.8352  33.4409   4.9404   Fe        1 RES1   0.0000
     2 N1      -0.7167  33.4760   5.9356   N.2       1 RES1   0.0000
     3 N2       1.0801  35.2296   5.6188   N.2       1 RES1   0.0000
     4 O1       2.1899  36.5279   8.4664   O.3       1 RES1   0.0000
     5 O2       3.1625  33.7083   8.2306   O.3       1 RES1   0.0000
     6 C1       2.5584  33.5417   3.7920   C.2       1 RES1   0.0000
     7 H1       2.9107  32.6628   3.5431   H         1 RES1   0.0000
     8 C2       0.5689  31.4460   4.4168   C.2       1 RES1   0.0000
     9 H2       1.0962  31.1753   3.6361   H         1 RES1   0.0000
    10 C3       1.3503  31.5877   5.6084   C.2       1 RES1   0.0000
    11 H3       2.2989  31.3811   5.4719   H         1 RES1   0.0000
    12 C4      -3.1025  30.9853   5.1913   C.ar      1 RES1   0.0000
    13 H4      -3.7250  31.2568   5.8269   H         1 RES1   0.0000
    14 C5      -0.8193  30.9919   4.3660   C.ar      1 RES1   0.0000
    15 C6      -0.4351  31.4953   7.3922   C.ar      1 RES1   0.0000
    16 C7      -1.2514  30.1705   3.3137   C.ar      1 RES1   0.0000
    17 H5      -0.6341  29.8820   2.6810   H         1 RES1   0.0000
    18 C8       1.2919  36.4184   3.4505   C.ar      1 RES1   0.0000
    19 C9      -1.7781  31.3780   5.3244   C.ar      1 RES1   0.0000
    20 C10      4.3183  36.5337   5.3160   C.ar      1 RES1   0.0000
    21 H6       4.1204  37.3816   5.6443   H         1 RES1   0.0000
    22 C11      1.3958  33.9203   3.0439   C.2       1 RES1   0.0000
    23 H7       1.1292  33.2492   2.3835   H         1 RES1   0.0000
    24 C12      5.6339  36.0797   5.3455   C.ar      1 RES1   0.0000
    25 H8       6.3095  36.6242   5.6807   H         1 RES1   0.0000
    26 C13      2.9251  33.4457   9.6377   C.3       1 RES1   0.0000
    27 H9       2.3262  32.6899   9.7504   H         1 RES1   0.0000
    28 H10      2.5357  34.2202  10.0715   H         1 RES1   0.0000
    29 C14      1.0542  35.2894   2.6388   C.ar      1 RES1   0.0000
    30 C15      1.8540  36.2114   4.8439   C.3       1 RES1   0.0000
    31 H11      1.8241  37.0670   5.3172   H         1 RES1   0.0000
    32 C16      0.8664  31.2188   6.9564   C.ar      1 RES1   0.0000
    33 C17      3.2918  35.7426   4.8035   C.ar      1 RES1   0.0000
    34 C18     -3.5146  30.1977   4.1263   C.ar      1 RES1   0.0000
    35 H12     -4.4070  29.9519   4.0376   H         1 RES1   0.0000
    36 C19      4.9139  34.0128   4.3757   C.ar      1 RES1   0.0000
    37 H13      5.1207  33.1599   4.0731   H         1 RES1   0.0000
    38 C20     -0.8745  34.6381   6.7958   C.3       1 RES1   0.0000
    39 H14     -0.4435  34.4920   7.6525   H         1 RES1   0.0000
    40 H15     -1.8138  34.8299   6.9460   H         1 RES1   0.0000
    41 C21     -0.8617  31.0405   8.6347   C.ar      1 RES1   0.0000
    42 H16     -1.7337  31.2141   8.9102   H         1 RES1   0.0000
    43 C22      4.2882  33.1377  10.2127   C.3       1 RES1   0.0000
    44 H17      4.2223  32.5928  11.0123   H         1 RES1   0.0000
    45 H18      4.7795  33.9483  10.4155   H         1 RES1   0.0000
    46 C23      5.9308  34.8105   4.8710   C.ar      1 RES1   0.0000
    47 H19      6.8067  34.4998   4.8853   H         1 RES1   0.0000
    48 C24      0.4737  35.5053   1.3805   C.ar      1 RES1   0.0000
    49 H20      0.2953  34.7717   0.8351   H         1 RES1   0.0000
    50 C25      1.2872  30.0800   9.0615   C.ar      1 RES1   0.0000
    51 H21      1.8688  29.6179   9.6185   H         1 RES1   0.0000
    52 C26      3.4816  36.9474   8.9753   C.3       1 RES1   0.0000
    53 H22      3.8460  37.6612   8.4301   H         1 RES1   0.0000
    54 H23      4.1061  36.2048   8.9719   H         1 RES1   0.0000
    55 C27     -0.2116  35.7721   6.0510   C.3       1 RES1   0.0000
    56 H24     -0.7454  36.0417   5.2868   H         1 RES1   0.0000
    57 H25     -0.0866  36.5388   6.6315   H         1 RES1   0.0000
    58 C28      4.3935  33.0783   7.8250   C.3       1 RES1   0.0000
    59 H26      5.0279  33.7425   7.5131   H         1 RES1   0.0000
    60 H27      4.2310  32.4453   7.1099   H         1 RES1   0.0000
    61 C29      0.1589  36.7718   0.9264   C.ar      1 RES1   0.0000
    62 H28     -0.2127  36.8844   0.0811   H         1 RES1   0.0000
    63 C30      3.5808  34.4501   4.3146   C.ar      1 RES1   0.0000
    64 C31     -2.5739  29.7825   3.1949   C.ar      1 RES1   0.0000
    65 H29     -2.8340  29.2372   2.4866   H         1 RES1   0.0000
    66 C32      0.4003  37.8756   1.7318   C.ar      1 RES1   0.0000
    67 H30      0.1914  38.7331   1.4343   H         1 RES1   0.0000
    68 C33     -1.3581  32.2767   6.4660   C.3       1 RES1   0.0000
    69 H31     -2.1569  32.5424   6.9679   H         1 RES1   0.0000
    70 C34     -0.0050  30.3321   9.4740   C.ar      1 RES1   0.0000
    71 H32     -0.3008  30.0334  10.3031   H         1 RES1   0.0000
    72 C35      1.7204  30.5158   7.8199   C.ar      1 RES1   0.0000
    73 H33      2.5934  30.3402   7.5537   H         1 RES1   0.0000
    74 C36      0.9600  37.6849   2.9937   C.ar      1 RES1   0.0000
    75 H34      1.1135  38.4224   3.5406   H         1 RES1   0.0000
    76 C37      4.9312  32.3656   9.0581   C.3       1 RES1   0.0000
    77 H35      5.8985  32.4181   9.0987   H         1 RES1   0.0000
    78 H36      4.6623  31.4355   9.0683   H         1 RES1   0.0000
    79 C38      1.1577  36.9054   9.4157   C.3       1 RES1   0.0000
    80 H37      0.8557  36.1310   9.9177   H         1 RES1   0.0000
    81 H38      0.3982  37.2961   8.9576   H         1 RES1   0.0000
    82 C39      1.8030  37.9129  10.3302   C.3       1 RES1   0.0000
    83 H39      1.3911  37.9059  11.2084   H         1 RES1   0.0000
    84 H40      1.7482  38.8069   9.9608   H         1 RES1   0.0000
    85 C40      3.2376  37.4305  10.3919   C.3       1 RES1   0.0000
    86 H41      3.3391  36.7097  11.0325   H         1 RES1   0.0000
    87 H42      3.8414  38.1506  10.6268   H         1 RES1   0.0000
    88 Li1      2.1713  34.9888   7.2823   Li        1 RES1   0.0000
@<TRIPOS>BOND
     1     1     2    1
     2     2    38    1
     3     3     1    1
     4     4    52    1
     5     5    26    1
     6     6     1   un
     7     7     6    1
     8     8     1   un
     9     9     8    1
    10    10     1   un
    11    11    10    1
    12    12    13    1
    13    14     8    1
    14    15    32   ar
    15    16    14   ar
    16    17    16    1
    17    18    29   ar
    18    19    12   ar
    19    20    21    1
    20    22     1   un
    21    23    22    1
    22    24    20   ar
    23    25    24    1
    24    26    27    1
    25    28    26    1
    26    29    22    1
    27    30     3    1
    28    31    30    1
    29    32    10    1
    30    33    20   ar
    31    34    12   ar
    32    35    34    1
    33    36    37    1
    34    38    39    1
    35    40    38    1
    36    41    15   ar
    37    42    41    1
    38    43    26    1
    39    44    43    1
    40    45    43    1
    41    46    24   ar
    42    47    46    1
    43    48    29   ar
    44    49    48    1
    45    50    51    1
    46    52    53    1
    47    54    52    1
    48    55     3    1
    49    56    55    1
    50    57    55    1
    51    58     5    1
    52    59    58    1
    53    60    58    1
    54    61    48   ar
    55    62    61    1
    56    63     6    1
    57    64    16   ar
    58    65    64    1
    59    66    61   ar
    60    67    66    1
    61    68     2    1
    62    69    68    1
    63    70    41   ar
    64    71    70    1
    65    72    32   ar
    66    73    72    1
    67    74    18   ar
    68    75    74    1
    69    76    43    1
    70    77    76    1
    71    78    76    1
    72    79     4    1
    73    80    79    1
    74    81    79    1
    75    82    79    1
    76    83    82    1
    77    84    82    1
    78    85    52    1
    79    86    85    1
    80    87    85    1
    81    88     3    1
    82     4    88    1
    83     5    88    1
    84     6    22    2
    85     8    10    2
    86    14    19   ar
    87    15    68    1
    88    18    30    1
    89    19    68    1
    90    30    33    1
    91    33    63   ar
    92    34    64   ar
    93    36    46   ar
    94    36    63   ar
    95    38    55    1
    96    50    70   ar
    97    50    72   ar
    98    58    76    1
    99    66    74   ar
   100    82    85    1
@<TRIPOS>SUBSTRUCTURE
     1 RES1        1 GROUP             0 ****  ****    0  
@<TRIPOS>CRYSIN
    9.7246   38.8380    8.9379   90.0000  108.9770   90.0000    14     1
