@<TRIPOS>MOLECULE
RUFYOG01
   143   154     3     0     0
SMALL
USER_CHARGES
****
Generated from the CSD

@<TRIPOS>ATOM
     1 Fe1      0.2776   3.4610   4.4085   Fe        1 RES1   2.0000
     2 N1      -1.6168   4.0520   4.2209   N.3       1 RES1   0.0000
     3 N2       0.0401   2.6593   2.6543   N.ar      1 RES1   0.0000
     4 N3       0.6399   5.1737   3.4692   N.ar      1 RES1   0.0000
     5 N4      -0.5356   1.8615   5.2554   N.ar      1 RES1   0.0000
     6 N5       2.1403   2.9406   4.5635   N.1       1 RES1   0.0000
     7 N6       0.4794   4.3060   6.1435   N.1       1 RES1   0.0000
     8 C1       0.9769   2.0422   1.9358   C.ar      1 RES1   0.0000
     9 H1       1.8254   1.8922   2.3350   H         1 RES1   0.0000
    10 C2       0.7823   1.6109   0.6353   C.ar      1 RES1   0.0000
    11 H2       1.4703   1.1575   0.1630   H         1 RES1   0.0000
    12 C3      -0.4433   1.8564   0.0466   C.ar      1 RES1   0.0000
    13 H3      -0.5998   1.6024  -0.8548   H         1 RES1   0.0000
    14 C4      -1.4322   2.4735   0.7750   C.ar      1 RES1   0.0000
    15 H4      -2.2867   2.6354   0.3958   H         1 RES1   0.0000
    16 C5      -1.1534   2.8553   2.0789   C.ar      1 RES1   0.0000
    17 C6      -2.1744   3.5525   2.9271   C.3       1 RES1   0.0000
    18 H5      -2.5475   4.3162   2.4215   H         1 RES1   0.0000
    19 H6      -2.9166   2.9252   3.1200   H         1 RES1   0.0000
    20 C7       1.7130   5.5010   2.7441   C.ar      1 RES1   0.0000
    21 H7       2.4372   4.8890   2.6776   H         1 RES1   0.0000
    22 C8       1.7812   6.7232   2.0855   C.ar      1 RES1   0.0000
    23 H8       2.5555   6.9482   1.5833   H         1 RES1   0.0000
    24 C9       0.7502   7.5875   2.1620   C.ar      1 RES1   0.0000
    25 H9       0.7943   8.4228   1.7130   H         1 RES1   0.0000
    26 C10     -0.3691   7.2568   2.8938   C.ar      1 RES1   0.0000
    27 H10     -1.0932   7.8653   2.9670   H         1 RES1   0.0000
    28 C11     -0.4212   6.0209   3.5191   C.ar      1 RES1   0.0000
    29 C12     -1.5907   5.5214   4.2841   C.3       1 RES1   0.0000
    30 H11     -1.5245   5.8163   5.2255   H         1 RES1   0.0000
    31 H12     -2.4251   5.8896   3.9016   H         1 RES1   0.0000
    32 C13      0.0040   0.6410   5.4483   C.ar      1 RES1   0.0000
    33 H13      0.9368   0.5267   5.3053   H         1 RES1   0.0000
    34 C14     -0.7281  -0.4313   5.8441   C.ar      1 RES1   0.0000
    35 H14     -0.3169  -1.2802   5.9606   H         1 RES1   0.0000
    36 C15     -2.0641  -0.2727   6.0637   C.ar      1 RES1   0.0000
    37 H15     -2.5876  -1.0211   6.3264   H         1 RES1   0.0000
    38 C16     -2.6618   0.9597   5.9107   C.ar      1 RES1   0.0000
    39 H16     -3.5926   1.0774   6.0570   H         1 RES1   0.0000
    40 C17     -1.8474   2.0234   5.5381   C.ar      1 RES1   0.0000
    41 C18     -2.3569   3.4093   5.3785   C.3       1 RES1   0.0000
    42 H17     -2.2045   3.9259   6.2100   H         1 RES1   0.0000
    43 H18     -3.3298   3.3940   5.1955   H         1 RES1   0.0000
    44 C19      3.2556   2.7905   4.7166   C.1       1 RES1   0.0000
    45 C20      4.6998   2.5638   4.9028   C.3       1 RES1   0.0000
    46 H19      4.8543   2.1462   5.7743   H         1 RES1   0.0000
    47 H20      5.1712   3.4213   4.8596   H         1 RES1   0.0000
    48 H21      5.0308   1.9740   4.1943   H         1 RES1   0.0000
    49 C21      0.7101   4.7270   7.1646   C.1       1 RES1   0.0000
    50 C22      1.0150   5.2555   8.4918   C.3       1 RES1   0.0000
    51 H22      0.2828   5.0356   9.1071   H         1 RES1   0.0000
    52 H23      1.1173   6.2289   8.4419   H         1 RES1   0.0000
    53 H24      1.8474   4.8566   8.8211   H         1 RES1   0.0000
    54 B1      -3.7972   6.3107   8.8410   B         2 RES2  -1.0000
    55 C23     -5.0468   6.8204   9.7591   C.ar      2 RES2   0.0000
    56 C24     -6.0819   7.5483   9.1770   C.ar      2 RES2   0.0000
    57 H25     -6.0518   7.6847   8.2390   H         2 RES2   0.0000
    58 C25     -7.1470   8.0835   9.8755   C.ar      2 RES2   0.0000
    59 H26     -7.8411   8.5489   9.4231   H         2 RES2   0.0000
    60 C26     -7.1791   7.9216  11.2559   C.ar      2 RES2   0.0000
    61 H27     -7.9012   8.2796  11.7581   H         2 RES2   0.0000
    62 C27     -6.1922   7.2568  11.8845   C.ar      2 RES2   0.0000
    63 H28     -6.2042   7.1835  12.8292   H         2 RES2   0.0000
    64 C28     -5.1431   6.6721  11.1561   C.ar      2 RES2   0.0000
    65 H29     -4.4832   6.1675  11.6151   H         2 RES2   0.0000
    66 C29     -2.8183   5.3083   9.6792   C.ar      2 RES2   0.0000
    67 C30     -2.1062   5.8249  10.8068   C.ar      2 RES2   0.0000
    68 H30     -2.1924   6.7437  11.0330   H         2 RES2   0.0000
    69 C31     -1.2697   4.9879  11.5951   C.ar      2 RES2   0.0000
    70 H31     -0.8064   5.3441  12.3435   H         2 RES2   0.0000
    71 C32     -1.1353   3.6804  11.2692   C.ar      2 RES2   0.0000
    72 H32     -0.5797   3.1298  11.8080   H         2 RES2   0.0000
    73 C33     -1.7672   3.1178  10.1981   C.ar      2 RES2   0.0000
    74 H33     -1.6629   2.1956   9.9919   H         2 RES2   0.0000
    75 C34     -2.5836   3.9565   9.4098   C.ar      2 RES2   0.0000
    76 H34     -2.9988   3.5781   8.6415   H         2 RES2   0.0000
    77 C35     -2.8805   7.6148   8.4485   C.ar      2 RES2   0.0000
    78 C36     -3.1011   8.9325   8.8743   C.ar      2 RES2   0.0000
    79 H35     -3.8594   9.1029   9.4231   H         2 RES2   0.0000
    80 C37     -2.2827   9.9945   8.5450   C.ar      2 RES2   0.0000
    81 H36     -2.4773  10.8587   8.8876   H         2 RES2   0.0000
    82 C38     -1.1875   9.8189   7.7301   C.ar      2 RES2   0.0000
    83 H37     -0.6299  10.5485   7.4873   H         2 RES2   0.0000
    84 C39     -0.9307   8.5319   7.2811   C.ar      2 RES2   0.0000
    85 H38     -0.1785   8.3785   6.7223   H         2 RES2   0.0000
    86 C40     -1.7471   7.4613   7.6237   C.ar      2 RES2   0.0000
    87 H39     -1.5345   6.5971   7.2944   H         2 RES2   0.0000
    88 C41     -4.4491   5.6322   7.5006   C.ar      2 RES2   0.0000
    89 C42     -4.4752   6.2220   6.2266   C.ar      2 RES2   0.0000
    90 H40     -3.9877   7.0266   6.0969   H         2 RES2   0.0000
    91 C43     -5.1692   5.6970   5.1390   C.ar      2 RES2   0.0000
    92 H41     -5.1491   6.1385   4.2975   H         2 RES2   0.0000
    93 C44     -5.8753   4.5498   5.2920   C.ar      2 RES2   0.0000
    94 H42     -6.3507   4.1867   4.5536   H         2 RES2   0.0000
    95 C45     -5.9074   3.8969   6.5227   C.ar      2 RES2   0.0000
    96 H43     -6.3828   3.0803   6.6324   H         2 RES2   0.0000
    97 C46     -5.2194   4.4833   7.5904   C.ar      2 RES2   0.0000
    98 H44     -5.2835   4.0639   8.4386   H         2 RES2   0.0000
    99 B2      -5.4260  -0.1500   0.6553   B         3 RES3  -1.0000
   100 C47     -6.2805   0.5421   1.8926   C.ar      3 RES3   0.0000
   101 C48     -5.9575   0.4108   3.2563   C.ar      3 RES3   0.0000
   102 H45     -5.1873  -0.0938   3.4958   H         3 RES3   0.0000
   103 C49     -6.7238   0.9904   4.2742   C.ar      3 RES3   0.0000
   104 H46     -6.4690   0.8711   5.1789   H         3 RES3   0.0000
   105 C50     -7.8270   1.7251   3.9748   C.ar      3 RES3   0.0000
   106 H47     -8.3405   2.1206   4.6700   H         3 RES3   0.0000
   107 C51     -8.1981   1.8956   2.6443   C.ar      3 RES3   0.0000
   108 H48     -8.9644   2.4087   2.4215   H         3 RES3   0.0000
   109 C52     -7.4278   1.3007   1.6531   C.ar      3 RES3   0.0000
   110 H49     -7.7007   1.4183   0.7484   H         3 RES3   0.0000
   111 C53     -4.2264  -1.0330   1.2872   C.ar      3 RES3   0.0000
   112 C54     -4.1542  -2.4343   1.2473   C.ar      3 RES3   0.0000
   113 H50     -4.8483  -2.9048   0.8016   H         3 RES3   0.0000
   114 C55     -3.1192  -3.1826   1.8294   C.ar      3 RES3   0.0000
   115 H51     -3.1272  -4.1321   1.7795   H         3 RES3   0.0000
   116 C56     -2.1042  -2.5434   2.4680   C.ar      3 RES3   0.0000
   117 H52     -1.4001  -3.0411   2.8639   H         3 RES3   0.0000
   118 C57     -2.1042  -1.1643   2.5379   C.ar      3 RES3   0.0000
   119 H53     -1.4021  -0.7057   2.9836   H         3 RES3   0.0000
   120 C58     -3.1432  -0.4517   1.9458   C.ar      3 RES3   0.0000
   121 H54     -3.1112   0.4961   1.9957   H         3 RES3   0.0000
   122 C59     -6.4630  -1.1029  -0.1929   C.ar      3 RES3   0.0000
   123 C60     -7.4178  -1.8700   0.4557   C.ar      3 RES3   0.0000
   124 H55     -7.4539  -1.8325   1.4037   H         3 RES3   0.0000
   125 C61     -8.3245  -2.6866  -0.1962   C.ar      3 RES3   0.0000
   126 H56     -8.9724  -3.1673   0.3027   H         3 RES3   0.0000
   127 C62     -8.2904  -2.8059  -1.5866   C.ar      3 RES3   0.0000
   128 H57     -8.8922  -3.3770  -2.0456   H         3 RES3   0.0000
   129 C63     -7.3717  -2.0797  -2.2518   C.ar      3 RES3   0.0000
   130 H58     -7.3336  -2.1479  -3.1965   H         3 RES3   0.0000
   131 C64     -6.4791  -1.2325  -1.6066   C.ar      3 RES3   0.0000
   132 H59     -5.8632  -0.7279  -2.1221   H         3 RES3   0.0000
   133 C65     -4.7399   0.9751  -0.3093   C.ar      3 RES3   0.0000
   134 C66     -3.8313   0.5711  -1.2972   C.ar      3 RES3   0.0000
   135 H60     -3.5865  -0.3478  -1.3371   H         3 RES3   0.0000
   136 C67     -3.2676   1.4490  -2.2219   C.ar      3 RES3   0.0000
   137 H61     -2.6518   1.1251  -2.8705   H         3 RES3   0.0000
   138 C68     -3.5966   2.7684  -2.1986   C.ar      3 RES3   0.0000
   139 H62     -3.2255   3.3599  -2.8406   H         3 RES3   0.0000
   140 C69     -4.4671   3.2491  -1.2407   C.ar      3 RES3   0.0000
   141 H63     -4.6878   4.1713  -1.2041   H         3 RES3   0.0000
   142 C70     -5.0228   2.3388  -0.3193   C.ar      3 RES3   0.0000
   143 H64     -5.6286   2.6763   0.3293   H         3 RES3   0.0000
@<TRIPOS>BOND
     1     1     2    1
     2     2    17    1
     3     3     1    1
     4     4     1    1
     5     5     1    1
     6     6     1    1
     7     7     1    1
     8     8     3   ar
     9     9     8    1
    10    10     8   ar
    11    11    10    1
    12    12    10   ar
    13    13    12    1
    14    14    12   ar
    15    15    14    1
    16    16     3   ar
    17    17    16    1
    18    18    17    1
    19    19    17    1
    20    20     4   ar
    21    21    20    1
    22    22    20   ar
    23    23    22    1
    24    24    22   ar
    25    25    24    1
    26    26    24   ar
    27    27    26    1
    28    28     4   ar
    29    29     2    1
    30    30    29    1
    31    31    29    1
    32    32     5   ar
    33    33    32    1
    34    34    32   ar
    35    35    34    1
    36    36    34   ar
    37    37    36    1
    38    38    36   ar
    39    39    38    1
    40    40     5   ar
    41    41     2    1
    42    42    41    1
    43    43    41    1
    44    44     6    3
    45    45    44    1
    46    46    45    1
    47    47    45    1
    48    48    45    1
    49    49     7    3
    50    50    49    1
    51    51    50    1
    52    52    50    1
    53    53    50    1
    54    14    16   ar
    55    26    28   ar
    56    28    29    1
    57    38    40   ar
    58    40    41    1
    59    54    55    1
    60    55    56   ar
    61    56    57    1
    62    58    56   ar
    63    59    58    1
    64    60    58   ar
    65    61    60    1
    66    62    60   ar
    67    63    62    1
    68    64    55   ar
    69    65    64    1
    70    66    54    1
    71    67    66   ar
    72    68    67    1
    73    69    67   ar
    74    70    69    1
    75    71    69   ar
    76    72    71    1
    77    73    71   ar
    78    74    73    1
    79    75    66   ar
    80    76    75    1
    81    77    54    1
    82    78    77   ar
    83    79    78    1
    84    80    78   ar
    85    81    80    1
    86    82    80   ar
    87    83    82    1
    88    84    82   ar
    89    85    84    1
    90    86    77   ar
    91    87    86    1
    92    88    54    1
    93    89    88   ar
    94    90    89    1
    95    91    89   ar
    96    92    91    1
    97    93    91   ar
    98    94    93    1
    99    95    93   ar
   100    96    95    1
   101    97    88   ar
   102    98    97    1
   103    62    64   ar
   104    73    75   ar
   105    84    86   ar
   106    95    97   ar
   107    99   100    1
   108   100   101   ar
   109   101   102    1
   110   103   101   ar
   111   104   103    1
   112   105   103   ar
   113   106   105    1
   114   107   105   ar
   115   108   107    1
   116   109   100   ar
   117   110   109    1
   118   111    99    1
   119   112   111   ar
   120   113   112    1
   121   114   112   ar
   122   115   114    1
   123   116   114   ar
   124   117   116    1
   125   118   116   ar
   126   119   118    1
   127   120   111   ar
   128   121   120    1
   129   122    99    1
   130   123   122   ar
   131   124   123    1
   132   125   123   ar
   133   126   125    1
   134   127   125   ar
   135   128   127    1
   136   129   127   ar
   137   130   129    1
   138   131   122   ar
   139   132   131    1
   140   133    99    1
   141   134   133   ar
   142   135   134    1
   143   136   134   ar
   144   137   136    1
   145   138   136   ar
   146   139   138    1
   147   140   138   ar
   148   141   140    1
   149   142   133   ar
   150   143   142    1
   151   107   109   ar
   152   118   120   ar
   153   129   131   ar
   154   140   142   ar
@<TRIPOS>SUBSTRUCTURE
     1 RES1        1 GROUP             0 ****  ****    0  
     2 RES2       54 GROUP             0 ****  ****    0  
     3 RES3       99 GROUP             0 ****  ****    0  
@<TRIPOS>CRYSIN
   20.0590   17.0467   33.2620   90.0000   90.0000   90.0000    61     1
