@<TRIPOS>MOLECULE
RUFYOG
   137   148     3     0     0
SMALL
USER_CHARGES
****
Generated from the CSD

@<TRIPOS>ATOM
     1 Fe1      9.7346   3.4527   4.4040   Fe        1 RES1   2.0000
     2 N1      11.6294   4.0239   4.2057   N.3       1 RES1   0.0000
     3 N2       9.3220   5.1238   3.4482   N.ar      1 RES1   0.0000
     4 N3       9.9469   2.6537   2.6709   N.ar      1 RES1   0.0000
     5 N4      10.5518   1.8921   5.2421   N.ar      1 RES1   0.0000
     6 N5       7.8938   2.9257   4.5578   N.1       1 RES1   0.0000
     7 N6       9.5243   4.3027   6.1258   N.1       1 RES1   0.0000
     8 C1      11.6074   5.5080   4.2787   C.3       1 RES1   0.0000
     9 C2      10.4276   6.0010   3.5479   C.ar      1 RES1   0.0000
    10 C3      10.3936   7.2250   2.8935   C.ar      1 RES1   0.0000
    11 C4       9.2258   7.5480   2.1394   C.ar      1 RES1   0.0000
    12 C5       8.1943   6.6810   2.0729   C.ar      1 RES1   0.0000
    13 C6       8.3024   5.4740   2.7639   C.ar      1 RES1   0.0000
    14 C7      12.1802   3.5700   2.9068   C.3       1 RES1   0.0000
    15 C8      11.1547   2.8730   2.0829   C.ar      1 RES1   0.0000
    16 C9      11.4311   2.4820   0.7840   C.ar      1 RES1   0.0000
    17 C10     10.4557   1.8700   0.0498   C.ar      1 RES1   0.0000
    18 C11      9.1938   1.5980   0.6279   C.ar      1 RES1   0.0000
    19 C12      9.0055   2.0230   1.9467   C.ar      1 RES1   0.0000
    20 C13     12.3705   3.4170   5.3418   C.3       1 RES1   0.0000
    21 C14     11.8638   2.0230   5.5178   C.ar      1 RES1   0.0000
    22 C15     12.6790   0.9520   5.8966   C.ar      1 RES1   0.0000
    23 C16     12.0941  -0.3230   6.0527   C.ar      1 RES1   0.0000
    24 C17     10.7501  -0.4420   5.8368   C.ar      1 RES1   0.0000
    25 C18      9.9689   0.6630   5.4115   C.ar      1 RES1   0.0000
    26 C19      6.7501   2.7880   4.7272   C.1       1 RES1   0.0000
    27 C20      5.2679   2.5840   4.8701   C.3       1 RES1   0.0000
    28 C21      9.2959   4.7600   7.1689   C.1       1 RES1   0.0000
    29 C22      8.9935   5.2870   8.4944   C.3       1 RES1   0.0000
    30 H1      11.5593   5.7868   5.1823   H         1 RES1   0.0000
    31 H2      12.3946   5.8616   3.8768   H         1 RES1   0.0000
    32 H3      11.1287   7.8200   2.9466   H         1 RES1   0.0000
    33 H4       9.1797   8.3810   1.6843   H         1 RES1   0.0000
    34 H5       7.4151   6.8935   1.5713   H         1 RES1   0.0000
    35 H6       7.5633   4.8688   2.7373   H         1 RES1   0.0000
    36 H7      12.5047   4.3248   2.4350   H         1 RES1   0.0000
    37 H8      12.9013   2.9699   3.0795   H         1 RES1   0.0000
    38 H9      12.2964   2.6265   0.4153   H         1 RES1   0.0000
    39 H10     10.6339   1.6269  -0.8538   H         1 RES1   0.0000
    40 H11      8.5188   1.1475   0.1495   H         1 RES1   0.0000
    41 H12      8.1602   1.8751   2.3520   H         1 RES1   0.0000
    42 H13     13.2999   3.3847   5.1391   H         1 RES1   0.0000
    43 H14     12.2243   3.9083   6.1291   H         1 RES1   0.0000
    44 H15     13.6084   1.0693   6.0361   H         1 RES1   0.0000
    45 H16     12.6169  -1.0778   6.3018   H         1 RES1   0.0000
    46 H17     10.3255  -1.2750   5.9796   H         1 RES1   0.0000
    47 H18      9.0415   0.5474   5.2321   H         1 RES1   0.0000
    48 B1      13.8207   2.2270  25.4332   B         2 RES2  -1.0000
    49 C32     14.4937   2.8883  24.0812   C.ar      2 RES2   0.0000
    50 C33     14.4536   2.2525  22.8387   C.ar      2 RES2   0.0000
    51 C34     15.1467   2.7897  21.7558   C.ar      2 RES2   0.0000
    52 C35     15.8818   3.9644  21.9119   C.ar      2 RES2   0.0000
    53 C36     15.9239   4.6019  23.1543   C.ar      2 RES2   0.0000
    54 C37     15.2288   4.0630  24.2373   C.ar      2 RES2   0.0000
    55 H29     13.9509   1.4518  22.7324   H         2 RES2   0.0000
    56 H30     15.1186   2.3562  20.9120   H         2 RES2   0.0000
    57 H31     16.3545   4.3316  21.1744   H         2 RES2   0.0000
    58 H32     16.4246   5.4009  23.2606   H         2 RES2   0.0000
    59 H33     15.2569   4.4965  25.0811   H         2 RES2   0.0000
    60 C38     15.0746   1.6830  26.3734   C.ar      2 RES2   0.0000
    61 C39     16.0881   0.9741  25.7289   C.ar      2 RES2   0.0000
    62 C40     17.1397   0.4318  26.4664   C.ar      2 RES2   0.0000
    63 C41     17.1777   0.6001  27.8516   C.ar      2 RES2   0.0000
    64 C42     16.1642   1.3107  28.4961   C.ar      2 RES2   0.0000
    65 C43     15.1126   1.8513  27.7553   C.ar      2 RES2   0.0000
    66 H34     16.0621   0.8670  24.7854   H         2 RES2   0.0000
    67 H35     17.8287  -0.0510  26.0279   H         2 RES2   0.0000
    68 H36     17.8928   0.2312  28.3566   H         2 RES2   0.0000
    69 H37     16.1882   1.4280  29.4396   H         2 RES2   0.0000
    70 H38     14.4216   2.3358  28.1938   H         2 RES2   0.0000
    71 C44     12.8813   0.8687  25.0479   C.ar      2 RES2   0.0000
    72 C45     11.7796   1.0948  24.2207   C.ar      2 RES2   0.0000
    73 C46     10.9424   0.0357  23.8686   C.ar      2 RES2   0.0000
    74 C47     11.2088  -1.2495  24.3436   C.ar      2 RES2   0.0000
    75 C48     12.3104  -1.4756  25.1675   C.ar      2 RES2   0.0000
    76 C49     13.1457  -0.4148  25.5196   C.ar      2 RES2   0.0000
    77 H39     11.5974   1.9703  23.8985   H         2 RES2   0.0000
    78 H40     10.1933   0.1870  23.3072   H         2 RES2   0.0000
    79 H41     10.6379  -1.9720  24.1044   H         2 RES2   0.0000
    80 H52     12.4907  -2.3494  25.4930   H         2 RES2   0.0000
    81 H53     13.8968  -0.5610  26.0843   H         2 RES2   0.0000
    82 C65     12.7912   3.2317  26.2837   C.ar      2 RES2   0.0000
    83 C66     12.1442   2.6809  27.3899   C.ar      2 RES2   0.0000
    84 C67     11.3210   3.4782  28.1872   C.ar      2 RES2   0.0000
    85 C68     11.1467   4.8280  27.8749   C.ar      2 RES2   0.0000
    86 C69     11.7957   5.3788  26.7720   C.ar      2 RES2   0.0000
    87 C70     12.6169   4.5815  25.9747   C.ar      2 RES2   0.0000
    88 H54     12.2624   1.7629  27.5992   H         2 RES2   0.0000
    89 H55     10.8803   3.1110  28.9379   H         2 RES2   0.0000
    90 H56     10.5879   5.3720  28.4197   H         2 RES2   0.0000
    91 H57     11.6775   6.2968  26.5594   H         2 RES2   0.0000
    92 H58     13.0596   4.9640  25.2206   H         2 RES2   0.0000
    93 B2      15.4431  -0.1700   0.6644   B         3 RES3  -1.0000
    94 C23     12.1141  -2.5041   2.4583   C.ar      3 RES3   0.0000
    95 C24     13.1437  -3.1892   1.8138   C.ar      3 RES3   0.0000
    96 C25     14.1893  -2.4803   1.2258   C.ar      3 RES3   0.0000
    97 H19     13.1857   0.5474   1.9633   H         3 RES3   0.0000
    98 H20     11.4271  -0.6460   2.9533   H         3 RES3   0.0000
    99 H21     11.4011  -2.9869   2.8602   H         3 RES3   0.0000
   100 H22     13.1337  -4.1378   1.7773   H         3 RES3   0.0000
   101 H23     14.8923  -2.9410   0.7840   H         3 RES3   0.0000
   102 C26     16.3245   0.5746   1.9135   C.ar      3 RES3   0.0000
   103 C27     15.9459   0.3995   3.2456   C.ar      3 RES3   0.0000
   104 C28     16.7030   0.9724   4.2654   C.ar      3 RES3   0.0000
   105 C29     17.8387   1.7204   3.9565   C.ar      3 RES3   0.0000
   106 C30     18.2193   1.8938   2.6244   C.ar      3 RES3   0.0000
   107 C31     17.4622   1.3226   1.6045   C.ar      3 RES3   0.0000
   108 H24     15.1707  -0.1088   3.4549   H         3 RES3   0.0000
   109 H25     16.4446   0.8534   5.1724   H         3 RES3   0.0000
   110 H26     18.3555   2.1097   4.6541   H         3 RES3   0.0000
   111 H27     18.9924   2.4021   2.4151   H         3 RES3   0.0000
   112 H28     17.7185   1.4450   0.6976   H         3 RES3   0.0000
   113 C50     14.7160   0.9945  -0.3388   C.ar      3 RES3   0.0000
   114 C51     13.8147   0.5355  -1.2956   C.ar      3 RES3   0.0000
   115 C52     13.2599   1.4263  -2.2158   C.ar      3 RES3   0.0000
   116 C53     13.6084   2.7761  -2.1792   C.ar      3 RES3   0.0000
   117 C54     14.5097   3.2351  -1.2192   C.ar      3 RES3   0.0000
   118 C55     15.0646   2.3460  -0.2990   C.ar      3 RES3   0.0000
   119 H42     13.5763  -0.3842  -1.3222   H         3 RES3   0.0000
   120 H43     12.6469   1.1050  -2.8702   H         3 RES3   0.0000
   121 H44     13.2318   3.3813  -2.8038   H         3 RES3   0.0000
   122 H45     14.7481   4.1548  -1.1926   H         3 RES3   0.0000
   123 H46     15.6795   2.6520   0.3555   H         3 RES3   0.0000
   124 C56     16.4907  -1.1169  -0.2226   C.ar      3 RES3   0.0000
   125 C57     16.4607  -1.2053  -1.6145   C.ar      3 RES3   0.0000
   126 C58     17.3580  -2.0417  -2.2822   C.ar      3 RES3   0.0000
   127 C59     18.2854  -2.7897  -1.5547   C.ar      3 RES3   0.0000
   128 C60     18.3154  -2.7013  -0.1628   C.ar      3 RES3   0.0000
   129 C61     17.4181  -1.8649   0.5016   C.ar      3 RES3   0.0000
   130 H47     15.8297  -0.6970  -2.1095   H         3 RES3   0.0000
   131 H48     17.3380  -2.1080  -3.2290   H         3 RES3   0.0000
   132 H49     18.8963  -3.3575  -2.0065   H         3 RES3   0.0000
   133 H50     18.9464  -3.2096   0.3322   H         3 RES3   0.0000
   134 H51     17.4401  -1.8020   1.4517   H         3 RES3   0.0000
   135 C62     14.2053  -1.0863   1.2790   C.ar      3 RES3   0.0000
   136 C63     13.1757  -0.4012   1.9234   C.ar      3 RES3   0.0000
   137 C64     12.1302  -1.1101   2.5148   C.ar      3 RES3   0.0000
@<TRIPOS>BOND
     1     1     2    1
     2     2     8    1
     3     3     1    1
     4     4     1    1
     5     5     1    1
     6     6     1    1
     7     7     1    1
     8     8     9    1
     9     9     3   ar
    10    10     9   ar
    11    11    10   ar
    12    12    11   ar
    13    13     3   ar
    14    14     2    1
    15    15     4   ar
    16    16    15   ar
    17    17    16   ar
    18    18    17   ar
    19    19     4   ar
    20    20     2    1
    21    21     5   ar
    22    22    21   ar
    23    23    22   ar
    24    24    23   ar
    25    25     5   ar
    26    26     6    3
    27    27    26    1
    28    28     7    3
    29    29    28    1
    30    30     8    1
    31    31     8    1
    32    32    10    1
    33    33    11    1
    34    34    12    1
    35    35    13    1
    36    36    14    1
    37    37    14    1
    38    38    16    1
    39    39    17    1
    40    40    18    1
    41    41    19    1
    42    42    20    1
    43    43    20    1
    44    44    22    1
    45    45    23    1
    46    46    24    1
    47    47    25    1
    48    12    13   ar
    49    14    15    1
    50    18    19   ar
    51    20    21    1
    52    24    25   ar
    53    48    49    1
    54    49    50   ar
    55    50    51   ar
    56    51    52   ar
    57    52    53   ar
    58    53    54   ar
    59    54    49   ar
    60    55    50    1
    61    56    51    1
    62    57    52    1
    63    58    53    1
    64    59    54    1
    65    60    48    1
    66    61    60   ar
    67    62    61   ar
    68    63    62   ar
    69    64    63   ar
    70    65    60   ar
    71    66    61    1
    72    67    62    1
    73    68    63    1
    74    69    64    1
    75    70    65    1
    76    71    48    1
    77    72    71   ar
    78    73    72   ar
    79    74    73   ar
    80    75    74   ar
    81    76    71   ar
    82    77    72    1
    83    78    73    1
    84    79    74    1
    85    80    75    1
    86    81    76    1
    87    82    48    1
    88    83    82   ar
    89    84    83   ar
    90    85    84   ar
    91    86    85   ar
    92    87    82   ar
    93    88    83    1
    94    89    84    1
    95    90    85    1
    96    91    86    1
    97    92    87    1
    98    64    65   ar
    99    75    76   ar
   100    86    87   ar
   101    93   102    1
   102    94    95   ar
   103    95    96   ar
   104    96   101    1
   105    97   136    1
   106    98   137    1
   107    99    94    1
   108   100    95    1
   109   102   103   ar
   110   103   104   ar
   111   104   105   ar
   112   105   106   ar
   113   106   107   ar
   114   107   102   ar
   115   108   103    1
   116   109   104    1
   117   110   105    1
   118   111   106    1
   119   112   107    1
   120   113    93    1
   121   114   113   ar
   122   115   114   ar
   123   116   115   ar
   124   117   116   ar
   125   118   113   ar
   126   119   114    1
   127   120   115    1
   128   121   116    1
   129   122   117    1
   130   123   118    1
   131   124    93    1
   132   125   124   ar
   133   126   125   ar
   134   127   126   ar
   135   128   127   ar
   136   129   124   ar
   137   130   125    1
   138   131   126    1
   139   132   127    1
   140   133   128    1
   141   134   129    1
   142   135    93    1
   143   136   135   ar
   144   137    94   ar
   145    96   135   ar
   146   117   118   ar
   147   128   129   ar
   148   136   137   ar
@<TRIPOS>SUBSTRUCTURE
     1 RES1        1 GROUP             0 ****  ****    0  
     2 RES2       48 GROUP             0 ****  ****    0  
     3 RES3       93 GROUP             0 ****  ****    0  
@<TRIPOS>CRYSIN
   20.0300   17.0000   33.2200   90.0000   90.0000   90.0000    61     1
