@<TRIPOS>MOLECULE
RUFYUM
   137   148     3     0     0
SMALL
USER_CHARGES
****
Generated from the CSD

@<TRIPOS>ATOM
     1 Fe1      3.8601  16.1606  21.3054   Fe        1 RES1   2.0000
     2 N1       3.5477  17.4004  19.5754   N.3       1 RES1   0.0000
     3 N2       5.8312  17.2270  21.0799   N.ar      1 RES1   0.0000
     4 N3       1.7695  15.6780  20.6732   N.ar      1 RES1   0.0000
     5 N4       3.2252  17.9791  22.3345   N.ar      1 RES1   0.0000
     6 N5       4.3626  14.6821  22.8172   N.1       1 RES1   0.0000
     7 N6       4.6362  14.6305  19.9675   N.1       1 RES1   0.0000
     8 C1       4.8377  17.5841  18.8967   C.3       1 RES1   0.0000
     9 C2       5.9608  17.7902  19.8940   C.ar      1 RES1   0.0000
    10 C3       7.0694  18.5629  19.4701   C.ar      1 RES1   0.0000
    11 C4       8.1493  18.6316  20.3669   C.ar      1 RES1   0.0000
    12 C5       8.0197  18.0993  21.6288   C.ar      1 RES1   0.0000
    13 C6       6.8391  17.4124  22.0061   C.ar      1 RES1   0.0000
    14 C7       6.6375  16.7942  23.4445   C.3       1 RES1   0.0000
    15 C8       2.5916  16.7427  18.7252   C.3       1 RES1   0.0000
    16 C9       1.4398  16.1417  19.4823   C.ar      1 RES1   0.0000
    17 C10      0.1728  16.1417  19.0143   C.ar      1 RES1   0.0000
    18 C11     -0.8351  15.5235  19.7225   C.ar      1 RES1   0.0000
    19 C12     -0.5183  14.9568  20.9231   C.ar      1 RES1   0.0000
    20 C13      0.8063  15.0427  21.4328   C.ar      1 RES1   0.0000
    21 C14      1.1374  14.4245  22.7902   C.3       1 RES1   0.0000
    22 C15      2.9804  18.7003  20.0042   C.3       1 RES1   0.0000
    23 C16      3.1532  19.0008  21.5185   C.ar      1 RES1   0.0000
    24 C17      3.1388  20.3660  21.8983   C.ar      1 RES1   0.0000
    25 C18      3.1100  20.6236  23.2656   C.ar      1 RES1   0.0000
    26 C19      3.1964  19.6104  24.1306   C.ar      1 RES1   0.0000
    27 C20      3.1676  18.2538  23.6527   C.ar      1 RES1   0.0000
    28 C21      3.1388  17.1033  24.6745   C.3       1 RES1   0.0000
    29 C22      4.7513  13.7891  23.4788   C.1       1 RES1   0.0000
    30 C23      5.2985  12.8447  24.4050   C.3       1 RES1   0.0000
    31 C24      4.9673  13.9093  19.1785   C.1       1 RES1   0.0000
    32 C25      5.3849  12.8447  18.2400   C.3       1 RES1   0.0000
    33 H1       4.7830  18.3294  18.3184   H         1 RES1   0.0000
    34 H2       5.0220  16.7977  18.3797   H         1 RES1   0.0000
    35 H3       7.0939  18.9974  18.6321   H         1 RES1   0.0000
    36 H4       8.9628  19.0437  20.1047   H         1 RES1   0.0000
    37 H5       8.7309  18.1903  22.2585   H         1 RES1   0.0000
    38 H6       3.0308  16.0610  18.2474   H         1 RES1   0.0000
    39 H7       2.2475  17.3918  18.1126   H         1 RES1   0.0000
    40 H8      -0.0187  16.5590  18.1861   H         1 RES1   0.0000
    41 H9      -1.7263  15.5012  19.3892   H         1 RES1   0.0000
    42 H10     -1.1950  14.5086  21.4230   H         1 RES1   0.0000
    43 H11      2.0532  18.6934  19.7960   H         1 RES1   0.0000
    44 H12      3.4109  19.3820  19.5044   H         1 RES1   0.0000
    45 H13      3.1402  21.0529  21.2564   H         1 RES1   0.0000
    46 H14      3.0236  21.5148  23.5792   H         1 RES1   0.0000
    47 H15      3.2827  19.7787  25.0568   H         1 RES1   0.0000
    48 B1       9.5027  12.8618  21.0162   B         2 RES2  -1.0000
    49 H16      9.2478  10.0576  20.9721   H         2 RES2   0.0000
    50 H17      7.3747   8.6495  21.0236   H         2 RES2   0.0000
    51 H18      5.2279   9.5631  21.2686   H         2 RES2   0.0000
    52 H19      4.9572  11.8830  21.4597   H         2 RES2   0.0000
    53 H20      6.8319  13.2911  21.4083   H         2 RES2   0.0000
    54 H21      9.2752  11.9483  18.4704   H         2 RES2   0.0000
    55 H22      8.8965  12.9374  16.3778   H         2 RES2   0.0000
    56 H23      8.6230  15.2590  16.2112   H         2 RES2   0.0000
    57 H24      8.7309  16.5933  18.1371   H         2 RES2   0.0000
    58 H25      9.1111  15.6042  20.2297   H         2 RES2   0.0000
    59 H26      8.4099  12.8653  23.6258   H         2 RES2   0.0000
    60 H27      8.7468  14.2682  25.4758   H         2 RES2   0.0000
    61 H28     10.1765  16.1176  25.2969   H         2 RES2   0.0000
    62 H29     11.2693  16.5641  23.2705   H         2 RES2   0.0000
    63 H30     10.9310  15.1629  21.4205   H         2 RES2   0.0000
    64 H31     11.7200  12.8120  19.1858   H         2 RES2   0.0000
    65 H32     13.7242  11.5963  19.1809   H         2 RES2   0.0000
    66 H33     14.2022  10.1160  20.9378   H         2 RES2   0.0000
    67 H34     12.6746   9.8550  22.6996   H         2 RES2   0.0000
    68 H35     10.6704  11.0725  22.7045   H         2 RES2   0.0000
    69 C26      8.2184  11.8075  21.1828   C.ar      2 RES2   0.0000
    70 C27      8.3796  10.4268  21.0677   C.ar      2 RES2   0.0000
    71 C28      7.2638   9.5906  21.0995   C.ar      2 RES2   0.0000
    72 C29      5.9881  10.1349  21.2466   C.ar      2 RES2   0.0000
    73 C30      5.8269  11.5155  21.3593   C.ar      2 RES2   0.0000
    74 C31      6.9427  12.3518  21.3299   C.ar      2 RES2   0.0000
    75 C32      9.2291  13.6826  19.5485   C.ar      2 RES2   0.0000
    76 C33      9.1643  12.8876  18.4042   C.ar      2 RES2   0.0000
    77 C34      8.9397  13.4749  17.1595   C.ar      2 RES2   0.0000
    78 C35      8.7770  14.8572  17.0590   C.ar      2 RES2   0.0000
    79 C36      8.8418  15.6506  18.2033   C.ar      2 RES2   0.0000
    80 C37      9.0679  15.0633  19.4505   C.ar      2 RES2   0.0000
    81 C38      9.6380  13.8801  22.3492   C.ar      2 RES2   0.0000
    82 C39      8.9887  13.6157  23.5547   C.ar      2 RES2   0.0000
    83 C40      9.1902  14.4520  24.6549   C.ar      2 RES2   0.0000
    84 C41     10.0412  15.5510  24.5471   C.ar      2 RES2   0.0000
    85 C42     10.6905  15.8154  23.3391   C.ar      2 RES2   0.0000
    86 C43     10.4889  14.9809  22.2414   C.ar      2 RES2   0.0000
    87 C44     11.0044  12.0565  20.9452   C.ar      2 RES2   0.0000
    88 C45     11.9129  12.2127  19.8989   C.ar      2 RES2   0.0000
    89 C46     13.1051  11.4898  19.8964   C.ar      2 RES2   0.0000
    90 C47     13.3887  10.6106  20.9427   C.ar      2 RES2   0.0000
    91 C48     12.4802  10.4526  21.9890   C.ar      2 RES2   0.0000
    92 C49     11.2866  11.1755  21.9890   C.ar      2 RES2   0.0000
    93 B2       8.8692  13.1709   8.8799   B         3 RES3  -1.0000
    94 H36      6.5669  12.8515   7.2749   H         3 RES3   0.0000
    95 H37      4.7672  11.3524   7.3632   H         3 RES3   0.0000
    96 H38      4.7110   9.6850   9.0122   H         3 RES3   0.0000
    97 H39      6.4532   9.5184  10.5706   H         3 RES3   0.0000
    98 H40      8.2529  11.0193  10.4824   H         3 RES3   0.0000
    99 H41      9.4739  13.2465  11.6169   H         3 RES3   0.0000
   100 H42      8.9138  14.7164  13.3566   H         3 RES3   0.0000
   101 H43      7.6079  16.6122  12.9131   H         3 RES3   0.0000
   102 H44      6.8621  17.0381  10.7299   H         3 RES3   0.0000
   103 H45      7.4222  15.5699   8.9902   H         3 RES3   0.0000
   104 H46      9.7978  10.5659   8.5221   H         3 RES3   0.0000
   105 H47     11.9086   9.5682   8.7476   H         3 RES3   0.0000
   106 H48     13.7199  10.8252   9.5464   H         3 RES3   0.0000
   107 H49     13.4204  13.0765  10.1197   H         3 RES3   0.0000
   108 H50     11.3111  14.0742   9.8968   H         3 RES3   0.0000
   109 H51      8.7698  12.2505   6.3144   H         3 RES3   0.0000
   110 H52      9.3025  13.1984   4.2366   H         3 RES3   0.0000
   111 H53     10.0167  15.4273   4.1141   H         3 RES3   0.0000
   112 H54     10.1981  16.7084   6.0694   H         3 RES3   0.0000
   113 H55      9.6654  15.7605   8.1472   H         3 RES3   0.0000
   114 C50      7.5791  12.0788   8.8701   C.ar      3 RES3   0.0000
   115 C51      6.5439  12.1767   7.9414   C.ar      3 RES3   0.0000
   116 C52      5.4727  11.2837   7.9953   C.ar      3 RES3   0.0000
   117 C53      5.4396  10.2946   8.9779   C.ar      3 RES3   0.0000
   118 C54      6.4791  10.1967   9.9066   C.ar      3 RES3   0.0000
   119 C55      7.5460  11.0897   9.8527   C.ar      3 RES3   0.0000
   120 C56      8.5006  14.2665  10.1393   C.ar      3 RES3   0.0000
   121 C57      8.9440  14.0141  11.4380   C.ar      3 RES3   0.0000
   122 C58      8.6100  14.8898  12.4720   C.ar      3 RES3   0.0000
   123 C59      7.8325  16.0180  12.2074   C.ar      3 RES3   0.0000
   124 C60      7.3919  16.2705  10.9087   C.ar      3 RES3   0.0000
   125 C61      7.7245  15.3947   9.8747   C.ar      3 RES3   0.0000
   126 C62     10.3536  12.4136   9.1886   C.ar      3 RES3   0.0000
   127 C63     10.5307  11.0725   8.8456   C.ar      3 RES3   0.0000
   128 C64     11.7876  10.4801   8.9779   C.ar      3 RES3   0.0000
   129 C65     12.8646  11.2288   9.4533   C.ar      3 RES3   0.0000
   130 C66     12.6861  12.5682   9.7938   C.ar      3 RES3   0.0000
   131 C67     11.4306  13.1606   9.6615   C.ar      3 RES3   0.0000
   132 C68      9.1686  13.9145   7.4269   C.ar      3 RES3   0.0000
   133 C69      9.0607  13.1520   6.2630   C.ar      3 RES3   0.0000
   134 C70      9.3760  13.7170   5.0280   C.ar      3 RES3   0.0000
   135 C71      9.8007  15.0427   4.9545   C.ar      3 RES3   0.0000
   136 C72      9.9087  15.8051   6.1184   C.ar      3 RES3   0.0000
   137 C73      9.5919  15.2419   7.3534   C.ar      3 RES3   0.0000
@<TRIPOS>BOND
     1     1     2    1
     2     2     8    1
     3     3     1    1
     4     4     1    1
     5     5     1    1
     6     6     1    1
     7     7     1    1
     8     8     9    1
     9     9     3   ar
    10    10     9   ar
    11    11    10   ar
    12    12    11   ar
    13    13     3   ar
    14    14    13    1
    15    15     2    1
    16    16     4   ar
    17    17    16   ar
    18    18    17   ar
    19    19    18   ar
    20    20     4   ar
    21    21    20    1
    22    22     2    1
    23    23     5   ar
    24    24    23   ar
    25    25    24   ar
    26    26    25   ar
    27    27     5   ar
    28    28    27    1
    29    29     6    3
    30    30    29    1
    31    31     7    3
    32    32    31    1
    33    33     8    1
    34    34     8    1
    35    35    10    1
    36    36    11    1
    37    37    12    1
    38    38    15    1
    39    39    15    1
    40    40    17    1
    41    41    18    1
    42    42    19    1
    43    43    22    1
    44    44    22    1
    45    45    24    1
    46    46    25    1
    47    47    26    1
    48    12    13   ar
    49    15    16    1
    50    19    20   ar
    51    22    23    1
    52    26    27   ar
    53    48    69    1
    54    49    70    1
    55    50    71    1
    56    51    72    1
    57    52    73    1
    58    53    74    1
    59    54    76    1
    60    55    77    1
    61    56    78    1
    62    57    79    1
    63    58    80    1
    64    59    82    1
    65    60    83    1
    66    61    84    1
    67    62    85    1
    68    63    86    1
    69    64    88    1
    70    65    89    1
    71    66    90    1
    72    67    91    1
    73    68    92    1
    74    69    70   ar
    75    70    71   ar
    76    71    72   ar
    77    72    73   ar
    78    73    74   ar
    79    74    69   ar
    80    75    48    1
    81    76    75   ar
    82    77    76   ar
    83    78    77   ar
    84    79    78   ar
    85    80    75   ar
    86    81    48    1
    87    82    81   ar
    88    83    82   ar
    89    84    83   ar
    90    85    84   ar
    91    86    81   ar
    92    87    48    1
    93    88    87   ar
    94    89    88   ar
    95    90    89   ar
    96    91    90   ar
    97    92    87   ar
    98    79    80   ar
    99    85    86   ar
   100    91    92   ar
   101    93   114    1
   102    94   115    1
   103    95   116    1
   104    96   117    1
   105    97   118    1
   106    98   119    1
   107    99   121    1
   108   100   122    1
   109   101   123    1
   110   102   124    1
   111   103   125    1
   112   104   127    1
   113   105   128    1
   114   106   129    1
   115   107   130    1
   116   108   131    1
   117   109   133    1
   118   110   134    1
   119   111   135    1
   120   112   136    1
   121   113   137    1
   122   114   115   ar
   123   115   116   ar
   124   116   117   ar
   125   117   118   ar
   126   118   119   ar
   127   119   114   ar
   128   120    93    1
   129   121   120   ar
   130   122   121   ar
   131   123   122   ar
   132   124   123   ar
   133   125   120   ar
   134   126    93    1
   135   127   126   ar
   136   128   127   ar
   137   129   128   ar
   138   130   129   ar
   139   131   126   ar
   140   132    93    1
   141   133   132   ar
   142   134   133   ar
   143   135   134   ar
   144   136   135   ar
   145   137   132   ar
   146   124   125   ar
   147   130   131   ar
   148   136   137   ar
@<TRIPOS>SUBSTRUCTURE
     1 RES1        1 GROUP             0 ****  ****    0  
     2 RES2       48 GROUP             0 ****  ****    0  
     3 RES3       93 GROUP             0 ****  ****    0  
@<TRIPOS>CRYSIN
   14.3980   17.1720   24.5030   90.0000   90.0000   90.0000    19     1
