@<TRIPOS>MOLECULE
RUKYEC
    84    88     2     0     0
SMALL
USER_CHARGES
****
Generated from the CSD

@<TRIPOS>ATOM
     1 Fe1      0.9576   2.0202  16.7018   Fe        1 RES1   0.0000
     2 S1      -0.5018  -3.3717  17.8951   S.3       1 RES1   0.0000
     3 S2       4.4182   5.3300  13.3033   S.3       1 RES1   0.0000
     4 N1      -0.9709   1.2840  17.0292   N.2       1 RES1   0.0000
     5 O1       1.8238   0.3873  16.1385   O.3       1 RES1   0.0000
     6 O2       1.0500   1.4183  18.6304   O.co2     1 RES1  -1.0000
     7 C1       2.9254   4.2582  17.0329   C.3       1 RES1   0.0000
     8 H1       3.6454   4.5577  17.6274   H         1 RES1   0.0000
     9 C2       2.9349  -0.1480  16.6372   C.ar      1 RES1   0.0000
    10 O3       0.6167   3.9054  17.3550   O.co2     1 RES1   0.0000
    11 N2       2.8875   2.7935  16.9096   N.2       1 RES1   0.0000
    12 C3      -1.9429   1.9811  14.9164   C.ar      1 RES1   0.0000
    13 C4       0.0369   0.9226  19.1751   C.2       1 RES1   0.0000
    14 O4      -0.0137   0.5921  20.3695   O.co2     1 RES1   0.0000
    15 C5       3.9712   0.6609  17.1378   C.ar      1 RES1   0.0000
    16 C6      -1.9619   1.4097  16.2342   C.2       1 RES1   0.0000
    17 H2      -2.7831   1.0998  16.5397   H         1 RES1   0.0000
    18 C7       1.5855   4.7247  17.4985   C.2       1 RES1   0.0000
    19 C8      -1.1902   0.6868  18.3709   C.3       1 RES1   0.0000
    20 H3      -1.9450   1.1412  18.7997   H         1 RES1   0.0000
    21 C9       5.1129   0.0551  17.6623   C.ar      1 RES1   0.0000
    22 H4       5.7981   0.5835  18.0065   H         1 RES1   0.0000
    23 C10     -0.8760   3.0482  13.0576   C.ar      1 RES1   0.0000
    24 H5      -0.1086   3.3873  12.6564   H         1 RES1   0.0000
    25 O5       1.4432   5.8779  17.8887   O.co2     1 RES1   0.0000
    26 C11     -0.7791   2.4837  14.3349   C.ar      1 RES1   0.0000
    27 C12      4.2094  -2.0861  17.1360   C.ar      1 RES1   0.0000
    28 H6       4.2980  -3.0121  17.1212   H         1 RES1   0.0000
    29 C13      5.2330  -1.3167  17.6770   C.ar      1 RES1   0.0000
    30 H7       5.9857  -1.7229  18.0414   H         1 RES1   0.0000
    31 C14     -0.3879  -1.6145  17.7267   C.3       1 RES1   0.0000
    32 H8       0.4354  -1.3236  18.1500   H         1 RES1   0.0000
    33 H9      -0.3173  -1.4062  16.7826   H         1 RES1   0.0000
    34 C15      3.9058   2.1067  17.1967   C.2       1 RES1   0.0000
    35 H10      4.6701   2.5611  17.4672   H         1 RES1   0.0000
    36 C16     -3.1405   2.0499  14.1950   C.ar      1 RES1   0.0000
    37 H11     -3.9216   1.7212  14.5778   H         1 RES1   0.0000
    38 C17      3.0972  -1.5250  16.6354   C.ar      1 RES1   0.0000
    39 H12      2.4278  -2.0654  16.2839   H         1 RES1   0.0000
    40 C18      3.0909   4.8607  15.5109   C.3       1 RES1   0.0000
    41 H13      2.4953   4.3787  14.9164   H         1 RES1   0.0000
    42 H14      2.8221   5.7918  15.5109   H         1 RES1   0.0000
    43 O6       0.4090   2.4355  14.9183   O.3       1 RES1   0.0000
    44 C19      4.2853   4.7729  15.0618   C.3       1 RES1   0.0000
    45 H15      4.5837   3.8520  15.1281   H         1 RES1   0.0000
    46 H16      4.8725   5.3151  15.6121   H         1 RES1   0.0000
    47 C20     -1.4959  -0.8227  18.2899   C.3       1 RES1   0.0000
    48 H17     -1.6952  -1.1515  19.1806   H         1 RES1   0.0000
    49 H18     -2.2866  -0.9553  17.7433   H         1 RES1   0.0000
    50 C21     -3.1837   2.5835  12.9564   C.ar      1 RES1   0.0000
    51 H19     -3.9880   2.5870  12.4908   H         1 RES1   0.0000
    52 C22     -2.0726   3.1171  12.3767   C.ar      1 RES1   0.0000
    53 H20     -2.1200   3.5199  11.5393   H         1 RES1   0.0000
    54 C23      3.8921   7.0242  13.4386   C.3       1 RES1   0.0000
    55 H21      3.9406   7.4442  12.5773   H         1 RES1   0.0000
    56 H22      4.4645   7.4872  14.0551   H         1 RES1   0.0000
    57 H23      2.9876   7.0535  13.7588   H         1 RES1   0.0000
    58 C24     -1.9018  -3.7419  17.0697   C.3       1 RES1   0.0000
    59 H24     -2.0631  -4.6868  17.1212   H         1 RES1   0.0000
    60 H25     -1.8101  -3.4820  16.1514   H         1 RES1   0.0000
    61 H26     -2.6397  -3.2703  17.4654   H         1 RES1   0.0000
    62 N3       2.6850   0.8417   2.9741   N.4       2 RES2   1.0000
    63 H27      2.0462   0.8279   2.3263   H         2 RES2   0.0000
    64 C25      2.8432   3.2341   2.5416   C.3       2 RES2   0.0000
    65 H28      2.8063   4.1033   2.9465   H         2 RES2   0.0000
    66 H29      2.1632   3.1636   1.8680   H         2 RES2   0.0000
    67 H30      3.7055   3.1033   2.1422   H         2 RES2   0.0000
    68 C26      2.6039   2.1343   3.6422   C.3       2 RES2   0.0000
    69 H31      3.2807   2.1980   4.3360   H         2 RES2   0.0000
    70 H32      1.7321   2.2496   4.0507   H         2 RES2   0.0000
    71 C27      3.9606   0.5904   2.3355   C.3       2 RES2   0.0000
    72 H33      4.0924   1.2410   1.6269   H         2 RES2   0.0000
    73 H34      3.9438  -0.2909   1.9306   H         2 RES2   0.0000
    74 C28      2.3414  -0.1704   3.9403   C.3       2 RES2   0.0000
    75 H35      1.4854   0.0482   4.3415   H         2 RES2   0.0000
    76 H36      3.0076  -0.1790   4.6452   H         2 RES2   0.0000
    77 C29      5.1656   0.6713   3.3348   C.3       2 RES2   0.0000
    78 H37      5.9847   0.5095   2.8618   H         2 RES2   0.0000
    79 H38      5.0559   0.0103   4.0213   H         2 RES2   0.0000
    80 H39      5.1940   1.5456   3.7323   H         2 RES2   0.0000
    81 C30      2.2665  -1.5267   3.3238   C.3       2 RES2   0.0000
    82 H40      2.0652  -2.1756   4.0029   H         2 RES2   0.0000
    83 H41      3.1036  -1.7384   2.9115   H         2 RES2   0.0000
    84 H42      1.5697  -1.5353   2.6612   H         2 RES2   0.0000
@<TRIPOS>BOND
     1     1     4    1
     2     2    31    1
     3     3    44    1
     4     4    16    2
     5     5     1    1
     6     6     1    1
     7     7     8    1
     8     9     5    1
     9    10     1    1
    10    11     1    1
    11    12    16    1
    12    13     6    1
    13    14    13    2
    14    15     9   ar
    15    16    17    1
    16    18     7    1
    17    19     4    1
    18    20    19    1
    19    21    15   ar
    20    22    21    1
    21    23    24    1
    22    25    18    2
    23    26    12   ar
    24    27    28    1
    25    29    21   ar
    26    30    29    1
    27    31    32    1
    28    33    31    1
    29    34    11    2
    30    35    34    1
    31    36    12   ar
    32    37    36    1
    33    38     9   ar
    34    39    38    1
    35    40     7    1
    36    41    40    1
    37    42    40    1
    38    43     1    1
    39    44    40    1
    40    45    44    1
    41    46    44    1
    42    47    19    1
    43    48    47    1
    44    49    47    1
    45    50    36   ar
    46    51    50    1
    47    52    23   ar
    48    53    52    1
    49    54     3    1
    50    55    54    1
    51    56    54    1
    52    57    54    1
    53    58     2    1
    54    59    58    1
    55    60    58    1
    56    61    58    1
    57     7    11    1
    58    10    18    1
    59    13    19    1
    60    15    34    1
    61    23    26   ar
    62    26    43    1
    63    27    29   ar
    64    27    38   ar
    65    31    47    1
    66    50    52   ar
    67    62    63    1
    68    64    65    1
    69    66    64    1
    70    67    64    1
    71    68    62    1
    72    69    68    1
    73    70    68    1
    74    71    62    1
    75    72    71    1
    76    73    71    1
    77    74    62    1
    78    75    74    1
    79    76    74    1
    80    77    71    1
    81    78    77    1
    82    79    77    1
    83    80    77    1
    84    81    74    1
    85    82    81    1
    86    83    81    1
    87    84    81    1
    88    64    68    1
@<TRIPOS>SUBSTRUCTURE
     1 RES1        1 GROUP             0 ****  ****    0  
     2 RES2       62 GROUP             0 ****  ****    0  
@<TRIPOS>CRYSIN
   10.5420   17.2120   18.4040   90.0000   90.0000   90.0000    19     1
