@<TRIPOS>MOLECULE
RUKYIG
    87    92     3     0     0
SMALL
USER_CHARGES
****
Generated from the CSD

@<TRIPOS>ATOM
     1 Fe1      2.6466  11.0070  10.5367   Fe        1 RES1   0.0000
     2 O1       1.4197  12.1844   9.6650   O.3       1 RES1  -1.0000
     3 O2       4.0506  10.2623  11.8975   O.co2     1 RES1   0.0000
     4 O3       3.8787  10.8414   9.0813   O.3       1 RES1   0.0000
     5 O4       1.2921  10.5548  12.0052   O.co2     1 RES1   0.0000
     6 N1       3.4868  12.7311  11.3847   N.2       1 RES1   0.0000
     7 O6      -0.2501   9.1505  12.7444   O.co2     1 RES1   0.0000
     8 N2       1.8753   9.1516   9.9023   N.2       1 RES1   0.0000
     9 O7       5.6500  10.7247  13.3458   O.co2     1 RES1   0.0000
    10 C1       2.4610   8.3148   9.1454   C.2       1 RES1   0.0000
    11 H1       2.0797   7.4711   9.0636   H         1 RES1   0.0000
    12 C2       3.6720   8.5691   8.4021   C.ar      1 RES1   0.0000
    13 C3       4.7731  12.5266  12.0297   C.3       1 RES1   0.0000
    14 H2       4.8820  13.1403  12.7853   H         1 RES1   0.0000
    15 C4       6.1369  14.0846  10.4805   C.ar      1 RES1   0.0000
    16 C5       5.4105  14.5145   9.3936   C.ar      1 RES1   0.0000
    17 H3       4.7473  13.9678   9.0377   H         1 RES1   0.0000
    18 C6       0.9678  13.3715  10.0196   C.ar      1 RES1   0.0000
    19 C7       1.6510  14.2152  10.8978   C.ar      1 RES1   0.0000
    20 C8      -0.7214   8.3345   8.4512   C.ar      1 RES1   0.0000
    21 C9       5.4803   9.9526   7.6180   C.ar      1 RES1   0.0000
    22 H5       5.9134  10.7755   7.5962   H         1 RES1   0.0000
    23 C10      4.3364   9.8047   8.3940   C.ar      1 RES1   0.0000
    24 C11     -0.5995   9.2314   9.6718   C.3       1 RES1   0.0000
    25 C12      5.9582  12.6733  11.0315   C.3       1 RES1   0.0000
    26 C13      4.2113   7.5393   7.6152   C.ar      1 RES1   0.0000
    27 H6       3.7842   6.7129   7.6016   H         1 RES1   0.0000
    28 C14      0.6185   8.8049  10.5473   C.3       1 RES1   0.0000
    29 H7       0.5860   7.8386  10.7069   H         1 RES1   0.0000
    30 C15     -0.2295  13.8187   9.4577   C.ar      1 RES1   0.0000
    31 H8      -0.6835  13.2767   8.8549   H         1 RES1   0.0000
    32 C16      0.5352   9.5458  11.8770   C.2       1 RES1   0.0000
    33 C17      7.1057  14.9052  10.9919   C.ar      1 RES1   0.0000
    34 H9       7.6043  14.6336  11.7284   H         1 RES1   0.0000
    35 C18      4.8293  11.0460  12.5152   C.2       1 RES1   0.0000
    36 C19      5.9768   8.9193   6.8925   C.ar      1 RES1   0.0000
    37 H10      6.7601   9.0360   6.4056   H         1 RES1   0.0000
    38 C20      2.8918  13.8650  11.5006   C.2       1 RES1   0.0000
    39 H11      3.3067  14.5122  12.0243   H         1 RES1   0.0000
    40 C21      7.3410  16.1361  10.4164   C.ar      1 RES1   0.0000
    41 H12      7.9981  16.6944  10.7642   H         1 RES1   0.0000
    42 C22      5.6533  15.7420   8.8249   C.ar      1 RES1   0.0000
    43 H13      5.1532  16.0171   8.0898   H         1 RES1   0.0000
    44 C23     -0.7438  15.0358   9.7795   C.ar      1 RES1   0.0000
    45 H14     -1.5432  15.3097   9.3922   H         1 RES1   0.0000
    46 C24      5.3431   7.7127   6.8706   C.ar      1 RES1   0.0000
    47 H15      5.6772   7.0146   6.3551   H         1 RES1   0.0000
    48 C25     -1.4217   7.1556   8.5440   C.ar      1 RES1   0.0000
    49 H16     -1.8628   6.9464   9.3363   H         1 RES1   0.0000
    50 C26     -0.1091  15.8645  10.6619   C.ar      1 RES1   0.0000
    51 H17     -0.4770  16.6898  10.8815   H         1 RES1   0.0000
    52 C27     -0.1372   8.6512   7.2525   C.ar      1 RES1   0.0000
    53 H18      0.3099   9.4625   7.1570   H         1 RES1   0.0000
    54 C28      6.6000  16.5418   9.3172   C.ar      1 RES1   0.0000
    55 H19      6.7617  17.3694   8.9258   H         1 RES1   0.0000
    56 C29      1.0769  15.4634  11.2169   C.ar      1 RES1   0.0000
    57 H20      1.5115  16.0252  11.8170   H         1 RES1   0.0000
    58 C30     -1.4843   6.2621   7.4639   C.ar      1 RES1   0.0000
    59 H21     -1.9519   5.4623   7.5430   H         1 RES1   0.0000
    60 C33     -0.8577   6.5719   6.3060   C.ar      1 RES1   0.0000
    61 H28     -0.8653   5.9755   5.5928   H         1 RES1   0.0000
    62 C34     -0.2037   7.7866   6.1915   C.ar      1 RES1   0.0000
    63 H29      0.1963   8.0189   5.3841   H         1 RES1   0.0000
    64 O5      -2.0007   6.9614  12.1443   O.3       2 RES2   0.0000
    65 N3       5.5984   7.8386  12.8085   N.4       3 RES3   1.0000
    66 H4       5.2003   8.6569  12.7975   H         3 RES3   0.0000
    67 C31      3.2823   6.9937  12.6189   C.3       3 RES3   0.0000
    68 H22      2.7359   6.4124  12.0857   H         3 RES3   0.0000
    69 H23      2.9199   7.8826  12.5984   H         3 RES3   0.0000
    70 H24      3.2956   6.6759  13.5258   H         3 RES3   0.0000
    71 C32      6.9171   8.6026  10.8337   C.3       3 RES3   0.0000
    72 H25      7.8041   8.6743  10.4723   H         3 RES3   0.0000
    73 H26      6.5197   9.4752  10.8815   H         3 RES3   0.0000
    74 H27      6.3847   8.0397  10.2664   H         3 RES3   0.0000
    75 C35      4.7591   7.0088  12.0420   C.3       3 RES3   0.0000
    76 H30      5.1131   6.1061  12.0407   H         3 RES3   0.0000
    77 H31      4.7425   7.3266  11.1256   H         3 RES3   0.0000
    78 C36      5.8591   7.5566  14.2268   C.3       3 RES3   0.0000
    79 H32      6.4036   8.2744  14.5868   H         3 RES3   0.0000
    80 H33      5.0139   7.5682  14.7014   H         3 RES3   0.0000
    81 C37      6.9794   8.0455  12.1211   C.3       3 RES3   0.0000
    82 H34      7.5208   8.6234  12.6816   H         3 RES3   0.0000
    83 H35      7.4289   7.1879  12.0652   H         3 RES3   0.0000
    84 C38      6.5275   6.2887  14.5063   C.3       3 RES3   0.0000
    85 H36      6.6472   6.1928  15.4542   H         3 RES3   0.0000
    86 H37      7.3829   6.2748  14.0727   H         3 RES3   0.0000
    87 H38      5.9898   5.5652  14.1777   H         3 RES3   0.0000
@<TRIPOS>BOND
     1     1     2    1
     2     2    18    1
     3     3     1    1
     4     4     1    1
     5     5     1    1
     6     6     1    1
     7     7    32    2
     8     8     1    1
     9     9    35    2
    10    10     8    2
    11    11    10    1
    12    12    10    1
    13    13     6    1
    14    14    13    1
    15    15    16   ar
    16    16    17    1
    17    18    19   ar
    18    19    38    1
    19    20    24    1
    20    21    22    1
    21    23     4    1
    22    24    28    1
    23    25    13    1
    24    26    12   ar
    25    27    26    1
    26    28     8    1
    27    29    28    1
    28    30    18   ar
    29    31    30    1
    30    32     5    1
    31    33    15   ar
    32    34    33    1
    33    35     3    1
    34    36    21   ar
    35    37    36    1
    36    38     6    2
    37    39    38    1
    38    40    33   ar
    39    41    40    1
    40    42    16   ar
    41    43    42    1
    42    44    30   ar
    43    45    44    1
    44    46    26   ar
    45    47    46    1
    46    48    20   ar
    47    49    48    1
    48    50    44   ar
    49    51    50    1
    50    52    20   ar
    51    53    52    1
    52    54    40   ar
    53    55    54    1
    54    56    19   ar
    55    57    56    1
    56    58    48   ar
    57    59    58    1
    58    60    58   ar
    59    61    60    1
    60    62    52   ar
    61    63    62    1
    62    12    23   ar
    63    13    35    1
    64    15    25    1
    65    21    23   ar
    66    28    32    1
    67    36    46   ar
    68    42    54   ar
    69    50    56   ar
    70    60    62   ar
    71    65    66    1
    72    67    68    1
    73    69    67    1
    74    70    67    1
    75    71    72    1
    76    73    71    1
    77    74    71    1
    78    75    65    1
    79    76    75    1
    80    77    75    1
    81    78    65    1
    82    79    78    1
    83    80    78    1
    84    81    65    1
    85    82    81    1
    86    83    81    1
    87    84    78    1
    88    85    84    1
    89    86    84    1
    90    87    84    1
    91    67    75    1
    92    71    81    1
@<TRIPOS>SUBSTRUCTURE
     1 RES1        1 GROUP             0 ****  ****    0  
     2 RES2       64 GROUP             0 ****  ****    0  
     3 RES3       65 GROUP             0 ****  ****    0  
@<TRIPOS>CRYSIN
   11.8670   11.5580   14.1280   90.0000  105.1400   90.0000     4     1
