@<TRIPOS>MOLECULE
RULJAM
    77    81     4     0     0
SMALL
USER_CHARGES
****
Generated from the CSD

@<TRIPOS>ATOM
     1 Fe1      5.8193   9.1343  12.2800   Fe        1 RES1   3.0000
     2 N1       5.6443   8.1533   9.4990   N.pl3     1 RES1   0.0000
     3 N2       6.1396  10.2298   9.5380   N.pl3     1 RES1   0.0000
     4 N3       6.9331  11.7055  11.2969   N.pl3     1 RES1   0.0000
     5 N4       7.2778  11.4469  13.3893   N.pl3     1 RES1   0.0000
     6 N5       6.4934   9.8518  15.0625   N.pl3     1 RES1   0.0000
     7 N6       5.1203   8.2072  15.0132   N.pl3     1 RES1   0.0000
     8 N7       4.3239   6.7550  13.2331   N.pl3     1 RES1   0.0000
     9 N8       4.8184   6.5914  11.1602   N.pl3     1 RES1   0.0000
    10 N9       7.5577   8.3108  12.3373   N.1       1 RES1   0.0000
    11 N10      4.0685   9.9408  12.2406   N.1       1 RES1   0.0000
    12 C1       5.8796   9.1848  10.3402   C.3       1 RES1   0.0000
    13 C2       5.7696   8.5497   8.1761   C.2       1 RES1   0.0000
    14 C3       6.0742   9.8564   8.1973   C.2       1 RES1   0.0000
    15 C4       6.3728  11.6077   9.9513   C.3       1 RES1   0.0000
    16 C5       6.6816  10.8697  12.3236   C.3       1 RES1   0.0000
    17 C6       7.6968  12.7915  11.7053   C.2       1 RES1   0.0000
    18 C7       7.9128  12.6333  13.0249   C.2       1 RES1   0.0000
    19 C8       7.5362  10.7965  14.6731   C.3       1 RES1   0.0000
    20 C9       5.7847   9.0747  14.2143   C.3       1 RES1   0.0000
    21 C10      6.2799   9.4686  16.3848   C.2       1 RES1   0.0000
    22 C11      5.4071   8.4507  16.3458   C.2       1 RES1   0.0000
    23 C12      4.0829   7.2702  14.5787   C.3       1 RES1   0.0000
    24 C13      4.9722   7.3838  12.2374   C.3       1 RES1   0.0000
    25 C14      3.7563   5.5663  12.7727   C.2       1 RES1   0.0000
    26 C15      4.0688   5.4702  11.4726   C.2       1 RES1   0.0000
    27 C16      5.5549   6.7523   9.9090   C.3       1 RES1   0.0000
    28 C17      8.5548   7.7678  12.3903   C.1       1 RES1   0.0000
    29 C18      9.8372   7.0718  12.4603   C.3       1 RES1   0.0000
    30 C19      3.0172  10.3847  12.2032   C.1       1 RES1   0.0000
    31 C20      1.6647  10.9404  12.1576   C.3       1 RES1   0.0000
    32 H1       5.6607   8.0044   7.4057   H         1 RES1   0.0000
    33 H2       6.2186  10.4175   7.4441   H         1 RES1   0.0000
    34 H3       5.5166  12.1038   9.9202   H         1 RES1   0.0000
    35 H4       6.9940  12.0363   9.3097   H         1 RES1   0.0000
    36 H5       8.0060  13.5054  11.1612   H         1 RES1   0.0000
    37 H6       8.4006  13.2150  13.5950   H         1 RES1   0.0000
    38 H7       8.4012  10.3174  14.6217   H         1 RES1   0.0000
    39 H8       7.6176  11.4915  15.3734   H         1 RES1   0.0000
    40 H9       6.6740   9.8512  17.1590   H         1 RES1   0.0000
    41 H10      5.0516   7.9848  17.0936   H         1 RES1   0.0000
    42 H11      4.0451   6.5110  15.2136   H         1 RES1   0.0000
    43 H12      3.2049   7.7263  14.5986   H         1 RES1   0.0000
    44 H13      3.2468   4.9462  13.2818   H         1 RES1   0.0000
    45 H14      3.8242   4.7682  10.8815   H         1 RES1   0.0000
    46 H15      5.1030   6.2336   9.1963   H         1 RES1   0.0000
    47 H16      6.4681   6.3863  10.0182   H         1 RES1   0.0000
    48 H17      9.9779   6.5621  11.6352   H         1 RES1   0.0000
    49 H18      9.8355   6.4599  13.2260   H         1 RES1   0.0000
    50 H19     10.5592   7.7261  12.5670   H         1 RES1   0.0000
    51 H20      1.2665  10.7602  11.2803   H         1 RES1   0.0000
    52 H21      1.7035  11.9082  12.3062   H         1 RES1   0.0000
    53 H22      1.1170  10.5244  12.8561   H         1 RES1   0.0000
    54 S1      12.7812   3.6317   7.6231   S.o2      2 RES2   0.0000
    55 F1      10.3244   2.7603   7.7206   F         2 RES2   0.0000
    56 F2      10.6662   4.2112   6.1813   F         2 RES2   0.0000
    57 F3      10.5313   4.8442   8.2184   F         2 RES2   0.0000
    58 O1      13.0205   2.4928   6.7915   O.2       2 RES2   0.0000
    59 O2      12.9076   3.3758   9.0271   O.3       2 RES2  -1.0000
    60 O3      13.3543   4.8613   7.1836   O.2       2 RES2   0.0000
    61 C21     10.9764   3.8890   7.4439   C.3       2 RES2   0.0000
    62 S2       7.3168   3.8909  12.2177   S.o2      3 RES3   0.0000
    63 F4       9.1110   2.1496  11.5637   F         3 RES3   0.0000
    64 F5       9.5100   4.0884  10.8852   F         3 RES3   0.0000
    65 F6       9.8151   3.7117  12.9142   F         3 RES3   0.0000
    66 O4       6.6158   3.5951  11.0284   O.2       3 RES3   0.0000
    67 O5       6.8948   2.9711  13.2885   O.3       3 RES3  -1.0000
    68 O6       7.3523   5.2189  12.6864   O.2       3 RES3   0.0000
    69 C22      9.0197   3.3619  11.9510   C.3       3 RES3   0.0000
    70 S3      11.6427   4.2972  16.2778   S.o2      4 RES4   0.0000
    71 F7      10.4223   2.1934  15.3008   F         4 RES4   0.0000
    72 F8      11.4724   1.8447  17.1422   F         4 RES4   0.0000
    73 F9       9.6052   2.9220  17.1658   F         4 RES4   0.0000
    74 O7      10.7694   5.1606  15.5308   O.2       4 RES4   0.0000
    75 O8      12.8369   3.8832  15.5805   O.2       4 RES4   0.0000
    76 O9      11.8678   4.7042  17.6468   O.3       4 RES4  -1.0000
    77 C23     10.7283   2.7344  16.4727   C.3       4 RES4   0.0000
@<TRIPOS>BOND
     1     1    10    1
     2     2    12    1
     3     3    12    1
     4     4    15    1
     5     5    16    1
     6     6    19    1
     7     7    20    1
     8     8    23    1
     9     9    24    1
    10    10    28    3
    11    11     1    1
    12    12     1    1
    13    13     2    1
    14    14     3    1
    15    15     3    1
    16    16     1    1
    17    17     4    1
    18    18     5    1
    19    19     5    1
    20    20     1    1
    21    21     6    1
    22    22     7    1
    23    23     7    1
    24    24     1    1
    25    25     8    1
    26    26     9    1
    27    27     2    1
    28    28    29    1
    29    29    48    1
    30    30    11    3
    31    31    30    1
    32    32    13    1
    33    33    14    1
    34    34    15    1
    35    35    15    1
    36    36    17    1
    37    37    18    1
    38    38    19    1
    39    39    19    1
    40    40    21    1
    41    41    22    1
    42    42    23    1
    43    43    23    1
    44    44    25    1
    45    45    26    1
    46    46    27    1
    47    47    27    1
    48    49    29    1
    49    50    29    1
    50    51    31    1
    51    52    31    1
    52    53    31    1
    53     4    16    1
    54     6    20    1
    55     8    24    1
    56     9    27    1
    57    13    14    2
    58    17    18    2
    59    21    22    2
    60    25    26    2
    61    54    58    2
    62    55    61    1
    63    56    61    1
    64    57    61    1
    65    59    54    1
    66    60    54    2
    67    61    54    1
    68    62    66    2
    69    63    69    1
    70    64    69    1
    71    65    69    1
    72    67    62    1
    73    68    62    2
    74    69    62    1
    75    70    74    2
    76    71    77    1
    77    72    77    1
    78    73    77    1
    79    75    70    2
    80    76    70    1
    81    77    70    1
@<TRIPOS>SUBSTRUCTURE
     1 RES1        1 GROUP             0 ****  ****    0  
     2 RES2       54 GROUP             0 ****  ****    0  
     3 RES3       62 GROUP             0 ****  ****    0  
     4 RES4       70 GROUP             0 ****  ****    0  
@<TRIPOS>CRYSIN
    9.1084   11.7267   16.3308   85.3410   89.8800   70.2850     2     1
