@<TRIPOS>MOLECULE
RULNET
    76    81     4     0     0
SMALL
USER_CHARGES
****
Generated from the CSD

@<TRIPOS>ATOM
     1 Fe1      4.9233   7.9666  13.1120   Fe        1 RES1   2.0000
     2 N1       4.9100   9.5123  11.8911   N.ar      1 RES1   0.0000
     3 C1       3.8612  10.2132  11.4366   C.ar      1 RES1   0.0000
     4 C2       4.0051  11.3821  10.6935   C.ar      1 RES1   0.0000
     5 C3       5.2848  11.8639  10.4294   C.ar      1 RES1   0.0000
     6 C4       6.3649  11.1232  10.8608   C.ar      1 RES1   0.0000
     7 C5       6.1609   9.9729  11.5827   C.ar      1 RES1   0.0000
     8 C6       7.3032   9.1861  12.1867   C.3       1 RES1   0.0000
     9 N2       6.8401   7.8254  12.5253   N.3       1 RES1   0.0000
    10 C7       6.9386   6.8918  11.3380   C.3       1 RES1   0.0000
    11 C8       5.5854   6.7187  10.6671   C.3       1 RES1   0.0000
    12 N3       4.5466   6.5768  11.7351   N.3       1 RES1   0.0000
    13 C9       4.6262   5.2161  12.3910   C.3       1 RES1   0.0000
    14 C10      4.4981   5.3120  13.9035   C.3       1 RES1   0.0000
    15 N4       5.3296   6.4623  14.3684   N.3       1 RES1   0.0000
    16 C11      6.7983   6.1112  14.2715   C.3       1 RES1   0.0000
    17 C12      7.5895   7.2715  13.6940   C.3       1 RES1   0.0000
    18 H1       7.6812   7.9624  14.3578   H         1 RES1   0.0000
    19 H2       8.4738   6.9739  13.4052   H         1 RES1   0.0000
    20 H3       7.1361   5.8971  15.1608   H         1 RES1   0.0000
    21 H4       6.8937   5.3419  13.6905   H         1 RES1   0.0000
    22 C13      4.9858   6.9179  15.7418   C.3       1 RES1   0.0000
    23 C14      5.3473   8.3720  15.8809   C.ar      1 RES1   0.0000
    24 N5       5.2704   9.0878  14.7257   N.ar      1 RES1   0.0000
    25 C15      5.4729  10.4198  14.7980   C.ar      1 RES1   0.0000
    26 C16      5.7661  11.0684  15.9848   C.ar      1 RES1   0.0000
    27 C17      5.9680  12.5548  15.9267   C.2       1 RES1   0.0000
    28 O1       6.1478  13.0914  17.1258   O.3       1 RES1   0.0000
    29 H5       6.3736  13.8906  17.0977   H         1 RES1   0.0000
    30 O2       5.9749  13.1723  14.8913   O.2       1 RES1   0.0000
    31 C18      5.8791  10.3215  17.1540   C.ar      1 RES1   0.0000
    32 C19      5.6748   8.9658  17.0977   C.ar      1 RES1   0.0000
    33 H6       5.7703   8.4417  17.8636   H         1 RES1   0.0000
    34 H7       6.0994  10.7422  17.9675   H         1 RES1   0.0000
    35 H8       5.4190  10.9277  14.0092   H         1 RES1   0.0000
    36 H9       5.4603   6.3988  16.4039   H         1 RES1   0.0000
    37 H10      4.0259   6.7984  15.8739   H         1 RES1   0.0000
    38 H11      4.8127   4.4904  14.3138   H         1 RES1   0.0000
    39 H12      3.5737   5.4651  14.1448   H         1 RES1   0.0000
    40 H13      5.4685   4.8053  12.1726   H         1 RES1   0.0000
    41 H14      3.9042   4.6783  12.0370   H         1 RES1   0.0000
    42 C20      3.1943   6.8345  11.2042   C.3       1 RES1   0.0000
    43 C21      2.3009   7.3076  12.3205   C.ar      1 RES1   0.0000
    44 N6       2.9521   7.9412  13.3362   N.ar      1 RES1   0.0000
    45 C22      2.2067   8.4852  14.3191   C.ar      1 RES1   0.0000
    46 C23      0.8140   8.4305  14.3208   C.ar      1 RES1   0.0000
    47 C24      0.1665   7.7682  13.2960   C.ar      1 RES1   0.0000
    48 C25      0.9236   7.1893  12.2783   C.ar      1 RES1   0.0000
    49 H15      0.5137   6.7274  11.5757   H         1 RES1   0.0000
    50 H16     -0.7625   7.6922  13.2943   H         1 RES1   0.0000
    51 H17      0.3230   8.8288  15.0269   H         1 RES1   0.0000
    52 H18      2.6503   8.9110  15.0234   H         1 RES1   0.0000
    53 H19      2.8405   6.0191  10.8168   H         1 RES1   0.0000
    54 H20      3.2349   7.5155  10.5104   H         1 RES1   0.0000
    55 H21      5.3791   7.4968  10.1177   H         1 RES1   0.0000
    56 H22      5.5969   5.9220  10.1142   H         1 RES1   0.0000
    57 H23      7.2600   6.0241  11.6338   H         1 RES1   0.0000
    58 H24      7.5711   7.2453  10.6812   H         1 RES1   0.0000
    59 H25      7.5834   9.6193  13.0108   H         1 RES1   0.0000
    60 H26      8.0550   9.1463  11.5669   H         1 RES1   0.0000
    61 H27      7.2361  11.4070  10.6513   H         1 RES1   0.0000
    62 H28      5.4131  12.6619   9.9575   H         1 RES1   0.0000
    63 C26      2.7714  12.0681  10.2058   C.2       1 RES1   0.0000
    64 O3       1.6547  11.7257  10.5012   O.2       1 RES1   0.0000
    65 O4       3.0688  13.0988   9.4296   O.3       1 RES1   0.0000
    66 H29      2.3908  13.5009   9.1229   H         1 RES1   0.0000
    67 H30      3.0007   9.8932  11.6320   H         1 RES1   0.0000
    68 Cl1      1.0457   2.5245   8.2819   Cl        2 RES2  -1.0000
    69 F1       3.3009  10.6314   7.6684   F         3 RES3   0.0000
    70 B1       3.9756   9.4438   7.4254   B         3 RES3  -1.0000
    71 F2       3.4269   8.7952   6.3443   F         3 RES3   0.0000
    72 F3       3.8943   8.6359   8.4960   F         3 RES3   0.0000
    73 F4       5.2779   9.7364   7.1455   F         3 RES3   0.0000
    74 O5       7.3701   8.3446   8.3622   O.3       4 RES4   0.0000
    75 H31      8.1085   8.7828   8.5277   H         4 RES4   0.0000
    76 H32      6.6635   8.7380   8.0558   H         4 RES4   0.0000
@<TRIPOS>BOND
     1     1     2    1
     2     2     3   ar
     3     3     4   ar
     4     4     5   ar
     5     5     6   ar
     6     6     7   ar
     7     7     2   ar
     8     8     7    1
     9     9     1    1
    10    10     9    1
    11    11    10    1
    12    12     1    1
    13    13    12    1
    14    14    13    1
    15    15     1    1
    16    16    15    1
    17    17     9    1
    18    18    17    1
    19    19    17    1
    20    20    16    1
    21    21    16    1
    22    22    15    1
    23    23    22    1
    24    24     1    1
    25    25    24   ar
    26    26    25   ar
    27    27    26    1
    28    28    27    1
    29    29    28    1
    30    30    27    2
    31    31    26   ar
    32    32    23   ar
    33    33    32    1
    34    34    31    1
    35    35    25    1
    36    36    22    1
    37    37    22    1
    38    38    14    1
    39    39    14    1
    40    40    13    1
    41    41    13    1
    42    42    12    1
    43    43    42    1
    44    44     1    1
    45    45    44   ar
    46    46    45   ar
    47    47    46   ar
    48    48    43   ar
    49    49    48    1
    50    50    47    1
    51    51    46    1
    52    52    45    1
    53    53    42    1
    54    54    42    1
    55    55    11    1
    56    56    11    1
    57    57    10    1
    58    58    10    1
    59    59     8    1
    60    60     8    1
    61    61     6    1
    62    62     5    1
    63    63     4    1
    64    64    63    2
    65    65    63    1
    66    66    65    1
    67    67     3    1
    68     8     9    1
    69    11    12    1
    70    14    15    1
    71    16    17    1
    72    23    24   ar
    73    31    32   ar
    74    43    44   ar
    75    47    48   ar
    76    69    70    1
    77    70    71    1
    78    72    70    1
    79    73    70    1
    80    74    75    1
    81    76    74    1
@<TRIPOS>SUBSTRUCTURE
     1 RES1        1 GROUP             0 ****  ****    0  
     2 RES2       68 GROUP             0 ****  ****    0  
     3 RES3       69 GROUP             0 ****  ****    0  
     4 RES4       74 GROUP             0 ****  ****    0  
@<TRIPOS>CRYSIN
   13.0140   12.4490   17.7240   90.0000   96.5500   90.0000   231     1
