@<TRIPOS>MOLECULE
RUNMAQ
    92   102     2     0     0
SMALL
USER_CHARGES
****
Generated from the CSD

@<TRIPOS>ATOM
     1 Fe1      1.7903   2.8682   4.6476   Fe        1 RES1   1.0000
     2 N1       2.1945   1.9172   6.3722   N.ar      1 RES1   0.0000
     3 N2       2.6709  -0.2428   5.3686   N.2       1 RES1   0.0000
     4 N3       2.7163   1.5051   3.7144   N.2       1 RES1   0.0000
     5 N4       3.3293   2.6573   1.6802   N.2       1 RES1   0.0000
     6 N5       1.4966   3.7491   2.8511   N.ar      1 RES1   0.0000
     7 N6       3.4399   4.0076   4.7766   N.ar      1 RES1   0.0000
     8 N7       2.2887   6.1222   5.0387   N.2       1 RES1   0.0000
     9 N8       0.8723   4.2492   5.5563   N.2       1 RES1   0.0000
    10 N9      -0.9513   2.9806   6.4596   N.2       1 RES1   0.0000
    11 N10      0.0736   1.8450   4.6075   N.ar      1 RES1   0.0000
    12 O1       2.3988   0.0730  10.0987   O.3       1 RES1   0.0000
    13 O2       1.5473   6.5212  -0.2388   O.3       1 RES1   0.0000
    14 O3       6.9095   6.0320   3.8287   O.3       1 RES1   0.0000
    15 O4      -2.5890  -1.2832   5.1232   O.3       1 RES1   0.0000
    16 C1       2.1694   2.5897   7.5469   C.ar      1 RES1   0.0000
    17 H1       2.1129   3.5365   7.5088   H         1 RES1   0.0000
    18 C2       2.2197   2.0132   8.7736   C.ar      1 RES1   0.0000
    19 H2       2.1734   2.5467   9.5579   H         1 RES1   0.0000
    20 C3       2.3400   0.6276   8.8683   C.ar      1 RES1   0.0000
    21 C4       2.4427  -0.0803   7.6909   C.ar      1 RES1   0.0000
    22 H3       2.5493  -1.0237   7.7188   H         1 RES1   0.0000
    23 C5       2.3917   0.5765   6.4466   C.ar      1 RES1   0.0000
    24 C6       2.9111   0.2226   4.1819   C.2       1 RES1   0.0000
    25 C7       3.6445  -0.5346   3.1587   C.ar      1 RES1   0.0000
    26 C8       4.0211  -1.8788   3.0918   C.ar      1 RES1   0.0000
    27 H4       3.7687  -2.5020   3.7627   H         1 RES1   0.0000
    28 C9       4.7866  -2.2587   1.9915   C.ar      1 RES1   0.0000
    29 H5       5.0524  -3.1656   1.9079   H         1 RES1   0.0000
    30 C10      5.1716  -1.3567   1.0139   C.ar      1 RES1   0.0000
    31 H6       5.7125  -1.6508   0.2899   H         1 RES1   0.0000
    32 C11      4.7756  -0.0158   1.0771   C.ar      1 RES1   0.0000
    33 H7       5.0397   0.6075   0.4117   H         1 RES1   0.0000
    34 C12      3.9907   0.3628   2.1383   C.ar      1 RES1   0.0000
    35 C13      3.3324   1.6418   2.4831   C.2       1 RES1   0.0000
    36 C14      2.4218   3.7040   1.8372   C.ar      1 RES1   0.0000
    37 C15      2.4351   4.6495   0.8243   C.ar      1 RES1   0.0000
    38 H8       3.1277   4.6328   0.1747   H         1 RES1   0.0000
    39 C16      1.4466   5.6169   0.7527   C.ar      1 RES1   0.0000
    40 C17      0.4064   5.5553   1.6941   C.ar      1 RES1   0.0000
    41 H9      -0.3397   6.1406   1.6337   H         1 RES1   0.0000
    42 C18      0.4963   4.6377   2.6940   C.ar      1 RES1   0.0000
    43 H10     -0.2042   4.6209   3.3353   H         1 RES1   0.0000
    44 C19      2.6135  -1.3525  10.1694   C.3       1 RES1   0.0000
    45 H11      1.8576  -1.8168   9.7521   H         1 RES1   0.0000
    46 H12      2.6875  -1.6251  11.1070   H         1 RES1   0.0000
    47 H13      3.4398  -1.5823   9.6954   H         1 RES1   0.0000
    48 C20      0.5653   7.5543  -0.3308   C.3       1 RES1   0.0000
    49 H14     -0.3263   7.1516  -0.3987   H         1 RES1   0.0000
    50 H15      0.7384   8.1000  -1.1254   H         1 RES1   0.0000
    51 H16      0.6080   8.1177   0.4702   H         1 RES1   0.0000
    52 C21      4.6503   3.4057   4.7153   C.ar      1 RES1   0.0000
    53 H17      4.7002   2.4724   4.8826   H         1 RES1   0.0000
    54 C22      5.8021   4.0742   4.4253   C.ar      1 RES1   0.0000
    55 H18      6.6303   3.6109   4.3826   H         1 RES1   0.0000
    56 C23      5.7474   5.4508   4.1912   C.ar      1 RES1   0.0000
    57 C24      4.5502   6.0940   4.3845   C.ar      1 RES1   0.0000
    58 H19      4.4989   7.0374   4.2915   H         1 RES1   0.0000
    59 C25      3.3981   5.3559   4.7199   C.ar      1 RES1   0.0000
    60 C26      1.2109   5.5820   5.5238   C.2       1 RES1   0.0000
    61 C27      0.1287   6.3415   6.1761   C.ar      1 RES1   0.0000
    62 C28     -0.0894   7.7011   6.2979   C.ar      1 RES1   0.0000
    63 H20      0.5234   8.3389   5.9513   H         1 RES1   0.0000
    64 C29     -1.2698   8.0910   6.9623   C.ar      1 RES1   0.0000
    65 H21     -1.4563   9.0165   7.0655   H         1 RES1   0.0000
    66 C30     -2.1601   7.1710   7.4660   C.ar      1 RES1   0.0000
    67 H22     -2.9390   7.4767   7.9167   H         1 RES1   0.0000
    68 C31     -1.9440   5.7957   7.3294   C.ar      1 RES1   0.0000
    69 H23     -2.5678   5.1594   7.6556   H         1 RES1   0.0000
    70 C32     -0.7684   5.4028   6.6901   C.ar      1 RES1   0.0000
    71 C33     -0.2970   4.0758   6.2570   C.2       1 RES1   0.0000
    72 C34     -0.7886   1.8610   5.6641   C.ar      1 RES1   0.0000
    73 C35     -1.6672   0.8222   5.8946   C.ar      1 RES1   0.0000
    74 H24     -2.1846   0.8107   6.6919   H         1 RES1   0.0000
    75 C36     -1.8026  -0.2086   4.9736   C.ar      1 RES1   0.0000
    76 C37     -1.0721  -0.0906   3.7665   C.ar      1 RES1   0.0000
    77 H25     -1.2297  -0.6899   3.0463   H         1 RES1   0.0000
    78 C38     -0.1424   0.8941   3.6577   C.ar      1 RES1   0.0000
    79 H26      0.3893   0.9217   2.8706   H         1 RES1   0.0000
    80 C39      6.8687   7.4258   3.5379   C.3       1 RES1   0.0000
    81 H27      6.2426   7.5872   2.8018   H         1 RES1   0.0000
    82 H28      7.7635   7.7312   3.2777   H         1 RES1   0.0000
    83 H29      6.5737   7.9167   4.3324   H         1 RES1   0.0000
    84 C40     -3.3029  -1.4402   6.3834   C.3       1 RES1   0.0000
    85 H30     -2.6666  -1.3965   7.1278   H         1 RES1   0.0000
    86 H31     -3.7588  -2.3070   6.3945   H         1 RES1   0.0000
    87 H32     -3.9648  -0.7221   6.4763   H         1 RES1   0.0000
    88 Cl1     -4.0145  -5.0085   9.0780   Cl        2 RES2   0.0000
    89 O5      -3.4533  -3.7780   9.4956   O.2       2 RES2   0.0000
    90 O6      -5.3702  -4.8212   8.7605   O.2       2 RES2   0.0000
    91 O7      -3.9902  -5.9974  10.1034   O.2       2 RES2   0.0000
    92 O8      -3.3852  -5.4925   7.8851   O.3       2 RES2  -1.0000
@<TRIPOS>BOND
     1     1     2    1
     2     2    16   ar
     3     3    23    1
     4     4     1    1
     5     5    35    2
     6     6     1    1
     7     7     1    1
     8     8    59    1
     9     9     1    1
    10    10    71    2
    11    11     1    1
    12    12    20    1
    13    13    39    1
    14    14    56    1
    15    15    75    1
    16    16    17    1
    17    18    16   ar
    18    19    18    1
    19    20    18   ar
    20    21    20   ar
    21    22    21    1
    22    23     2   ar
    23    24     3    2
    24    25    24    1
    25    26    25   ar
    26    27    26    1
    27    28    26   ar
    28    29    28    1
    29    30    28   ar
    30    31    30    1
    31    32    30   ar
    32    33    32    1
    33    34    25   ar
    34    35     4    1
    35    36     5    1
    36    37    36   ar
    37    38    37    1
    38    39    37   ar
    39    40    39   ar
    40    41    40    1
    41    42     6   ar
    42    43    42    1
    43    44    12    1
    44    45    44    1
    45    46    44    1
    46    47    44    1
    47    48    13    1
    48    49    48    1
    49    50    48    1
    50    51    48    1
    51    52     7   ar
    52    53    52    1
    53    54    52   ar
    54    55    54    1
    55    56    54   ar
    56    57    56   ar
    57    58    57    1
    58    59     7   ar
    59    60     8    2
    60    61    60    1
    61    62    61   ar
    62    63    62    1
    63    64    62   ar
    64    65    64    1
    65    66    64   ar
    66    67    66    1
    67    68    66   ar
    68    69    68    1
    69    70    61   ar
    70    71     9    1
    71    72    10    1
    72    73    72   ar
    73    74    73    1
    74    75    73   ar
    75    76    75   ar
    76    77    76    1
    77    78    11   ar
    78    79    78    1
    79    80    14    1
    80    81    80    1
    81    82    80    1
    82    83    80    1
    83    84    15    1
    84    85    84    1
    85    86    84    1
    86    87    84    1
    87     4    24    1
    88     6    36   ar
    89     9    60    1
    90    11    72   ar
    91    21    23   ar
    92    32    34   ar
    93    34    35    1
    94    40    42   ar
    95    57    59   ar
    96    68    70   ar
    97    70    71    1
    98    76    78   ar
    99    88    89    2
   100    90    88    2
   101    91    88    2
   102    92    88    1
@<TRIPOS>SUBSTRUCTURE
     1 RES1        1 GROUP             0 ****  ****    0  
     2 RES2       88 GROUP             0 ****  ****    0  
@<TRIPOS>CRYSIN
    9.0930   10.9910   11.2940  113.4070  110.0080   98.6310     1     1
