@<TRIPOS>MOLECULE
RUSMOI
   107   108     1     0     0
SMALL
NO_CHARGES
****
Generated from the CSD

@<TRIPOS>ATOM
     1 Fe1      1.8790  11.8750   4.8524   Fe        1 RES1   0.0000
     2 Cl1      0.2288  10.2056   4.6916   Cl        1 RES1   0.0000
     3 Cl2      3.5027  13.5662   5.0000   Cl        1 RES1   0.0000
     4 P1       3.1119  10.6622   3.4005   P.3       1 RES1   0.0000
     5 P2       2.9340  10.6273   6.4382   P.3       1 RES1   0.0000
     6 P3       0.5219  12.9710   6.3194   P.3       1 RES1   0.0000
     7 P4       0.8022  13.0860   3.2465   P.3       1 RES1   0.0000
     8 O1       2.3947   8.7274  -0.1148   O.3       1 RES1   0.0000
     9 O2       6.3583  12.5509   1.7981   O.3       1 RES1   0.0000
    10 O3       2.1379   7.3429   6.6168   O.3       1 RES1   0.0000
    11 O4       5.3286  11.5887   9.5682   O.3       1 RES1   0.0000
    12 O5       1.7935  13.7466   9.2668   O.3       1 RES1   0.0000
    13 O6      -2.1180  11.7852   9.1932   O.3       1 RES1   0.0000
    14 O7      -2.4125  11.9452   0.8831   O.3       1 RES1   0.0000
    15 O8       1.8302  15.7922   0.3710   O.3       1 RES1   0.0000
    16 C1       3.5839   9.1008   4.2592   C.3       1 RES1   0.0000
    17 H1       2.7936   8.5143   4.3643   H         1 RES1   0.0000
    18 H2       4.2705   8.6142   3.7376   H         1 RES1   0.0000
    19 C2       4.1370   9.4938   5.6226   C.3       1 RES1   0.0000
    20 H3       5.0108   9.9470   5.5153   H         1 RES1   0.0000
    21 H4       4.2714   8.6861   6.1794   H         1 RES1   0.0000
    22 C3      -0.8784  13.6493   5.3327   C.3       1 RES1   0.0000
    23 H5      -1.4992  12.9208   5.0783   H         1 RES1   0.0000
    24 H6      -1.3797  14.3157   5.8673   H         1 RES1   0.0000
    25 C4      -0.2994  14.3083   4.0809   C.3       1 RES1   0.0000
    26 H7       0.2155  15.1160   4.3293   H         1 RES1   0.0000
    27 H8      -1.0307  14.5788   3.4704   H         1 RES1   0.0000
    28 C5       2.3863  10.0859   1.8171   C.3       1 RES1   0.0000
    29 H9       1.4576   9.7923   1.9974   H         1 RES1   0.0000
    30 H10      2.3345  10.8619   1.2059   H         1 RES1   0.0000
    31 C6       3.0988   8.9627   1.0886   C.3       1 RES1   0.0000
    32 H11      4.0341   9.2197   0.8938   H         1 RES1   0.0000
    33 H12      3.1076   8.1440   1.6453   H         1 RES1   0.0000
    34 C7       2.9317   7.6993  -0.9013   C.3       1 RES1   0.0000
    35 H13      2.3945   7.5970  -1.7152   H         1 RES1   0.0000
    36 H14      2.9214   6.8612  -0.3945   H         1 RES1   0.0000
    37 H15      3.8541   7.9223  -1.1460   H         1 RES1   0.0000
    38 C8       4.8025  11.2192   2.9224   C.3       1 RES1   0.0000
    39 H16      5.3012  11.4053   3.7576   H         1 RES1   0.0000
    40 H17      5.2530  10.4575   2.4792   H         1 RES1   0.0000
    41 C9       4.9567  12.4207   2.0248   C.3       1 RES1   0.0000
    42 H18      4.4758  12.2812   1.1710   H         1 RES1   0.0000
    43 H19      4.5966  13.2326   2.4643   H         1 RES1   0.0000
    44 C10      6.6863  13.7126   1.0666   C.3       1 RES1   0.0000
    45 H20      7.6575  13.7516   0.9363   H         1 RES1   0.0000
    46 H21      6.3921  14.5045   1.5605   H         1 RES1   0.0000
    47 H22      6.2397  13.6858   0.1947   H         1 RES1   0.0000
    48 C11      1.9080   9.5238   7.5239   C.3       1 RES1   0.0000
    49 H23      1.8111   9.9738   8.4015   H         1 RES1   0.0000
    50 H24      1.0035   9.4707   7.1256   H         1 RES1   0.0000
    51 C12      2.3749   8.1049   7.7875   C.3       1 RES1   0.0000
    52 H25      3.3403   8.0989   8.0070   H         1 RES1   0.0000
    53 H26      1.8769   7.7188   8.5513   H         1 RES1   0.0000
    54 C13      2.5234   5.9962   6.7696   C.3       1 RES1   0.0000
    55 H27      2.3420   5.5077   5.9397   H         1 RES1   0.0000
    56 H28      2.0160   5.5918   7.5026   H         1 RES1   0.0000
    57 H29      3.4817   5.9512   6.9733   H         1 RES1   0.0000
    58 C14      3.9533  11.5225   7.6614   C.3       1 RES1   0.0000
    59 H30      4.5907  12.0936   7.1631   H         1 RES1   0.0000
    60 H31      3.3546  12.1265   8.1693   H         1 RES1   0.0000
    61 C15      4.7423  10.7157   8.6569   C.3       1 RES1   0.0000
    62 H32      4.1443  10.0847   9.1305   H         1 RES1   0.0000
    63 H33      5.4412  10.1931   8.1917   H         1 RES1   0.0000
    64 C16      5.5749  10.9850  10.8093   C.3       1 RES1   0.0000
    65 H34      5.9946  11.6355  11.4100   H         1 RES1   0.0000
    66 H35      6.1745  10.2187  10.6860   H         1 RES1   0.0000
    67 H36      4.7292  10.6804  11.1978   H         1 RES1   0.0000
    68 C17      1.0361  14.5554   7.1336   C.3       1 RES1   0.0000
    69 H37      1.2942  15.1867   6.4166   H         1 RES1   0.0000
    70 H38      0.2358  14.9345   7.5750   H         1 RES1   0.0000
    71 C18      2.1541  14.5463   8.1528   C.3       1 RES1   0.0000
    72 H39      2.9783  14.1877   7.7398   H         1 RES1   0.0000
    73 H40      2.3374  15.4718   8.4539   H         1 RES1   0.0000
    74 C19      2.7381  13.8649  10.3224   C.3       1 RES1   0.0000
    75 H41      2.4609  13.2996  11.0730   H         1 RES1   0.0000
    76 H42      2.7844  14.7981  10.6161   H         1 RES1   0.0000
    77 H43      3.6193  13.5774  10.0044   H         1 RES1   0.0000
    78 C20     -0.3498  12.0305   7.6330   C.3       1 RES1   0.0000
    79 H44     -0.6102  11.1506   7.2605   H         1 RES1   0.0000
    80 H45      0.2915  11.8621   8.3690   H         1 RES1   0.0000
    81 C21     -1.5871  12.6782   8.2247   C.3       1 RES1   0.0000
    82 H46     -1.3518  13.5408   8.6486   H         1 RES1   0.0000
    83 H47     -2.2552  12.8501   7.5151   H         1 RES1   0.0000
    84 C22     -3.3776  12.2276   9.6678   C.3       1 RES1   0.0000
    85 H48     -3.7182  11.5916  10.3314   H         1 RES1   0.0000
    86 H49     -4.0065  12.2848   8.9183   H         1 RES1   0.0000
    87 H50     -3.2800  13.1096  10.0818   H         1 RES1   0.0000
    88 C23     -0.3117  12.1664   2.0855   C.3       1 RES1   0.0000
    89 H51      0.1662  12.0631   1.2259   H         1 RES1   0.0000
    90 H52     -0.4506  11.2578   2.4543   H         1 RES1   0.0000
    91 C24     -1.6787  12.7636   1.7901   C.3       1 RES1   0.0000
    92 H53     -2.1871  12.8550   2.6340   H         1 RES1   0.0000
    93 H54     -1.5657  13.6663   1.4007   H         1 RES1   0.0000
    94 C25     -3.0933  10.8838   1.5370   C.3       1 RES1   0.0000
    95 H55     -3.5821  10.3515   0.8739   H         1 RES1   0.0000
    96 H56     -3.7257  11.2530   2.1896   H         1 RES1   0.0000
    97 H57     -2.4436  10.3137   1.9974   H         1 RES1   0.0000
    98 C26      1.7615  14.1486   2.0975   C.3       1 RES1   0.0000
    99 H58      2.3214  14.7628   2.6340   H         1 RES1   0.0000
   100 H59      2.3722  13.5713   1.5754   H         1 RES1   0.0000
   101 C27      0.9392  14.9752   1.1295   C.3       1 RES1   0.0000
   102 H60      0.4268  14.3814   0.5268   H         1 RES1   0.0000
   103 H61      0.2980  15.5424   1.6279   H         1 RES1   0.0000
   104 C28      1.1486  16.4403  -0.6888   C.3       1 RES1   0.0000
   105 H62      1.7817  16.9922  -1.1934   H         1 RES1   0.0000
   106 H63      0.4401  17.0080  -0.3221   H         1 RES1   0.0000
   107 H64      0.7549  15.7678  -1.2833   H         1 RES1   0.0000
@<TRIPOS>BOND
     1     1     2    1
     2     3     1    1
     3     4     1    1
     4     5     1    1
     5     6     1    1
     6     7     1    1
     7     8    31    1
     8     9    41    1
     9    10    51    1
    10    11    61    1
    11    12    71    1
    12    13    81    1
    13    14    91    1
    14    15   101    1
    15    16     4    1
    16    17    16    1
    17    18    16    1
    18    19     5    1
    19    20    19    1
    20    21    19    1
    21    22     6    1
    22    23    22    1
    23    24    22    1
    24    25     7    1
    25    26    25    1
    26    27    25    1
    27    28     4    1
    28    29    28    1
    29    30    28    1
    30    31    28    1
    31    32    31    1
    32    33    31    1
    33    34     8    1
    34    35    34    1
    35    36    34    1
    36    37    34    1
    37    38     4    1
    38    39    38    1
    39    40    38    1
    40    41    38    1
    41    42    41    1
    42    43    41    1
    43    44     9    1
    44    45    44    1
    45    46    44    1
    46    47    44    1
    47    48     5    1
    48    49    48    1
    49    50    48    1
    50    51    48    1
    51    52    51    1
    52    53    51    1
    53    54    10    1
    54    55    54    1
    55    56    54    1
    56    57    54    1
    57    58     5    1
    58    59    58    1
    59    60    58    1
    60    61    58    1
    61    62    61    1
    62    63    61    1
    63    64    11    1
    64    65    64    1
    65    66    64    1
    66    67    64    1
    67    68     6    1
    68    69    68    1
    69    70    68    1
    70    71    68    1
    71    72    71    1
    72    73    71    1
    73    74    12    1
    74    75    74    1
    75    76    74    1
    76    77    74    1
    77    78     6    1
    78    79    78    1
    79    80    78    1
    80    81    78    1
    81    82    81    1
    82    83    81    1
    83    84    13    1
    84    85    84    1
    85    86    84    1
    86    87    84    1
    87    88     7    1
    88    89    88    1
    89    90    88    1
    90    91    88    1
    91    92    91    1
    92    93    91    1
    93    94    14    1
    94    95    94    1
    95    96    94    1
    96    97    94    1
    97    98     7    1
    98    99    98    1
    99   100    98    1
   100   101    98    1
   101   102   101    1
   102   103   101    1
   103   104    15    1
   104   105   104    1
   105   106   104    1
   106   107   104    1
   107    16    19    1
   108    22    25    1
@<TRIPOS>SUBSTRUCTURE
     1 RES1        1 GROUP             0 ****  ****    0  
@<TRIPOS>CRYSIN
   12.3417   12.1825   25.3621   90.0000  100.1240   90.0000    14     1
