@<TRIPOS>MOLECULE
RUYXUH
   152   162     4     0     0
SMALL
USER_CHARGES
****
Generated from the CSD

@<TRIPOS>ATOM
     1 Fe1      5.7385   5.1456   9.9368   Fe        1 RES1   2.0000
     2 Cl1      8.7070   7.3741  12.6932   Cl        1 RES1   0.0000
     3 Cl2      8.0600   4.3345  13.6200   Cl        1 RES1   0.0000
     4 Cl3      3.3971   8.2577  12.1537   Cl        1 RES1   0.0000
     5 Cl4      7.2319   0.8831   9.5522   Cl        1 RES1   0.0000
     6 Cl5      8.7218   3.0328   7.2959   Cl        1 RES1   0.0000
     7 Cl6      1.5506   5.5258  11.8561   Cl        1 RES1   0.0000
     8 Cl7      5.2922   6.9108   5.7272   Cl        1 RES1   0.0000
     9 Cl8      2.6656   5.1285   6.6006   Cl        1 RES1   0.0000
    10 N1       4.7299   3.6258  10.5063   N.ar      1 RES1   0.0000
    11 N2       6.7347   6.6838   9.3777   N.ar      1 RES1   0.0000
    12 N3       5.4163   5.6308  11.8845   N.2       1 RES1   0.0000
    13 N4       7.6304   4.5275  10.3438   N.2       1 RES1   0.0000
    14 N5       5.7222   6.6153  12.8087   N.pl3     1 RES1   0.0000
    15 N6       8.3164   3.4409  10.8375   N.pl3     1 RES1   0.0000
    16 N7       5.6639   4.0875   8.2133   N.2       1 RES1   0.0000
    17 N8       4.2322   6.3532   9.3221   N.2       1 RES1   0.0000
    18 N9       6.0296   4.1919   6.8865   N.pl3     1 RES1   0.0000
    19 N10      2.8547   6.4011   9.2734   N.pl3     1 RES1   0.0000
    20 C1       5.2518   6.2635  14.0639   C.2       1 RES1   0.0000
    21 C2       9.6923   3.6594  10.7802   C.2       1 RES1   0.0000
    22 C3       4.6777   5.0259  13.9334   C.2       1 RES1   0.0000
    23 H1       4.2799   4.5081  14.6242   H         1 RES1   0.0000
    24 C4       9.8531   4.8945  10.2060   C.2       1 RES1   0.0000
    25 H2      10.6764   5.3264  10.0128   H         1 RES1   0.0000
    26 C5       4.7951   4.6733  12.5795   C.2       1 RES1   0.0000
    27 C6       8.5746   5.3930   9.9589   C.2       1 RES1   0.0000
    28 C7       4.3628   3.5066  11.8052   C.ar      1 RES1   0.0000
    29 C8       8.0889   6.6565   9.4299   C.ar      1 RES1   0.0000
    30 C9       3.6214   2.4247  12.2419   C.ar      1 RES1   0.0000
    31 H3       3.3615   2.3529  13.1520   H         1 RES1   0.0000
    32 C10      8.8363   7.7488   9.0383   C.ar      1 RES1   0.0000
    33 H4       9.7856   7.7282   9.0749   H         1 RES1   0.0000
    34 C11      3.2626   1.4519  11.3301   C.ar      1 RES1   0.0000
    35 H5       2.7620   0.6972  11.6207   H         1 RES1   0.0000
    36 C12      8.1683   8.8775   8.5876   C.ar      1 RES1   0.0000
    37 H6       8.6654   9.6348   8.3005   H         1 RES1   0.0000
    38 C13      3.6265   1.5629   9.9902   C.ar      1 RES1   0.0000
    39 H7       3.3692   0.9055   9.3550   H         1 RES1   0.0000
    40 C14      6.7812   8.9125   8.5511   C.ar      1 RES1   0.0000
    41 H8       6.3217   9.6879   8.2535   H         1 RES1   0.0000
    42 C15      4.3821   2.6728   9.6126   C.ar      1 RES1   0.0000
    43 C16      6.0859   7.7871   8.9583   C.ar      1 RES1   0.0000
    44 C17      4.8913   2.9837   8.2761   C.2       1 RES1   0.0000
    45 C18      4.6402   7.5918   8.9861   C.2       1 RES1   0.0000
    46 C19      4.7635   2.3856   7.0232   C.2       1 RES1   0.0000
    47 H9       4.2635   1.6047   6.8144   H         1 RES1   0.0000
    48 C20      3.5513   8.4226   8.7216   C.2       1 RES1   0.0000
    49 H10      3.5846   9.3372   8.4658   H         1 RES1   0.0000
    50 C21      5.5028   3.1448   6.1445   C.2       1 RES1   0.0000
    51 C22      2.4206   7.6564   8.9009   C.2       1 RES1   0.0000
    52 C23      6.0670   7.9289  12.3516   C.ar      1 RES1   0.0000
    53 C24      7.6206   2.5259  11.6833   C.ar      1 RES1   0.0000
    54 C25      7.3732   8.3943  12.2785   C.ar      1 RES1   0.0000
    55 C26      7.4274   2.8403  13.0233   C.ar      1 RES1   0.0000
    56 C27      7.6483   9.7115  11.9270   C.ar      1 RES1   0.0000
    57 H11      8.5446  10.0280  11.9061   H         1 RES1   0.0000
    58 C28      6.7509   1.9965  13.8864   C.ar      1 RES1   0.0000
    59 H12      6.6028   2.2445  14.7913   H         1 RES1   0.0000
    60 C29      6.5993  10.5527  11.6068   C.ar      1 RES1   0.0000
    61 H13      6.7830  11.4499  11.3562   H         1 RES1   0.0000
    62 C30      6.2931   0.7845  13.4044   C.ar      1 RES1   0.0000
    63 H14      5.8481   0.1849  13.9925   H         1 RES1   0.0000
    64 C31      5.2853  10.1145  11.6451   C.ar      1 RES1   0.0000
    65 H15      4.5745  10.6996  11.4101   H         1 RES1   0.0000
    66 C32      6.4707   0.4302  12.0853   C.ar      1 RES1   0.0000
    67 H16      6.1603  -0.4102  11.7704   H         1 RES1   0.0000
    68 C33      5.0265   8.8111  12.0296   C.ar      1 RES1   0.0000
    69 C34      7.1015   1.3050  11.2239   C.ar      1 RES1   0.0000
    70 C35      7.1097   5.0709   6.5499   C.ar      1 RES1   0.0000
    71 C36      2.1288   5.1628   9.2402   C.ar      1 RES1   0.0000
    72 C37      8.4249   4.6420   6.7291   C.ar      1 RES1   0.0000
    73 C38      1.4932   4.6493  10.3678   C.ar      1 RES1   0.0000
    74 C39      9.4902   5.4724   6.4246   C.ar      1 RES1   0.0000
    75 H17     10.3818   5.1798   6.5708   H         1 RES1   0.0000
    76 C40      0.7707   3.4675  10.3139   C.ar      1 RES1   0.0000
    77 H18      0.3258   3.1414  11.0865   H         1 RES1   0.0000
    78 C41      9.2477   6.7258   5.9095   C.ar      1 RES1   0.0000
    79 H19      9.9782   7.2989   5.7077   H         1 RES1   0.0000
    80 C42      0.9822   8.1344   8.8051   C.3       1 RES1   0.0000
    81 C43      0.7028   2.7633   9.1166   C.ar      1 RES1   0.0000
    82 H20      0.2318   1.9384   9.0801   H         1 RES1   0.0000
    83 C44      7.9536   7.1616   5.6833   C.ar      1 RES1   0.0000
    84 H21      7.7965   8.0173   5.3005   H         1 RES1   0.0000
    85 C45      1.3148   3.2552   7.9838   C.ar      1 RES1   0.0000
    86 H22      1.2670   2.7737   7.1659   H         1 RES1   0.0000
    87 C46      6.8928   6.3420   6.0174   C.ar      1 RES1   0.0000
    88 C47      1.9948   4.4543   8.0517   C.ar      1 RES1   0.0000
    89 C48      5.3589   7.0946  15.3429   C.3       1 RES1   0.0000
    90 C49     10.7785   2.6700  11.1926   C.3       1 RES1   0.0000
    91 C50      5.8172   6.1830  16.4531   C.3       1 RES1   0.0000
    92 H23      5.1573   5.4710  16.5836   H         1 RES1   0.0000
    93 H24      5.9071   6.6995  17.2814   H         1 RES1   0.0000
    94 H25      6.6819   5.7898  16.2164   H         1 RES1   0.0000
    95 C51     10.6893   2.2670  12.6735   C.3       1 RES1   0.0000
    96 H26     10.6471   3.0734  13.2286   H         1 RES1   0.0000
    97 H27     11.4827   1.7429  12.9171   H         1 RES1   0.0000
    98 H28      9.8854   1.7280  12.8179   H         1 RES1   0.0000
    99 C52      3.9972   7.6772  15.6805   C.3       1 RES1   0.0000
   100 H29      3.6761   8.2149  14.9270   H         1 RES1   0.0000
   101 H30      4.0724   8.2426  16.4775   H         1 RES1   0.0000
   102 H31      3.3635   6.9503  15.8545   H         1 RES1   0.0000
   103 C53     12.1315   3.3517  10.9647   C.3       1 RES1   0.0000
   104 H32     12.2365   3.5559  10.0128   H         1 RES1   0.0000
   105 H33     12.8515   2.7525  11.2518   H         1 RES1   0.0000
   106 H34     12.1712   4.1829  11.4832   H         1 RES1   0.0000
   107 C54      6.3385   8.2830  15.2942   C.3       1 RES1   0.0000
   108 H35      7.2366   7.9556  15.0749   H         1 RES1   0.0000
   109 H36      6.3565   8.7293  16.1660   H         1 RES1   0.0000
   110 H37      6.0466   8.9185  14.6068   H         1 RES1   0.0000
   111 C55     10.7031   1.4179  10.3121   C.3       1 RES1   0.0000
   112 H38      9.9111   0.8948  10.5540   H         1 RES1   0.0000
   113 H39     11.5070   0.8757  10.4461   H         1 RES1   0.0000
   114 H40     10.6440   1.6834   9.3707   H         1 RES1   0.0000
   115 C56      5.6447   2.9064   4.6462   C.3       1 RES1   0.0000
   116 C57      0.6409   8.8717  10.1120   C.3       1 RES1   0.0000
   117 H41      0.7303   8.2553  10.8672   H         1 RES1   0.0000
   118 H42     -0.2813   9.2033  10.0685   H         1 RES1   0.0000
   119 H43      1.2540   9.6263  10.2303   H         1 RES1   0.0000
   120 C58      6.0337   1.4581   4.4496   C.3       1 RES1   0.0000
   121 H44      6.9209   1.3029   4.8359   H         1 RES1   0.0000
   122 H45      6.0543   1.2540   3.4907   H         1 RES1   0.0000
   123 H46      5.3783   0.8799   4.8916   H         1 RES1   0.0000
   124 C59     -0.0820   7.0527   8.5772   C.3       1 RES1   0.0000
   125 H47      0.1603   6.5167   7.7941   H         1 RES1   0.0000
   126 H48     -0.9514   7.4774   8.4258   H         1 RES1   0.0000
   127 H49     -0.1334   6.4742   9.3672   H         1 RES1   0.0000
   128 C60      6.6250   3.7982   3.9032   C.3       1 RES1   0.0000
   129 H50      6.3824   4.7377   4.0424   H         1 RES1   0.0000
   130 H51      6.5932   3.5899   2.9461   H         1 RES1   0.0000
   131 H52      7.5316   3.6409   4.2425   H         1 RES1   0.0000
   132 C61      0.9049   9.1300   7.6532   C.3       1 RES1   0.0000
   133 H53      1.5069   9.8834   7.8307   H         1 RES1   0.0000
   134 H54     -0.0147   9.4605   7.5662   H         1 RES1   0.0000
   135 H55      1.1735   8.6868   6.8214   H         1 RES1   0.0000
   136 C62      4.2582   3.1372   4.0145   C.3       1 RES1   0.0000
   137 H56      3.5995   2.5591   4.4530   H         1 RES1   0.0000
   138 H57      4.2957   2.9246   3.0592   H         1 RES1   0.0000
   139 H58      3.9992   4.0745   4.1311   H         1 RES1   0.0000
   140 F1       3.4551   2.3975  15.6420   F         2 RES2   0.0000
   141 F2       5.1593   1.4632  16.7646   F         2 RES2   0.0000
   142 F3       3.0550   1.1503  17.4798   F         2 RES2   0.0000
   143 F4       3.9699   3.1912  17.6609   F         2 RES2   0.0000
   144 B1       3.9410   2.0638  16.9177   B         2 RES2  -1.0000
   145 F5       2.6850   0.1254   5.5841   F         3 RES3   0.0000
   146 F6       2.2200  -0.6332   7.5569   F         3 RES3   0.0000
   147 F7       1.2379  -1.5335   5.7355   F         3 RES3   0.0000
   148 F8       0.6547   0.4689   6.4385   F         3 RES3   0.0000
   149 B2       1.6505  -0.3868   6.3359   B         3 RES3  -1.0000
   150 O1       5.7825  10.6125   6.0070   O.3       4 RES4   0.0000
   151 H59      5.4821  10.4148   5.1352   H         4 RES4   0.0000
   152 H60      5.1749  11.2119   6.3272   H         4 RES4   0.0000
@<TRIPOS>BOND
     1     1    10    1
     2     2    54    1
     3     3    55    1
     4     4    68    1
     5     5    69    1
     6     6    72    1
     7     7    73    1
     8     8    87    1
     9     9    88    1
    10    10    28   ar
    11    11     1    1
    12    12     1    1
    13    13     1    1
    14    14    12    1
    15    15    13    1
    16    16     1    1
    17    17     1    1
    18    18    16    1
    19    19    17    1
    20    20    14    1
    21    21    15    1
    22    22    20    2
    23    23    22    1
    24    24    21    2
    25    25    24    1
    26    26    12    2
    27    27    13    2
    28    28    26    1
    29    29    11   ar
    30    30    28   ar
    31    31    30    1
    32    32    29   ar
    33    33    32    1
    34    34    30   ar
    35    35    34    1
    36    36    32   ar
    37    37    36    1
    38    38    34   ar
    39    39    38    1
    40    40    36   ar
    41    41    40    1
    42    42    10   ar
    43    43    11   ar
    44    44    16    2
    45    45    17    2
    46    46    44    1
    47    47    46    1
    48    48    45    1
    49    49    48    1
    50    50    18    1
    51    51    19    1
    52    52    14    1
    53    53    15    1
    54    54    52   ar
    55    55    53   ar
    56    56    54   ar
    57    57    56    1
    58    58    55   ar
    59    59    58    1
    60    60    56   ar
    61    61    60    1
    62    62    58   ar
    63    63    62    1
    64    64    60   ar
    65    65    64    1
    66    66    62   ar
    67    67    66    1
    68    68    52   ar
    69    69    53   ar
    70    70    18    1
    71    71    19    1
    72    72    70   ar
    73    73    71   ar
    74    74    72   ar
    75    75    74    1
    76    76    73   ar
    77    77    76    1
    78    78    74   ar
    79    79    78    1
    80    80    51    1
    81    81    76   ar
    82    82    81    1
    83    83    78   ar
    84    84    83    1
    85    85    81   ar
    86    86    85    1
    87    87    70   ar
    88    88    71   ar
    89    89    20    1
    90    90    21    1
    91    91    89    1
    92    92    91    1
    93    93    91    1
    94    94    91    1
    95    95    90    1
    96    96    95    1
    97    97    95    1
    98    98    95    1
    99    99    89    1
   100   100    99    1
   101   101    99    1
   102   102    99    1
   103   103    90    1
   104   104   103    1
   105   105   103    1
   106   106   103    1
   107   107    89    1
   108   108   107    1
   109   109   107    1
   110   110   107    1
   111   111    90    1
   112   112   111    1
   113   113   111    1
   114   114   111    1
   115   115    50    1
   116   116    80    1
   117   117   116    1
   118   118   116    1
   119   119   116    1
   120   120   115    1
   121   121   120    1
   122   122   120    1
   123   123   120    1
   124   124    80    1
   125   125   124    1
   126   126   124    1
   127   127   124    1
   128   128   115    1
   129   129   128    1
   130   130   128    1
   131   131   128    1
   132   132    80    1
   133   133   132    1
   134   134   132    1
   135   135   132    1
   136   136   115    1
   137   137   136    1
   138   138   136    1
   139   139   136    1
   140    22    26    1
   141    24    27    1
   142    27    29    1
   143    38    42   ar
   144    40    43   ar
   145    42    44    1
   146    43    45    1
   147    46    50    2
   148    48    51    2
   149    64    68   ar
   150    66    69   ar
   151    83    87   ar
   152    85    88   ar
   153   140   144    1
   154   141   144    1
   155   142   144    1
   156   143   144    1
   157   145   149    1
   158   146   149    1
   159   147   149    1
   160   148   149    1
   161   150   151    1
   162   152   150    1
@<TRIPOS>SUBSTRUCTURE
     1 RES1        1 GROUP             0 ****  ****    0  
     2 RES2      140 GROUP             0 ****  ****    0  
     3 RES3      145 GROUP             0 ****  ****    0  
     4 RES4      150 GROUP             0 ****  ****    0  
@<TRIPOS>CRYSIN
   16.9032   21.2547   17.4043   90.0000   91.0330   90.0000   231     1
