@<TRIPOS>MOLECULE
RUZXUF
    79    86     3     0     0
SMALL
NO_CHARGES
****
Generated from the CSD

@<TRIPOS>ATOM
     1 O1       5.6206   3.0018  12.5414   O.3       1 RES1   0.0000
     2 O2       3.7215   2.1495  10.3803   O.3       2 RES2   0.0000
     3 H1       0.0000   0.0000  10.4737   H         3 RES3   0.0000
     4 Fe1      0.0000   0.0000  15.5697   Fe        3 RES3   0.0000
     5 S1       1.6460   1.2899  14.2807   S.2       3 RES3   0.0000
     6 B1       0.0000   0.0000  11.4858   B         3 RES3   0.0000
     7 N1       1.4733  -0.1895  11.9357   N.am      3 RES3   0.0000
     8 C1       2.1783   0.2682  12.9914   C.2       3 RES3   0.0000
     9 N2       3.4327  -0.2024  12.8948   N.am      3 RES3   0.0000
    10 C2       2.3249  -0.9735  11.1759   C.2       3 RES3   0.0000
    11 H2       2.0904  -1.4261  10.3741   H         3 RES3   0.0000
    12 C3       3.5354  -0.9890  11.7567   C.2       3 RES3   0.0000
    13 H3       4.3081  -1.4480  11.4500   H         3 RES3   0.0000
    14 C4       4.5166   0.0709  13.8150   C.3       3 RES3   0.0000
    15 H4       4.6305   1.0393  13.9084   H         3 RES3   0.0000
    16 H5       5.3452  -0.3224  13.4693   H         3 RES3   0.0000
    17 H6       4.3089  -0.3198  14.6885   H         3 RES3   0.0000
    18 S1A     -1.9401   0.7805  14.2807   S.2       3 RES3   0.0000
    19 C1A     -1.3214   1.7523  12.9914   C.2       3 RES3   0.0000
    20 N1A     -0.5725   1.3707  11.9357   N.am      3 RES3   0.0000
    21 N1B     -0.9008  -1.1811  11.9357   N.am      3 RES3   0.0000
    22 C1B     -0.8569  -2.0205  12.9914   C.2       3 RES3   0.0000
    23 S1B      0.2941  -2.0704  14.2807   S.2       3 RES3   0.0000
    24 S1I     -1.6460  -1.2899  16.8587   S.2       3 RES3   0.0000
    25 C1I     -2.1783  -0.2682  18.1480   C.2       3 RES3   0.0000
    26 N1I     -1.4733   0.1895  19.2037   N.am      3 RES3   0.0000
    27 B1I      0.0000   0.0000  19.6536   B         3 RES3   0.0000
    28 H1I      0.0000   0.0000  20.6657   H         3 RES3   0.0000
    29 N1J      0.5725  -1.3707  19.2037   N.am      3 RES3   0.0000
    30 C1J      1.3214  -1.7523  18.1480   C.2       3 RES3   0.0000
    31 S1J      1.9401  -0.7805  16.8587   S.2       3 RES3   0.0000
    32 S1K     -0.2941   2.0704  16.8587   S.2       3 RES3   0.0000
    33 C1K      0.8569   2.0205  18.1480   C.2       3 RES3   0.0000
    34 N1K      0.9008   1.1811  19.2037   N.am      3 RES3   0.0000
    35 C2K      2.0055   1.5267  19.9635   C.2       3 RES3   0.0000
    36 H2K      2.2803   1.0973  20.7653   H         3 RES3   0.0000
    37 C3K      2.6242   2.5672  19.3827   C.2       3 RES3   0.0000
    38 N2K      1.8916   2.8715  18.2446   N.am      3 RES3   0.0000
    39 C4K      2.1969   3.9469  17.3244   C.3       3 RES3   0.0000
    40 H4K      1.4152   4.5298  17.2310   H         3 RES3   0.0000
    41 H5K      2.9517   4.4679  17.6701   H         3 RES3   0.0000
    42 H6K      2.4314   3.5717  16.4509   H         3 RES3   0.0000
    43 H3K      3.4081   3.0069  19.6894   H         3 RES3   0.0000
    44 N2J      1.5410  -3.0740  18.2446   N.am      3 RES3   0.0000
    45 C3J      0.9112  -3.5562  19.3827   C.2       3 RES3   0.0000
    46 C2J      0.3194  -2.5002  19.9635   C.2       3 RES3   0.0000
    47 H2J     -0.1898  -2.5234  20.7653   H         3 RES3   0.0000
    48 H3J      0.9000  -4.4550  19.6894   H         3 RES3   0.0000
    49 C4J      2.3197  -3.8760  17.3244   C.3       3 RES3   0.0000
    50 H4J      3.2153  -3.4905  17.2310   H         3 RES3   0.0000
    51 H5J      2.3934  -4.7902  17.6701   H         3 RES3   0.0000
    52 H6J      1.8775  -3.8915  16.4509   H         3 RES3   0.0000
    53 C2I     -2.3249   0.9735  19.9635   C.2       3 RES3   0.0000
    54 H2I     -2.0904   1.4261  20.7653   H         3 RES3   0.0000
    55 C3I     -3.5354   0.9890  19.3827   C.2       3 RES3   0.0000
    56 N2I     -3.4327   0.2024  18.2446   N.am      3 RES3   0.0000
    57 C4I     -4.5166  -0.0709  17.3244   C.3       3 RES3   0.0000
    58 H4I     -4.6305  -1.0393  17.2310   H         3 RES3   0.0000
    59 H5I     -5.3452   0.3224  17.6701   H         3 RES3   0.0000
    60 H6I     -4.3089   0.3198  16.4509   H         3 RES3   0.0000
    61 H3I     -4.3081   1.4480  19.6894   H         3 RES3   0.0000
    62 N2B     -1.8916  -2.8715  12.8948   N.am      3 RES3   0.0000
    63 C3B     -2.6242  -2.5672  11.7567   C.2       3 RES3   0.0000
    64 C2B     -2.0055  -1.5267  11.1759   C.2       3 RES3   0.0000
    65 H2B     -2.2803  -1.0973  10.3741   H         3 RES3   0.0000
    66 H3B     -3.4081  -3.0069  11.4500   H         3 RES3   0.0000
    67 C4B     -2.1969  -3.9469  13.8150   C.3       3 RES3   0.0000
    68 H4B     -1.4152  -4.5298  13.9084   H         3 RES3   0.0000
    69 H5B     -2.9517  -4.4679  13.4693   H         3 RES3   0.0000
    70 H6B     -2.4314  -3.5717  14.6885   H         3 RES3   0.0000
    71 C2A     -0.3194   2.5002  11.1759   C.2       3 RES3   0.0000
    72 H2A      0.1898   2.5234  10.3741   H         3 RES3   0.0000
    73 C3A     -0.9112   3.5562  11.7567   C.2       3 RES3   0.0000
    74 N2A     -1.5410   3.0740  12.8948   N.am      3 RES3   0.0000
    75 C4A     -2.3197   3.8760  13.8150   C.3       3 RES3   0.0000
    76 H4A     -3.2153   3.4905  13.9084   H         3 RES3   0.0000
    77 H5A     -2.3934   4.7902  13.4693   H         3 RES3   0.0000
    78 H6A     -1.8775   3.8915  14.6885   H         3 RES3   0.0000
    79 H3A     -0.9000   4.4550  11.4500   H         3 RES3   0.0000
@<TRIPOS>BOND
     1     3     6    1
     2     4     5    1
     3     5     8    2
     4     6     7    1
     5     7     8   am
     6     8     9   am
     7     9    12    1
     8    10     7    1
     9    11    10    1
    10    12    10    2
    11    13    12    1
    12    14     9    1
    13    15    14    1
    14    16    14    1
    15    17    14    1
    16    18     4    1
    17    19    18    2
    18    20     6    1
    19    21     6    1
    20    22    21   am
    21    23     4    1
    22    24     4    1
    23    25    24    2
    24    26    25   am
    25    27    26    1
    26    28    27    1
    27    29    27    1
    28    30    29   am
    29    31     4    1
    30    32     4    1
    31    33    32    2
    32    34    27    1
    33    35    34    1
    34    36    35    1
    35    37    35    2
    36    38    33   am
    37    39    38    1
    38    40    39    1
    39    41    39    1
    40    42    39    1
    41    43    37    1
    42    44    30   am
    43    45    44    1
    44    46    29    1
    45    47    46    1
    46    48    45    1
    47    49    44    1
    48    50    49    1
    49    51    49    1
    50    52    49    1
    51    53    26    1
    52    54    53    1
    53    55    53    2
    54    56    25   am
    55    57    56    1
    56    58    57    1
    57    59    57    1
    58    60    57    1
    59    61    55    1
    60    62    22   am
    61    63    62    1
    62    64    21    1
    63    65    64    1
    64    66    63    1
    65    67    62    1
    66    68    67    1
    67    69    67    1
    68    70    67    1
    69    71    20    1
    70    72    71    1
    71    73    71    2
    72    74    19   am
    73    75    74    1
    74    76    75    1
    75    77    75    1
    76    78    75    1
    77    79    73    1
    78    19    20   am
    79    22    23    2
    80    30    31    2
    81    33    34   am
    82    37    38    1
    83    45    46    2
    84    55    56    1
    85    63    64    2
    86    73    74    1
@<TRIPOS>SUBSTRUCTURE
     1 RES1        1 GROUP             0 ****  ****    0  
     2 RES2        2 GROUP             0 ****  ****    0  
     3 RES3        3 GROUP             0 ****  ****    0  
@<TRIPOS>CRYSIN
   14.8890   14.8890   15.5697   90.0000   90.0000  120.0000   233     1
