@<TRIPOS>MOLECULE
SADQUN
    96   102     2     0     0
SMALL
NO_CHARGES
****
Generated from the CSD

@<TRIPOS>ATOM
     1 I1      -5.4899  -5.9591   0.8819   I         1 RES1   0.0000
     2 Fe1     -4.9780  -3.5183  -0.0932   Fe        1 RES1   0.0000
     3 P1      -9.4875  -3.8953  -5.6725   P.3       1 RES1   0.0000
     4 P2      -4.3309  -1.5104  -0.8796   P.3       1 RES1   0.0000
     5 O1      -3.8195  -2.9376   2.5051   O.2       1 RES1   0.0000
     6 O2      -6.9934  -2.6016   1.7119   O.2       1 RES1   0.0000
     7 O3      -3.5218  -4.4395  -1.4807   O.3       1 RES1   0.0000
     8 O4      -8.2284  -4.6879  -5.1095   O.3       1 RES1   0.0000
     9 O5     -10.6029  -5.0001  -5.6776   O.3       1 RES1   0.0000
    10 O6      -9.1721  -3.8481  -7.2065   O.3       1 RES1   0.0000
    11 O7      -9.7911  -2.6390  -5.0144   O.2       1 RES1   0.0000
    12 N1      -6.0254  -3.9837  -1.6989   N.ar      1 RES1   0.0000
    13 C1      -4.2172  -3.1866   1.4481   C.1       1 RES1   0.0000
    14 C2      -6.6386  -2.8838   0.5738   C.2       1 RES1   0.0000
    15 C3      -7.6864  -2.7710  -0.5328   C.3       1 RES1   0.0000
    16 H1      -8.5319  -3.1145  -0.2061   H         1 RES1   0.0000
    17 H2      -7.8108  -1.8364  -0.7589   H         1 RES1   0.0000
    18 C4      -7.2934  -3.5243  -1.7626   C.ar      1 RES1   0.0000
    19 C5      -8.0780  -3.7381  -2.8678   C.ar      1 RES1   0.0000
    20 H3      -8.9476  -3.4093  -2.9063   H         1 RES1   0.0000
    21 C6      -7.5431  -4.4578  -3.9248   C.ar      1 RES1   0.0000
    22 C7      -6.2632  -4.9791  -3.8483   C.ar      1 RES1   0.0000
    23 H4      -5.9106  -5.4904  -4.5409   H         1 RES1   0.0000
    24 C8      -5.5322  -4.7164  -2.7148   C.ar      1 RES1   0.0000
    25 C9      -4.1407  -5.2417  -2.4938   C.3       1 RES1   0.0000
    26 H5      -4.1746  -6.1681  -2.2113   H         1 RES1   0.0000
    27 H6      -3.6307  -5.1895  -3.3174   H         1 RES1   0.0000
    28 C10     -2.2674  -4.9943  -1.0839   C.3       1 RES1   0.0000
    29 H7      -2.4104  -5.8528  -0.6783   H         1 RES1   0.0000
    30 H8      -1.8431  -4.4089  -0.4523   H         1 RES1   0.0000
    31 H9      -1.7034  -5.0953  -1.8548   H         1 RES1   0.0000
    32 C11    -11.8218  -4.8413  -4.9549   C.ar      1 RES1   0.0000
    33 C12    -12.0593  -5.7196  -3.9078   C.ar      1 RES1   0.0000
    34 H10    -11.4440  -6.3748  -3.6680   H         1 RES1   0.0000
    35 C13    -13.2826  -5.5666  -3.2277   C.ar      1 RES1   0.0000
    36 H11    -13.4938  -6.1365  -2.5242   H         1 RES1   0.0000
    37 C14    -14.1581  -4.5881  -3.5947   C.ar      1 RES1   0.0000
    38 H12    -14.9502  -4.4817  -3.1184   H         1 RES1   0.0000
    39 C15    -13.8938  -3.7721  -4.6390   C.ar      1 RES1   0.0000
    40 H13    -14.5190  -3.1326  -4.8931   H         1 RES1   0.0000
    41 C16    -12.7003  -3.8779  -5.3375   C.ar      1 RES1   0.0000
    42 H14    -12.5058  -3.3073  -6.0460   H         1 RES1   0.0000
    43 C17     -8.2197  -2.9127  -7.6797   C.ar      1 RES1   0.0000
    44 C18     -8.6151  -1.5961  -7.8624   C.ar      1 RES1   0.0000
    45 H15     -9.4785  -1.3264  -7.6439   H         1 RES1   0.0000
    46 C19     -7.7066  -0.6989  -8.3725   C.ar      1 RES1   0.0000
    47 H16     -7.9516   0.1848  -8.5252   H         1 RES1   0.0000
    48 C20     -6.3939  -1.1352  -8.6644   C.ar      1 RES1   0.0000
    49 H17     -5.7656  -0.5291  -8.9828   H         1 RES1   0.0000
    50 C21     -6.0426  -2.4423  -8.4802   C.ar      1 RES1   0.0000
    51 H18     -5.1877  -2.7294  -8.7052   H         1 RES1   0.0000
    52 C22     -6.9567  -3.3377  -7.9602   C.ar      1 RES1   0.0000
    53 H19     -6.7129  -4.2219  -7.8021   H         1 RES1   0.0000
    54 C23     -4.3794  -0.0283   0.1984   C.ar      1 RES1   0.0000
    55 C24     -5.0738  -0.0206   1.4141   C.ar      1 RES1   0.0000
    56 H20     -5.5736  -0.7623   1.6699   H         1 RES1   0.0000
    57 C25     -5.0172   1.1050   2.2430   C.ar      1 RES1   0.0000
    58 H21     -5.4900   1.1177   3.0438   H         1 RES1   0.0000
    59 C26     -4.2619   2.1930   1.8760   C.ar      1 RES1   0.0000
    60 H22     -4.1959   2.9256   2.4441   H         1 RES1   0.0000
    61 C27     -3.5987   2.2006   0.6645   C.ar      1 RES1   0.0000
    62 H23     -3.1121   2.9507   0.4092   H         1 RES1   0.0000
    63 C28     -3.6516   1.1050  -0.1658   C.ar      1 RES1   0.0000
    64 H24     -3.1990   1.1213  -0.9778   H         1 RES1   0.0000
    65 C29     -5.2163  -0.9713  -2.3832   C.ar      1 RES1   0.0000
    66 C30     -6.1509   0.0774  -2.3365   C.ar      1 RES1   0.0000
    67 H25     -6.2449   0.5799  -1.5600   H         1 RES1   0.0000
    68 C31     -6.9347   0.3664  -3.4473   C.ar      1 RES1   0.0000
    69 H26     -7.5602   1.0528  -3.4033   H         1 RES1   0.0000
    70 C32     -6.7963  -0.3551  -4.6163   C.ar      1 RES1   0.0000
    71 H27     -7.3182  -0.1480  -5.3564   H         1 RES1   0.0000
    72 C33     -5.8747  -1.3940  -4.6843   C.ar      1 RES1   0.0000
    73 H28     -5.7756  -1.8804  -5.4702   H         1 RES1   0.0000
    74 C34     -5.1023  -1.7000  -3.5720   C.ar      1 RES1   0.0000
    75 H29     -4.4974  -2.4045  -3.6187   H         1 RES1   0.0000
    76 C35     -2.5360  -1.5024  -1.3036   C.ar      1 RES1   0.0000
    77 C36     -1.6371  -1.7019  -0.2579   C.ar      1 RES1   0.0000
    78 H30     -1.9534  -1.8458   0.6047   H         1 RES1   0.0000
    79 C37     -0.2696  -1.6868  -0.5016   C.ar      1 RES1   0.0000
    80 H31      0.3254  -1.8262   0.2000   H         1 RES1   0.0000
    81 C38      0.2058  -1.4715  -1.7584   C.ar      1 RES1   0.0000
    82 H32      1.1220  -1.4597  -1.9169   H         1 RES1   0.0000
    83 C39     -0.6658  -1.2750  -2.7800   C.ar      1 RES1   0.0000
    84 H33     -0.3362  -1.1343  -3.6374   H         1 RES1   0.0000
    85 C40     -2.0340  -1.2788  -2.5759   C.ar      1 RES1   0.0000
    86 H34     -2.6141  -1.1333  -3.2878   H         1 RES1   0.0000
    87 O8      -2.6846  -1.6660   6.3421   O.2       2 RES2   0.0000
    88 C41     -2.4245  -0.2323   4.5001   C.3       2 RES2   0.0000
    89 H35     -2.6746  -0.5617   3.6340   H         2 RES2   0.0000
    90 H36     -1.4895  -0.3964   4.6467   H         2 RES2   0.0000
    91 H37     -2.5928   0.7125   4.5435   H         2 RES2   0.0000
    92 C42     -3.2195  -0.9256   5.5444   C.2       2 RES2   0.0000
    93 C43     -4.6905  -0.7140   5.5217   C.3       2 RES2   0.0000
    94 H38     -5.0822  -1.0976   6.3096   H         2 RES2   0.0000
    95 H39     -5.0628  -1.1329   4.7425   H         2 RES2   0.0000
    96 H40     -4.8775   0.2281   5.4982   H         2 RES2   0.0000
@<TRIPOS>BOND
     1     1     2    1
     2     2     4    1
     3     3     8    1
     4     4    54    1
     5     5    13    3
     6     6    14    2
     7     7     2    1
     8     8    21    1
     9     9     3    1
    10    10     3    1
    11    11     3    2
    12    12     2    1
    13    13     2    1
    14    14     2    1
    15    15    14    1
    16    16    15    1
    17    17    15    1
    18    18    12   ar
    19    19    18   ar
    20    20    19    1
    21    21    19   ar
    22    22    21   ar
    23    23    22    1
    24    24    12   ar
    25    25     7    1
    26    26    25    1
    27    27    25    1
    28    28     7    1
    29    29    28    1
    30    30    28    1
    31    31    28    1
    32    32     9    1
    33    33    32   ar
    34    34    33    1
    35    35    33   ar
    36    36    35    1
    37    37    35   ar
    38    38    37    1
    39    39    37   ar
    40    40    39    1
    41    41    32   ar
    42    42    41    1
    43    43    10    1
    44    44    43   ar
    45    45    44    1
    46    46    44   ar
    47    47    46    1
    48    48    46   ar
    49    49    48    1
    50    50    48   ar
    51    51    50    1
    52    52    43   ar
    53    53    52    1
    54    54    55   ar
    55    55    56    1
    56    57    55   ar
    57    58    57    1
    58    59    57   ar
    59    60    59    1
    60    61    59   ar
    61    62    61    1
    62    63    54   ar
    63    64    63    1
    64    65     4    1
    65    66    65   ar
    66    67    66    1
    67    68    66   ar
    68    69    68    1
    69    70    68   ar
    70    71    70    1
    71    72    70   ar
    72    73    72    1
    73    74    65   ar
    74    75    74    1
    75    76     4    1
    76    77    76   ar
    77    78    77    1
    78    79    77   ar
    79    80    79    1
    80    81    79   ar
    81    82    81    1
    82    83    81   ar
    83    84    83    1
    84    85    76   ar
    85    86    85    1
    86    15    18    1
    87    22    24   ar
    88    24    25    1
    89    39    41   ar
    90    50    52   ar
    91    61    63   ar
    92    72    74   ar
    93    83    85   ar
    94    87    92    2
    95    88    89    1
    96    90    88    1
    97    91    88    1
    98    92    88    1
    99    93    92    1
   100    94    93    1
   101    95    93    1
   102    96    93    1
@<TRIPOS>SUBSTRUCTURE
     1 RES1        1 GROUP             0 ****  ****    0  
     2 RES2       87 GROUP             0 ****  ****    0  
@<TRIPOS>CRYSIN
   15.5170   18.8890   15.3090   90.0000  112.2500   90.0000    14     1
