@<TRIPOS>MOLECULE
SAGFUB
    91    94     1     0     0
SMALL
NO_CHARGES
****
Generated from the CSD

@<TRIPOS>ATOM
     1 I1       7.2719  10.6598   0.1829   I         1 RES1   0.0000
     2 Fe1      9.0420   8.7120   0.0000   Fe        1 RES1   0.0000
     3 O1      13.6922  16.1120  -2.6388   O.3       1 RES1   0.0000
     4 O2      14.5224  16.2061  -0.5661   O.2       1 RES1   0.0000
     5 O3       8.0860  11.6915   8.4624   O.3       1 RES1   0.0000
     6 O4      10.1491  11.0207   8.9855   O.2       1 RES1   0.0000
     7 N1      11.1005  10.8639  -0.4306   N.1       1 RES1   0.0000
     8 N2       9.5156   9.1249   2.9433   N.1       1 RES1   0.0000
     9 C1      10.3334  10.0188  -0.2911   C.1       1 RES1   0.0000
    10 C2      11.8199  12.0330  -0.6855   C.ar      1 RES1   0.0000
    11 C3      11.6794  12.6481  -1.9050   C.ar      1 RES1   0.0000
    12 C4      12.3580  13.8033  -2.1558   C.ar      1 RES1   0.0000
    13 C5      13.1754  14.3574  -1.1993   C.ar      1 RES1   0.0000
    14 C6      13.3396  13.7301   0.0013   C.ar      1 RES1   0.0000
    15 C7      12.6537  12.5488   0.2589   C.ar      1 RES1   0.0000
    16 C8      13.8930  15.6468  -1.4086   C.2       1 RES1   0.0000
    17 C9      14.2539  17.4345  -2.9353   C.3       1 RES1   0.0000
    18 C10     13.6568  17.8997  -4.1493   C.3       1 RES1   0.0000
    19 C11      9.3300   8.9193   1.8272   C.1       1 RES1   0.0000
    20 C12      9.4665   9.6407   4.2526   C.ar      1 RES1   0.0000
    21 C13      8.4979  10.5677   4.5451   C.ar      1 RES1   0.0000
    22 C14      8.4240  11.0799   5.8276   C.ar      1 RES1   0.0000
    23 C15      9.3491  10.6774   6.7774   C.ar      1 RES1   0.0000
    24 C16     10.3319   9.7662   6.4447   C.ar      1 RES1   0.0000
    25 C17     10.4009   9.2417   5.1863   C.ar      1 RES1   0.0000
    26 C18      9.2649  11.1496   8.1900   C.2       1 RES1   0.0000
    27 C19      7.8905  12.1637   9.8240   C.3       1 RES1   0.0000
    28 C20      6.4662  12.5871   9.9528   C.3       1 RES1   0.0000
    29 H1      11.1345  12.2421  -2.6026   H         1 RES1   0.0000
    30 H2      12.2458  14.2581  -2.9997   H         1 RES1   0.0000
    31 H3      13.8849  14.1448   0.6775   H         1 RES1   0.0000
    32 H4      12.7866  12.0661   1.1041   H         1 RES1   0.0000
    33 H5      13.9824  18.0826  -2.2444   H         1 RES1   0.0000
    34 H6      15.1745  17.4397  -2.9997   H         1 RES1   0.0000
    35 H7      13.9615  18.7360  -4.4337   H         1 RES1   0.0000
    36 H8      13.8844  17.2498  -4.8684   H         1 RES1   0.0000
    37 H9      12.6959  17.8997  -4.1131   H         1 RES1   0.0000
    38 H10      7.8832  10.8517   3.8636   H         1 RES1   0.0000
    39 H11      7.7293  11.7264   6.0704   H         1 RES1   0.0000
    40 H12     10.9729   9.4839   7.1262   H         1 RES1   0.0000
    41 H13     11.0765   8.5900   4.9502   H         1 RES1   0.0000
    42 H14      8.0912  11.4336  10.4478   H         1 RES1   0.0000
    43 H15      8.4904  12.8711  10.0252   H         1 RES1   0.0000
    44 H16      6.2634  12.8833  10.8087   H         1 RES1   0.0000
    45 H17      6.2866  13.2736   9.3075   H         1 RES1   0.0000
    46 H18      5.8866  11.8361   9.7274   H         1 RES1   0.0000
    47 I1B     10.8121   6.7642  -0.1829   I         1 RES1   0.0000
    48 C1B      7.7506   7.4052   0.2911   C.1       1 RES1   0.0000
    49 N1B      6.9835   6.5601   0.4306   N.1       1 RES1   0.0000
    50 C2B      6.2641   5.3910   0.6855   C.ar      1 RES1   0.0000
    51 C3B      6.4046   4.7759   1.9050   C.ar      1 RES1   0.0000
    52 C4B      5.7260   3.6207   2.1558   C.ar      1 RES1   0.0000
    53 C5B      4.9086   3.0666   1.1993   C.ar      1 RES1   0.0000
    54 C6B      4.7444   3.6939  -0.0013   C.ar      1 RES1   0.0000
    55 C7B      5.4303   4.8752  -0.2589   C.ar      1 RES1   0.0000
    56 H4B      5.2974   5.3579  -1.1041   H         1 RES1   0.0000
    57 H3B      4.1991   3.2792  -0.6775   H         1 RES1   0.0000
    58 C8B      4.1910   1.7772   1.4086   C.2       1 RES1   0.0000
    59 O1B      4.3918   1.3120   2.6388   O.3       1 RES1   0.0000
    60 C9B      3.8301  -0.0105   2.9353   C.3       1 RES1   0.0000
    61 C10B     4.4272  -0.4757   4.1493   C.3       1 RES1   0.0000
    62 H7B      4.1225  -1.3120   4.4337   H         1 RES1   0.0000
    63 H8B      4.1996   0.1742   4.8684   H         1 RES1   0.0000
    64 H9B      5.3881  -0.4757   4.1131   H         1 RES1   0.0000
    65 H5B      4.1016  -0.6586   2.2444   H         1 RES1   0.0000
    66 H6B      2.9095  -0.0157   2.9997   H         1 RES1   0.0000
    67 O2B      3.5616   1.2179   0.5661   O.2       1 RES1   0.0000
    68 H2B      5.8382   3.1659   2.9997   H         1 RES1   0.0000
    69 H1B      6.9495   5.1819   2.6026   H         1 RES1   0.0000
    70 C11B     8.7540   8.5047  -1.8272   C.1       1 RES1   0.0000
    71 N2B      8.5684   8.2991  -2.9433   N.1       1 RES1   0.0000
    72 C12B     8.6175   7.7833  -4.2526   C.ar      1 RES1   0.0000
    73 C13B     9.5861   6.8563  -4.5451   C.ar      1 RES1   0.0000
    74 C14B     9.6600   6.3441  -5.8276   C.ar      1 RES1   0.0000
    75 C15B     8.7349   6.7466  -6.7774   C.ar      1 RES1   0.0000
    76 C16B     7.7521   7.6578  -6.4447   C.ar      1 RES1   0.0000
    77 C17B     7.6831   8.1823  -5.1863   C.ar      1 RES1   0.0000
    78 H13B     7.0075   8.8340  -4.9502   H         1 RES1   0.0000
    79 H12B     7.1111   7.9401  -7.1262   H         1 RES1   0.0000
    80 C18B     8.8191   6.2744  -8.1900   C.2       1 RES1   0.0000
    81 O3B      9.9980   5.7325  -8.4624   O.3       1 RES1   0.0000
    82 C19B    10.1935   5.2603  -9.8240   C.3       1 RES1   0.0000
    83 C20B    11.6178   4.8369  -9.9528   C.3       1 RES1   0.0000
    84 H16B    11.8206   4.5407 -10.8087   H         1 RES1   0.0000
    85 H17B    11.7974   4.1504  -9.3075   H         1 RES1   0.0000
    86 H18B    12.1974   5.5879  -9.7274   H         1 RES1   0.0000
    87 H14B     9.9928   5.9904 -10.4478   H         1 RES1   0.0000
    88 H15B     9.5936   4.5529 -10.0252   H         1 RES1   0.0000
    89 O4B      7.9349   6.4033  -8.9855   O.2       1 RES1   0.0000
    90 H11B    10.3547   5.6976  -6.0704   H         1 RES1   0.0000
    91 H10B    10.2008   6.5723  -3.8636   H         1 RES1   0.0000
@<TRIPOS>BOND
     1     1     2    1
     2     2     9    1
     3     3    16    1
     4     4    16    2
     5     5    26    1
     6     6    26    2
     7     7     9    3
     8     8    19    3
     9    10     7    1
    10    11    10   ar
    11    12    11   ar
    12    13    12   ar
    13    14    13   ar
    14    15    10   ar
    15    16    13    1
    16    17     3    1
    17    18    17    1
    18    19     2    1
    19    20     8    1
    20    21    20   ar
    21    22    21   ar
    22    23    22   ar
    23    24    23   ar
    24    25    20   ar
    25    26    23    1
    26    27     5    1
    27    28    27    1
    28    29    11    1
    29    30    12    1
    30    31    14    1
    31    32    15    1
    32    33    17    1
    33    34    17    1
    34    35    18    1
    35    36    18    1
    36    37    18    1
    37    38    21    1
    38    39    22    1
    39    40    24    1
    40    41    25    1
    41    42    27    1
    42    43    27    1
    43    44    28    1
    44    45    28    1
    45    46    28    1
    46    47     2    1
    47    48     2    1
    48    49    48    3
    49    50    49    1
    50    51    50   ar
    51    52    51   ar
    52    53    52   ar
    53    54    53   ar
    54    55    50   ar
    55    56    55    1
    56    57    54    1
    57    58    53    1
    58    59    58    1
    59    60    59    1
    60    61    60    1
    61    62    61    1
    62    63    61    1
    63    64    61    1
    64    65    60    1
    65    66    60    1
    66    67    58    2
    67    68    52    1
    68    69    51    1
    69    70     2    1
    70    71    70    3
    71    72    71    1
    72    73    72   ar
    73    74    73   ar
    74    75    74   ar
    75    76    75   ar
    76    77    72   ar
    77    78    77    1
    78    79    76    1
    79    80    75    1
    80    81    80    1
    81    82    81    1
    82    83    82    1
    83    84    83    1
    84    85    83    1
    85    86    83    1
    86    87    82    1
    87    88    82    1
    88    89    80    2
    89    90    74    1
    90    91    73    1
    91    14    15   ar
    92    24    25   ar
    93    54    55   ar
    94    76    77   ar
@<TRIPOS>SUBSTRUCTURE
     1 RES1        1 GROUP             0 ****  ****    0  
@<TRIPOS>CRYSIN
    9.0420   17.4240   13.4170   90.0000   90.9200   90.0000    14     1
