@<TRIPOS>MOLECULE
SAJFAL
    94   102     4     0     0
SMALL
USER_CHARGES
****
Generated from the CSD

@<TRIPOS>ATOM
     1 Fe1     22.2613  13.1306   5.8559   Fe        1 RES1   0.0000
     2 O1      23.4875  11.7134   5.1614   O.3       1 RES1   0.0000
     3 O2      20.8630  14.5009   6.1065   O.3       1 RES1   0.0000
     4 N1      21.4855  13.0310   3.8930   N.2       1 RES1   0.0000
     5 N2      19.9623  12.9425   2.2814   N.2       1 RES1   0.0000
     6 N3      21.1427  12.4076   1.8294   N.pl3     1 RES1   0.0000
     7 C1      24.1405  11.7718   3.9914   C.ar      1 RES1   0.0000
     8 C2      24.1810  12.0942   1.5530   C.ar      1 RES1   0.0000
     9 H1      23.7299  12.2837   0.7613   H         1 RES1   0.0000
    10 C3      23.4759  12.1110   2.7663   C.ar      1 RES1   0.0000
    11 C4      19.2147  13.8855   4.4411   C.ar      1 RES1   0.0000
    12 C5      22.0594  12.5006   2.8178   C.2       1 RES1   0.0000
    13 C6      25.5003  11.4681   3.9211   C.ar      1 RES1   0.0000
    14 H2      25.9559  11.2379   4.6987   H         1 RES1   0.0000
    15 C7      21.0487  11.5009   0.6465   C.ar      1 RES1   0.0000
    16 C8      19.5797  14.4230   5.6896   C.ar      1 RES1   0.0000
    17 C9      17.8455  13.8333   4.0663   C.ar      1 RES1   0.0000
    18 H3      17.5965  13.4729   3.2465   H         1 RES1   0.0000
    19 C10     20.2147  13.3268   3.5276   C.2       1 RES1   0.0000
    20 C11     18.5714  14.9171   6.5234   C.ar      1 RES1   0.0000
    21 H4      18.7955  15.2890   7.3456   H         1 RES1   0.0000
    22 C12     20.5556  11.2990  -1.6560   C.ar      1 RES1   0.0000
    23 H5      20.1551  11.6532  -2.4173   H         1 RES1   0.0000
    24 C13     26.1816  11.5009   2.7218   C.ar      1 RES1   0.0000
    25 H6      27.0944  11.3202   2.7054   H         1 RES1   0.0000
    26 C14     16.8863  14.3247   4.9353   C.ar      1 RES1   0.0000
    27 H7      15.9877  14.2920   4.6964   H         1 RES1   0.0000
    28 C15     25.5011  11.8090   1.5085   C.ar      1 RES1   0.0000
    29 H8      25.9588  11.8143   0.6980   H         1 RES1   0.0000
    30 C16     21.5010   9.5811  -0.5387   C.ar      1 RES1   0.0000
    31 H9      21.8369   8.7133  -0.5551   H         1 RES1   0.0000
    32 C17     17.2505  14.8613   6.1487   C.ar      1 RES1   0.0000
    33 H10     16.5967  15.1899   6.7202   H         1 RES1   0.0000
    34 C18     21.0715  10.1301  -1.7216   C.ar      1 RES1   0.0000
    35 H11     21.1494   9.6750  -2.5297   H         1 RES1   0.0000
    36 C19     20.5654  12.0782  -0.4966   C.ar      1 RES1   0.0000
    37 H12     20.2555  12.9540  -0.5013   H         1 RES1   0.0000
    38 C20     21.4663  10.2080   0.6090   C.ar      1 RES1   0.0000
    39 H13     21.7224   9.7733   1.3914   H         1 RES1   0.0000
    40 O1E     21.0350  11.7134   6.5504   O.3       1 RES1  -1.0000
    41 C1E     20.3820  11.7718   7.7204   C.ar      1 RES1   0.0000
    42 C3E     21.0466  12.1110   8.9454   C.ar      1 RES1   0.0000
    43 C2E     20.3416  12.0942  10.1588   C.ar      1 RES1   0.0000
    44 H1E     20.7927  12.2837  10.9505   H         1 RES1   0.0000
    45 C15E    19.0214  11.8090  10.2033   C.ar      1 RES1   0.0000
    46 C13E    18.3410  11.5009   8.9899   C.ar      1 RES1   0.0000
    47 C6E     19.0222  11.4681   7.7906   C.ar      1 RES1   0.0000
    48 H2E     18.5666  11.2379   7.0130   H         1 RES1   0.0000
    49 H6E     17.4281  11.3202   9.0063   H         1 RES1   0.0000
    50 H8E     18.5638  11.8143  11.0137   H         1 RES1   0.0000
    51 C5E     22.4631  12.5006   8.8939   C.2       1 RES1   0.0000
    52 N1E     23.0370  13.0310   7.8188   N.2       1 RES1   0.0000
    53 O2E     23.6595  14.5009   5.6052   O.3       1 RES1   0.0000
    54 C8E     24.9428  14.4230   6.0222   C.ar      1 RES1   0.0000
    55 C4E     25.3079  13.8855   7.2706   C.ar      1 RES1   0.0000
    56 C9E     26.6771  13.8333   7.6454   C.ar      1 RES1   0.0000
    57 H3E     26.9260  13.4729   8.4652   H         1 RES1   0.0000
    58 C14E    27.6363  14.3247   6.7764   C.ar      1 RES1   0.0000
    59 H7E     28.5349  14.2920   7.0153   H         1 RES1   0.0000
    60 C17E    27.2720  14.8613   5.5631   C.ar      1 RES1   0.0000
    61 C11E    25.9511  14.9171   5.1883   C.ar      1 RES1   0.0000
    62 H4E     25.7270  15.2890   4.3661   H         1 RES1   0.0000
    63 H10E    27.9259  15.1899   4.9915   H         1 RES1   0.0000
    64 C10E    24.3078  13.3268   8.1842   C.2       1 RES1   0.0000
    65 N2E     24.5602  12.9425   9.4303   N.2       1 RES1   0.0000
    66 N3E     23.3798  12.4076   9.8824   N.pl3     1 RES1   0.0000
    67 C7E     23.4738  11.5009  11.0652   C.ar      1 RES1   0.0000
    68 C19E    23.9571  12.0782  12.2083   C.ar      1 RES1   0.0000
    69 C12E    23.9669  11.2990  13.3678   C.ar      1 RES1   0.0000
    70 H5E     24.3674  11.6532  14.1290   H         1 RES1   0.0000
    71 C18E    23.4511  10.1301  13.4334   C.ar      1 RES1   0.0000
    72 C16E    23.0215   9.5811  12.2505   C.ar      1 RES1   0.0000
    73 H9E     22.6856   8.7133  12.2669   H         1 RES1   0.0000
    74 C20E    23.0563  10.2080  11.1027   C.ar      1 RES1   0.0000
    75 H13E    22.8001   9.7733  10.3204   H         1 RES1   0.0000
    76 H11E    23.3731   9.6750  14.2415   H         1 RES1   0.0000
    77 H12E    24.2670  12.9540  12.2130   H         1 RES1   0.0000
    78 Na1     18.5078   8.0350  17.5676   Na        2 RES2   1.0000
    79 O3      19.3136   9.6732  16.1528   O.3       3 RES3   0.0000
    80 C21     19.5548  10.4932  13.9393   C.3       3 RES3   0.0000
    81 H14     19.9744  10.2275  13.1195   H         3 RES3   0.0000
    82 H15     19.9194  11.3362  14.2251   H         3 RES3   0.0000
    83 H16     18.6094  10.5870  13.8011   H         3 RES3   0.0000
    84 C22     19.7739   9.5900  14.8598   C.3       3 RES3   0.0000
    85 H17     20.7368   9.4881  14.9207   H         3 RES3   0.0000
    86 H18     19.4366   8.7505  14.5038   H         3 RES3   0.0000
    87 O4      28.8630  12.1375  16.0310   O.3       4 RES4   0.0000
    88 C23     27.7984  13.1143  16.0240   C.3       4 RES4   0.0000
    89 H19     27.5610  13.3657  16.9305   H         4 RES4   0.0000
    90 H20     28.0689  13.9121  15.5415   H         4 RES4   0.0000
    91 C24     26.9093  12.6095  15.4993   C.3       4 RES4   0.0000
    92 H21     26.1328  13.1700  15.5649   H         4 RES4   0.0000
    93 H22     26.7283  11.7630  15.9209   H         4 RES4   0.0000
    94 H23     27.1214  12.4652  14.5741   H         4 RES4   0.0000
@<TRIPOS>BOND
     1     1     2    1
     2     2     7    1
     3     3     1    1
     4     4     1    1
     5     5     6    1
     6     6    12    1
     7     7    10   ar
     8     8     9    1
     9    10     8   ar
    10    11    16   ar
    11    12     4    2
    12    13     7   ar
    13    14    13    1
    14    15     6    1
    15    16     3    1
    16    17    11   ar
    17    18    17    1
    18    19     4    1
    19    20    16   ar
    20    21    20    1
    21    22    23    1
    22    24    13   ar
    23    25    24    1
    24    26    17   ar
    25    27    26    1
    26    28     8   ar
    27    29    28    1
    28    30    31    1
    29    32    20   ar
    30    33    32    1
    31    34    22   ar
    32    35    34    1
    33    36    15   ar
    34    37    36    1
    35    38    15   ar
    36    39    38    1
    37    40     1    1
    38    41    40    1
    39    42    41   ar
    40    43    42   ar
    41    44    43    1
    42    45    43   ar
    43    46    45   ar
    44    47    41   ar
    45    48    47    1
    46    49    46    1
    47    50    45    1
    48    51    42    1
    49    52     1    1
    50    53     1    1
    51    54    53    1
    52    55    54   ar
    53    56    55   ar
    54    57    56    1
    55    58    56   ar
    56    59    58    1
    57    60    58   ar
    58    61    54   ar
    59    62    61    1
    60    63    60    1
    61    64    52    1
    62    65    64    2
    63    66    51    1
    64    67    66    1
    65    68    67   ar
    66    69    68   ar
    67    70    69    1
    68    71    69   ar
    69    72    71   ar
    70    73    72    1
    71    74    67   ar
    72    75    74    1
    73    76    71    1
    74    77    68    1
    75     5    19    2
    76    10    12    1
    77    11    19    1
    78    22    36   ar
    79    24    28   ar
    80    26    32   ar
    81    30    34   ar
    82    30    38   ar
    83    46    47   ar
    84    51    52    2
    85    55    64    1
    86    60    61   ar
    87    65    66    1
    88    72    74   ar
    89    79    84    1
    90    80    81    1
    91    82    80    1
    92    83    80    1
    93    84    80    1
    94    85    84    1
    95    86    84    1
    96    87    88    1
    97    88    89    1
    98    90    88    1
    99    91    88    1
   100    92    91    1
   101    93    91    1
   102    94    91    1
@<TRIPOS>SUBSTRUCTURE
     1 RES1        1 GROUP             0 ****  ****    0  
     2 RES2       78 GROUP             0 ****  ****    0  
     3 RES3       79 GROUP             0 ****  ****    0  
     4 RES4       87 GROUP             0 ****  ****    0  
@<TRIPOS>CRYSIN
   24.1380    8.8550   24.5970   90.0000  107.7700   90.0000    15     1
