@<TRIPOS>MOLECULE
SAKLOG
    77    88     1     0     0
SMALL
NO_CHARGES
****
Generated from the CSD

@<TRIPOS>ATOM
     1 Fe1      7.6907   0.6194  14.6012   Fe        1 RES1   0.0000
     2 N1       8.7730  -0.9211  13.7232   N.ar      1 RES1   0.0000
     3 C1       8.3338  -1.3943  12.5356   C.ar      1 RES1   0.0000
     4 C2       8.7535  -2.5620  11.9516   C.ar      1 RES1   0.0000
     5 C3       9.6998  -3.3200  12.6096   C.ar      1 RES1   0.0000
     6 C4      10.1928  -2.8648  13.7855   C.ar      1 RES1   0.0000
     7 C5       9.7526  -1.6391  14.3267   C.ar      1 RES1   0.0000
     8 N2      10.4510  -1.2130  15.4461   N.2       1 RES1   0.0000
     9 C6      10.1817  -0.1360  16.1042   C.2       1 RES1   0.0000
    10 C7      11.1189   0.4243  17.1087   C.ar      1 RES1   0.0000
    11 C8      12.3702  -0.0127  17.5507   C.ar      1 RES1   0.0000
    12 C9      13.0245   0.8177  18.4871   C.ar      1 RES1   0.0000
    13 C10     12.4573   1.9709  18.9485   C.ar      1 RES1   0.0000
    14 C11     11.2059   2.3916  18.5085   C.ar      1 RES1   0.0000
    15 C12     10.5609   1.5974  17.5662   C.ar      1 RES1   0.0000
    16 C13      9.2762   1.7606  16.8712   C.2       1 RES1   0.0000
    17 N3       9.0829   0.6999  16.0049   N.2       1 RES1   0.0000
    18 N4       8.5316   2.7996  17.0854   N.2       1 RES1   0.0000
    19 C14      7.2572   2.9628  16.5539   C.ar      1 RES1   0.0000
    20 C15      6.5893   4.0960  16.9958   C.ar      1 RES1   0.0000
    21 C16      5.2652   4.2954  16.6532   C.ar      1 RES1   0.0000
    22 C17      4.6244   3.3435  15.9192   C.ar      1 RES1   0.0000
    23 C18      5.3490   2.2864  15.4734   C.ar      1 RES1   0.0000
    24 N5       6.6681   2.0779  15.6992   N.ar      1 RES1   0.0000
    25 C19     14.3875   0.6165  19.0458   C.3       1 RES1   0.0000
    26 H1       7.6855  -0.8794  12.0703   H         1 RES1   0.0000
    27 H2       8.4010  -2.8431  11.1144   H         1 RES1   0.0000
    28 H3      10.0004  -4.1431  12.2436   H         1 RES1   0.0000
    29 H4      10.8418  -3.3780  14.2527   H         1 RES1   0.0000
    30 H5      12.7585  -0.8214  17.2372   H         1 RES1   0.0000
    31 H6      12.9286   2.4986  19.5832   H         1 RES1   0.0000
    32 H7      10.8075   3.1876  18.8395   H         1 RES1   0.0000
    33 H8       7.0414   4.7342  17.5351   H         1 RES1   0.0000
    34 H9       4.8097   5.0824  16.9238   H         1 RES1   0.0000
    35 H10      3.6979   3.4160  15.7245   H         1 RES1   0.0000
    36 H11      4.8907   1.6337  14.9575   H         1 RES1   0.0000
    37 H12     14.5874   1.3182  19.6552   H         1 RES1   0.0000
    38 H13     14.4250  -0.2176  19.4975   H         1 RES1   0.0000
    39 H14     15.0229   0.6219  18.3391   H         1 RES1   0.0000
    40 N1E      6.6083  -0.9211  15.4792   N.ar      1 RES1   0.0000
    41 C1E      7.0475  -1.3943  16.6668   C.ar      1 RES1   0.0000
    42 C2E      6.6279  -2.5620  17.2509   C.ar      1 RES1   0.0000
    43 C3E      5.6815  -3.3200  16.5928   C.ar      1 RES1   0.0000
    44 C4E      5.1885  -2.8648  15.4169   C.ar      1 RES1   0.0000
    45 C5E      5.6287  -1.6391  14.8757   C.ar      1 RES1   0.0000
    46 N2E      4.9303  -1.2130  13.7563   N.2       1 RES1   0.0000
    47 C6E      5.1997  -0.1360  13.0983   C.2       1 RES1   0.0000
    48 C7E      4.2624   0.4243  12.0937   C.ar      1 RES1   0.0000
    49 C8E      3.0111  -0.0127  11.6518   C.ar      1 RES1   0.0000
    50 C9E      2.3568   0.8177  10.7153   C.ar      1 RES1   0.0000
    51 C10E     2.9240   1.9709  10.2540   C.ar      1 RES1   0.0000
    52 C11E     4.1754   2.3916  10.6939   C.ar      1 RES1   0.0000
    53 C12E     4.8204   1.5974  11.6362   C.ar      1 RES1   0.0000
    54 C13E     6.1051   1.7606  12.3312   C.2       1 RES1   0.0000
    55 N3E      6.2984   0.6999  13.1976   N.2       1 RES1   0.0000
    56 N5E      8.7133   2.0779  13.5032   N.ar      1 RES1   0.0000
    57 C14E     8.1241   2.9628  12.6486   C.ar      1 RES1   0.0000
    58 N4E      6.8497   2.7996  12.1171   N.2       1 RES1   0.0000
    59 C15E     8.7920   4.0960  12.2066   C.ar      1 RES1   0.0000
    60 C16E    10.1162   4.2954  12.5493   C.ar      1 RES1   0.0000
    61 C17E    10.7569   3.3435  13.2832   C.ar      1 RES1   0.0000
    62 C18E    10.0323   2.2864  13.7290   C.ar      1 RES1   0.0000
    63 H11E    10.4906   1.6337  14.2450   H         1 RES1   0.0000
    64 H10E    11.6834   3.4160  13.4779   H         1 RES1   0.0000
    65 H9E     10.5716   5.0824  12.2787   H         1 RES1   0.0000
    66 H8E      8.3399   4.7342  11.6673   H         1 RES1   0.0000
    67 H7E      4.5738   3.1876  10.3630   H         1 RES1   0.0000
    68 H6E      2.4528   2.4986   9.6193   H         1 RES1   0.0000
    69 C19E     0.9938   0.6165  10.1566   C.3       1 RES1   0.0000
    70 H12E     0.7939   1.3182   9.5473   H         1 RES1   0.0000
    71 H13E     0.9563  -0.2176   9.7049   H         1 RES1   0.0000
    72 H14E     0.3584   0.6219  10.8633   H         1 RES1   0.0000
    73 H5E      2.6229  -0.8214  11.9652   H         1 RES1   0.0000
    74 H4E      4.5395  -3.3780  14.9497   H         1 RES1   0.0000
    75 H3E      5.3809  -4.1431  16.9588   H         1 RES1   0.0000
    76 H2E      6.9803  -2.8431  18.0880   H         1 RES1   0.0000
    77 H1E      7.6958  -0.8794  17.1321   H         1 RES1   0.0000
@<TRIPOS>BOND
     1     1     2    1
     2     2     3   ar
     3     3     4   ar
     4     4     5   ar
     5     5     6   ar
     6     6     7   ar
     7     7     2   ar
     8     8     7    1
     9     9     8    2
    10    10     9    1
    11    11    10   ar
    12    12    11   ar
    13    13    12   ar
    14    14    13   ar
    15    15    10   ar
    16    16    15    1
    17    17     1    1
    18    18    16    2
    19    19    18    1
    20    20    19   ar
    21    21    20   ar
    22    22    21   ar
    23    23    22   ar
    24    24     1    1
    25    25    12    1
    26    26     3    1
    27    27     4    1
    28    28     5    1
    29    29     6    1
    30    30    11    1
    31    31    13    1
    32    32    14    1
    33    33    20    1
    34    34    21    1
    35    35    22    1
    36    36    23    1
    37    37    25    1
    38    38    25    1
    39    39    25    1
    40    40     1    1
    41    41    40   ar
    42    42    41   ar
    43    43    42   ar
    44    44    43   ar
    45    45    40   ar
    46    46    45    1
    47    47    46    2
    48    48    47    1
    49    49    48   ar
    50    50    49   ar
    51    51    50   ar
    52    52    51   ar
    53    53    48   ar
    54    54    53    1
    55    55     1    1
    56    56     1    1
    57    57    56   ar
    58    58    54    2
    59    59    57   ar
    60    60    59   ar
    61    61    60   ar
    62    62    56   ar
    63    63    62    1
    64    64    61    1
    65    65    60    1
    66    66    59    1
    67    67    52    1
    68    68    51    1
    69    69    50    1
    70    70    69    1
    71    71    69    1
    72    72    69    1
    73    73    49    1
    74    74    44    1
    75    75    43    1
    76    76    42    1
    77    77    41    1
    78     9    17    1
    79    14    15   ar
    80    16    17    1
    81    19    24   ar
    82    23    24   ar
    83    44    45   ar
    84    47    55    1
    85    52    53   ar
    86    54    55    1
    87    57    58    1
    88    61    62   ar
@<TRIPOS>SUBSTRUCTURE
     1 RES1        1 GROUP             0 ****  ****    0  
@<TRIPOS>CRYSIN
    8.8157   18.1319   19.5260   90.0000   94.4060   90.0000    15     1
