@<TRIPOS>MOLECULE
SANRIL
    91    95     3     0     0
SMALL
USER_CHARGES
****
Generated from the CSD

@<TRIPOS>ATOM
     1 Fe1      4.6070   6.5415   5.0054   Fe        1 RES1   2.0000
     2 O1       6.0562   5.5753   6.0951   O.2       1 RES1   0.0000
     3 O2       3.7047   4.7860   4.4311   O.2       1 RES1   0.0000
     4 N1       7.9379   5.7262   4.8216   N.am      1 RES1   0.0000
     5 H1       8.7197   5.5835   4.7852   H         1 RES1   0.0000
     6 N2       6.1446   6.5409   3.4877   N.ar      1 RES1   0.0000
     7 N3       3.6118   7.6841   3.3853   N.3       1 RES1   0.0000
     8 N4       4.8072   8.5837   5.8268   N.3       1 RES1   0.0000
     9 N5       3.0912   6.5227   6.5439   N.ar      1 RES1   0.0000
    10 N6       2.0877   4.4333   5.9888   N.am      1 RES1   0.0000
    11 H2       1.5423   3.8843   6.3145   H         1 RES1   0.0000
    12 C1       8.0176   4.4660   6.9461   C.3       1 RES1   0.0000
    13 C2       7.0462   3.9836   8.0282   C.3       1 RES1   0.0000
    14 H3       6.6266   4.7578   8.4585   H         1 RES1   0.0000
    15 H4       7.5366   3.4630   8.6990   H         1 RES1   0.0000
    16 H5       6.3542   3.4223   7.6195   H         1 RES1   0.0000
    17 C3       8.6740   3.2527   6.2614   C.3       1 RES1   0.0000
    18 H6       7.9850   2.7201   5.8106   H         1 RES1   0.0000
    19 H7       9.1255   2.7019   6.9346   H         1 RES1   0.0000
    20 H8       9.3292   3.5641   5.6025   H         1 RES1   0.0000
    21 C4       9.0931   5.3493   7.5953   C.3       1 RES1   0.0000
    22 H9       9.7181   5.6622   6.9076   H         1 RES1   0.0000
    23 H10      9.5813   4.8294   8.2666   H         1 RES1   0.0000
    24 H11      8.6675   6.1200   8.0248   H         1 RES1   0.0000
    25 C5       7.2501   5.2999   5.9158   C.2       1 RES1   0.0000
    26 C6       7.4565   6.3504   3.6578   C.ar      1 RES1   0.0000
    27 C7       8.4028   6.7234   2.6910   C.ar      1 RES1   0.0000
    28 H12      9.3310   6.5974   2.8465   H         1 RES1   0.0000
    29 C8       7.9526   7.2767   1.5093   C.ar      1 RES1   0.0000
    30 H13      8.5711   7.5496   0.8417   H         1 RES1   0.0000
    31 C9       6.5807   7.4333   1.3011   C.ar      1 RES1   0.0000
    32 H14      6.2525   7.7953   0.4864   H         1 RES1   0.0000
    33 C10      5.7143   7.0522   2.3013   C.ar      1 RES1   0.0000
    34 C11      4.2169   7.1534   2.1529   C.3       1 RES1   0.0000
    35 H15      3.9991   7.7504   1.3929   H         1 RES1   0.0000
    36 H16      3.8421   6.2576   1.9589   H         1 RES1   0.0000
    37 C12      2.1435   7.4906   3.3570   C.3       1 RES1   0.0000
    38 H17      1.7668   7.9610   2.5844   H         1 RES1   0.0000
    39 H18      1.7510   7.8487   4.1813   H         1 RES1   0.0000
    40 H19      1.9405   6.5343   3.2869   H         1 RES1   0.0000
    41 C13      3.9616   9.1155   3.5666   C.3       1 RES1   0.0000
    42 H20      3.3237   9.6813   3.0640   H         1 RES1   0.0000
    43 H21      4.8706   9.2853   3.2126   H         1 RES1   0.0000
    44 C14      3.9113   9.4715   5.0423   C.3       1 RES1   0.0000
    45 H22      4.1893  10.4130   5.1648   H         1 RES1   0.0000
    46 H23      2.9824   9.3794   5.3728   H         1 RES1   0.0000
    47 C15      6.2001   9.0879   5.8125   C.3       1 RES1   0.0000
    48 H24      6.2409   9.9467   6.2821   H         1 RES1   0.0000
    49 H25      6.4947   9.2081   4.8851   H         1 RES1   0.0000
    50 H26      6.7849   8.4427   6.2604   H         1 RES1   0.0000
    51 C16      4.3289   8.4913   7.2203   C.3       1 RES1   0.0000
    52 H27      4.1356   9.4005   7.5628   H         1 RES1   0.0000
    53 H28      5.0383   8.0944   7.7857   H         1 RES1   0.0000
    54 C17      3.0844   7.6466   7.3108   C.ar      1 RES1   0.0000
    55 C18      2.0409   7.9571   8.1629   C.ar      1 RES1   0.0000
    56 H29      2.0581   8.7531   8.6814   H         1 RES1   0.0000
    57 C19      0.9639   7.0763   8.2435   C.ar      1 RES1   0.0000
    58 H30      0.2250   7.2757   8.8070   H         1 RES1   0.0000
    59 C20      0.9737   5.9124   7.5014   C.ar      1 RES1   0.0000
    60 H31      0.2543   5.2942   7.5547   H         1 RES1   0.0000
    61 C21      2.0665   5.6672   6.6705   C.ar      1 RES1   0.0000
    62 C22      2.8988   4.0277   4.9817   C.2       1 RES1   0.0000
    63 C23      2.8399   2.5564   4.5804   C.3       1 RES1   0.0000
    64 C24      1.4046   2.0236   4.5119   C.3       1 RES1   0.0000
    65 H32      0.9974   2.0685   5.4012   H         1 RES1   0.0000
    66 H33      1.4157   1.0926   4.2056   H         1 RES1   0.0000
    67 H34      0.8832   2.5685   3.8854   H         1 RES1   0.0000
    68 C25      3.6357   1.7885   5.6574   C.3       1 RES1   0.0000
    69 H35      4.5391   2.1640   5.7268   H         1 RES1   0.0000
    70 H36      3.6932   0.8426   5.4080   H         1 RES1   0.0000
    71 H37      3.1804   1.8719   6.5212   H         1 RES1   0.0000
    72 C26      3.5135   2.4033   3.2065   C.3       1 RES1   0.0000
    73 H38      3.0270   2.9364   2.5425   H         1 RES1   0.0000
    74 H39      3.5012   1.4605   2.9411   H         1 RES1   0.0000
    75 H40      4.4399   2.7159   3.2613   H         1 RES1   0.0000
    76 C27     -1.7936   1.8342   7.3608   C.3       2 RES2   0.0000
    77 F1      -1.3777   0.6794   6.8485   F         2 RES2   0.0000
    78 F2      -2.0436   2.6598   6.3511   F         2 RES2   0.0000
    79 F3      -2.9621   1.5984   7.9800   F         2 RES2   0.0000
    80 S1      -0.5903   2.5605   8.5283   S.o2      2 RES2   0.0000
    81 O3      -1.2051   3.8215   8.8644   O.2       2 RES2   0.0000
    82 O4      -0.5131   1.5952   9.5828   O.2       2 RES2   0.0000
    83 O5       0.6153   2.6710   7.7369   O.3       2 RES2  -1.0000
    84 C28     12.5591   6.1121   2.7476   C.3       3 RES3   0.0000
    85 F4      11.7577   6.9379   2.0628   F         3 RES3   0.0000
    86 F5      13.2576   6.8636   3.5986   F         3 RES3   0.0000
    87 F6      13.4244   5.5826   1.8704   F         3 RES3   0.0000
    88 S2      11.6107   4.8055   3.6017   S.o2      3 RES3   0.0000
    89 O6      12.6322   3.9575   4.1513   O.2       3 RES3   0.0000
    90 O7      10.8085   4.2475   2.5484   O.2       3 RES3   0.0000
    91 O8      10.8567   5.5642   4.5813   O.3       3 RES3  -1.0000
@<TRIPOS>BOND
     1     1     2    1
     2     2    25    2
     3     3     1    1
     4     4     5    1
     5     6     1    1
     6     7     1    1
     7     8     1    1
     8     9     1    1
     9    10    11    1
    10    12    13    1
    11    13    14    1
    12    15    13    1
    13    16    13    1
    14    17    12    1
    15    18    17    1
    16    19    17    1
    17    20    17    1
    18    21    12    1
    19    22    21    1
    20    23    21    1
    21    24    21    1
    22    25     4   am
    23    26     4    1
    24    27    26   ar
    25    28    27    1
    26    29    27   ar
    27    30    29    1
    28    31    29   ar
    29    32    31    1
    30    33     6   ar
    31    34     7    1
    32    35    34    1
    33    36    34    1
    34    37     7    1
    35    38    37    1
    36    39    37    1
    37    40    37    1
    38    41     7    1
    39    42    41    1
    40    43    41    1
    41    44     8    1
    42    45    44    1
    43    46    44    1
    44    47     8    1
    45    48    47    1
    46    49    47    1
    47    50    47    1
    48    51     8    1
    49    52    51    1
    50    53    51    1
    51    54     9   ar
    52    55    54   ar
    53    56    55    1
    54    57    55   ar
    55    58    57    1
    56    59    57   ar
    57    60    59    1
    58    61     9   ar
    59    62     3    2
    60    63    62    1
    61    64    63    1
    62    65    64    1
    63    66    64    1
    64    67    64    1
    65    68    63    1
    66    69    68    1
    67    70    68    1
    68    71    68    1
    69    72    63    1
    70    73    72    1
    71    74    72    1
    72    75    72    1
    73     6    26   ar
    74    10    61    1
    75    10    62   am
    76    12    25    1
    77    31    33   ar
    78    33    34    1
    79    41    44    1
    80    51    54    1
    81    59    61   ar
    82    76    77    1
    83    78    76    1
    84    79    76    1
    85    80    76    1
    86    81    80    2
    87    82    80    2
    88    83    80    1
    89    84    85    1
    90    86    84    1
    91    87    84    1
    92    88    84    1
    93    89    88    2
    94    90    88    2
    95    91    88    1
@<TRIPOS>SUBSTRUCTURE
     1 RES1        1 GROUP             0 ****  ****    0  
     2 RES2       76 GROUP             0 ****  ****    0  
     3 RES3       84 GROUP             0 ****  ****    0  
@<TRIPOS>CRYSIN
   19.3400   14.0431   13.5151   90.0000   91.6060   90.0000    14     1
