@<TRIPOS>MOLECULE
SAPYIU
    88    91     5     0     0
SMALL
USER_CHARGES
****
Generated from the CSD

@<TRIPOS>ATOM
     1 C1      11.1293   1.5962   5.0011   C.3       1 RES1   0.0000
     2 H1      11.5298   2.3395   5.4989   H         1 RES1   0.0000
     3 H2      11.8344   1.0874   4.5485   H         1 RES1   0.0000
     4 H3      10.6498   1.0074   5.6227   H         1 RES1   0.0000
     5 C2       8.9727   3.1468   5.7504   C.2       1 RES1   0.0000
     6 H4       9.4913   2.7246   6.4249   H         1 RES1   0.0000
     7 C3       7.9706   4.1299   6.0522   C.ar      1 RES1   0.0000
     8 C4       7.6444   4.5752   7.3315   C.ar      1 RES1   0.0000
     9 H5       8.0390   4.1623   8.0898   H         1 RES1   0.0000
    10 C5       6.7580   5.6049   7.5004   C.ar      1 RES1   0.0000
    11 H6       6.5159   5.8989   8.3696   H         1 RES1   0.0000
    12 C6       6.2195   6.2113   6.3681   C.ar      1 RES1   0.0000
    13 C7       6.5639   5.7263   5.1108   C.ar      1 RES1   0.0000
    14 H7       6.1820   6.1381   4.3447   H         1 RES1   0.0000
    15 C8       9.8428   1.2413   0.4153   C.3       1 RES1   0.0000
    16 H8       9.7330   0.3732   0.8576   H         1 RES1   0.0000
    17 H9      10.7604   1.3224   0.0787   H         1 RES1   0.0000
    18 H10      9.2134   1.3099  -0.3327   H         1 RES1   0.0000
    19 C9       7.4043   1.4873   1.6713   C.2       1 RES1   0.0000
    20 H11      7.5021   0.8545   0.9698   H         1 RES1   0.0000
    21 C10      6.2476   1.5396   2.5277   C.ar      1 RES1   0.0000
    22 C11      5.1686   0.6581   2.4425   C.ar      1 RES1   0.0000
    23 H12      5.1272   0.0270   1.7358   H         1 RES1   0.0000
    24 C12      4.1655   0.7062   3.3878   C.ar      1 RES1   0.0000
    25 H13      3.4253   0.1142   3.3337   H         1 RES1   0.0000
    26 C13      4.2534   1.6211   4.4066   C.ar      1 RES1   0.0000
    27 C14      5.3629   2.4890   4.4634   C.ar      1 RES1   0.0000
    28 H14      5.4211   3.1193   5.1727   H         1 RES1   0.0000
    29 C15     11.5750   5.3724   2.1098   C.3       1 RES1   0.0000
    30 H15     11.3523   5.5351   1.1684   H         1 RES1   0.0000
    31 H16     12.4709   4.9792   2.1691   H         1 RES1   0.0000
    32 H17     11.5571   6.2205   2.6012   H         1 RES1   0.0000
    33 C16      8.8808   5.9238   2.0183   C.2       1 RES1   0.0000
    34 H18      9.4941   6.5822   1.7152   H         1 RES1   0.0000
    35 C17      7.4528   6.0468   1.8532   C.ar      1 RES1   0.0000
    36 C18      6.8231   7.1644   1.3348   C.ar      1 RES1   0.0000
    37 H19      7.3291   7.9269   1.0794   H         1 RES1   0.0000
    38 C19      5.4463   7.1574   1.1916   C.ar      1 RES1   0.0000
    39 H20      4.9917   7.9235   0.8602   H         1 RES1   0.0000
    40 C20      4.7474   6.0265   1.5385   C.ar      1 RES1   0.0000
    41 C21      5.4372   4.9189   2.0183   C.ar      1 RES1   0.0000
    42 H21      4.9505   4.1308   2.2259   H         1 RES1   0.0000
    43 N1      10.1866   2.1260   4.0004   N.3       1 RES1   0.0000
    44 N2       9.1197   2.8786   4.4969   N.2       1 RES1   0.0000
    45 N3       7.4119   4.7051   4.9354   N.ar      1 RES1   0.0000
    46 N4       9.5770   2.3209   1.3812   N.3       1 RES1   0.0000
    47 N5       8.2998   2.3810   1.9460   N.2       1 RES1   0.0000
    48 N6       6.3403   2.4489   3.5413   N.ar      1 RES1   0.0000
    49 N7      10.5991   4.4512   2.6901   N.3       1 RES1   0.0000
    50 N8       9.2580   4.8310   2.6205   N.2       1 RES1   0.0000
    51 N9       6.7667   4.9262   2.1975   N.ar      1 RES1   0.0000
    52 O1       5.3691   7.2486   6.5397   O.3       1 RES1   0.0000
    53 H22      5.2471   7.6413   5.7904   H         1 RES1   0.0000
    54 O2       3.2855   1.6708   5.3300   O.3       1 RES1   0.0000
    55 H23      3.2803   2.3791   5.7904   H         1 RES1   0.0000
    56 O3       3.4101   5.9101   1.4624   O.3       1 RES1   0.0000
    57 H24      3.0010   6.6534   1.3670   H         1 RES1   0.0000
    58 P1      10.7662   2.7634   2.5265   P.3       1 RES1   0.0000
    59 S1      12.5225   2.1956   2.0924   S.2       1 RES1   0.0000
    60 Fe1      7.8646   3.6895   3.2838   Fe        1 RES1   2.0000
    61 B1      10.1861   9.3700   1.1297   B         2 RES2  -1.0000
    62 F1       9.8254   9.0028   2.4090   F         2 RES2   0.0000
    63 F2      10.6956   8.2663   0.4668   F         2 RES2   0.0000
    64 F3      11.1315  10.3495   1.1516   F         2 RES2   0.0000
    65 F4       9.0617   9.8193   0.4875   F         2 RES2   0.0000
    66 B2       4.7847   9.6046   3.6857   B         3 RES3  -1.0000
    67 F5       4.7359  10.4568   4.7664   F         3 RES3   0.0000
    68 F6       5.9566   9.7595   2.9945   F         3 RES3   0.0000
    69 F7       4.6753   8.2814   4.1358   F         3 RES3   0.0000
    70 F8       3.7258   9.8673   2.8307   F         3 RES3   0.0000
    71 C22      2.5969   5.1120   4.9315   C.3       4 RES4   0.0000
    72 H25      3.5014   5.2972   4.6001   H         4 RES4   0.0000
    73 H26      2.0085   5.8637   4.7097   H         4 RES4   0.0000
    74 H27      2.2557   4.2955   4.5124   H         4 RES4   0.0000
    75 C23      2.6381   4.9335   6.4042   C.3       4 RES4   0.0000
    76 H28      2.9254   5.7756   6.8363   H         4 RES4   0.0000
    77 H29      1.7343   4.7061   6.7396   H         4 RES4   0.0000
    78 C24      3.7244   3.6962   8.1375   C.3       4 RES4   0.0000
    79 H30      2.8468   3.5305   8.5657   H         4 RES4   0.0000
    80 H31      4.1177   4.5094   8.5411   H         4 RES4   0.0000
    81 C25      4.6344   2.5202   8.3658   C.3       4 RES4   0.0000
    82 H32      4.2130   1.7084   8.0150   H         4 RES4   0.0000
    83 H33      4.7968   2.4148   9.3265   H         4 RES4   0.0000
    84 H34      5.4859   2.6719   7.9054   H         4 RES4   0.0000
    85 O4       3.5490   3.8877   6.7318   O.3       4 RES4   0.0000
    86 O5      13.5163   8.2106   1.1800   O.3       5 RES5   0.0000
    87 H35     12.6981   8.3353   0.9930   H         5 RES5   0.0000
    88 H36     13.7495   8.8486   1.6894   H         5 RES5   0.0000
@<TRIPOS>BOND
     1     1     2    1
     2     3     1    1
     3     4     1    1
     4     5     6    1
     5     7     5    1
     6     8     7   ar
     7     9     8    1
     8    10     8   ar
     9    11    10    1
    10    12    10   ar
    11    13    12   ar
    12    14    13    1
    13    15    16    1
    14    17    15    1
    15    18    15    1
    16    19    20    1
    17    21    19    1
    18    22    21   ar
    19    23    22    1
    20    24    22   ar
    21    25    24    1
    22    26    24   ar
    23    27    26   ar
    24    28    27    1
    25    29    30    1
    26    31    29    1
    27    32    29    1
    28    33    34    1
    29    35    33    1
    30    36    35   ar
    31    37    36    1
    32    38    36   ar
    33    39    38    1
    34    40    38   ar
    35    41    40   ar
    36    42    41    1
    37    43     1    1
    38    44     5    2
    39    45     7   ar
    40    46    15    1
    41    47    19    2
    42    48    21   ar
    43    49    29    1
    44    50    33    2
    45    51    35   ar
    46    52    12    1
    47    53    52    1
    48    54    26    1
    49    55    54    1
    50    56    40    1
    51    57    56    1
    52    58    43    1
    53    59    58    2
    54    60    44    1
    55    13    45   ar
    56    27    48   ar
    57    41    51   ar
    58    43    44    1
    59    45    60    1
    60    46    47    1
    61    46    58    1
    62    47    60    1
    63    48    60    1
    64    49    50    1
    65    49    58    1
    66    50    60    1
    67    51    60    1
    68    61    62    1
    69    63    61    1
    70    64    61    1
    71    65    61    1
    72    66    67    1
    73    68    66    1
    74    69    66    1
    75    70    66    1
    76    71    72    1
    77    73    71    1
    78    74    71    1
    79    75    71    1
    80    76    75    1
    81    77    75    1
    82    78    79    1
    83    80    78    1
    84    81    78    1
    85    82    81    1
    86    83    81    1
    87    84    81    1
    88    85    75    1
    89    78    85    1
    90    86    87    1
    91    88    86    1
@<TRIPOS>SUBSTRUCTURE
     1 RES1        1 GROUP             0 ****  ****    0  
     2 RES2       61 GROUP             0 ****  ****    0  
     3 RES3       66 GROUP             0 ****  ****    0  
     4 RES4       71 GROUP             0 ****  ****    0  
     5 RES5       86 GROUP             0 ****  ****    0  
@<TRIPOS>CRYSIN
   11.2468   12.3413   13.0831   80.8470   84.4660   74.2590     2     1
