@<TRIPOS>MOLECULE
SARRUA
   104   110     4     0     0
SMALL
USER_CHARGES
****
Generated from the CSD

@<TRIPOS>ATOM
     1 Fe1     11.3257  11.2288  11.5054   Fe        1 RES1   0.0000
     2 Cl1      9.4288  12.5030  11.8916   Cl        1 RES1   0.0000
     3 N1      13.0845  10.0252  10.7778   N.3       1 RES1   0.0000
     4 C1      14.0023   9.9193  11.9163   C.3       1 RES1   0.0000
     5 H1      14.7290  10.5830  11.7980   H         1 RES1   0.0000
     6 H2      14.4151   9.0200  11.9067   H         1 RES1   0.0000
     7 C2      13.3390  10.1488  13.3059   C.2       1 RES1   0.0000
     8 O1      13.8947   9.6676  14.2718   O.co2     1 RES1   0.0000
     9 O2      12.2746  10.8258  13.3135   O.co2     1 RES1  -1.0000
    10 C3      12.5511   8.7228  10.3620   C.3       1 RES1   0.0000
    11 H3      13.2102   8.0208  10.5907   H         1 RES1   0.0000
    12 H4      12.4411   8.7228   9.3786   H         1 RES1   0.0000
    13 C4      11.1930   8.3593  11.0129   C.2       1 RES1   0.0000
    14 O3      10.8071   7.2099  10.8498   O.co2     1 RES1   0.0000
    15 O4      10.5762   9.2673  11.6237   O.co2     1 RES1   0.0000
    16 C5      13.5719  10.8876   9.6297   C.3       1 RES1   0.0000
    17 C6      13.8308  12.2769  10.1989   C.ar      1 RES1   0.0000
    18 C7      14.8531  13.1099   9.7960   C.ar      1 RES1   0.0000
    19 H5      15.5093  12.8038   9.1803   H         1 RES1   0.0000
    20 C8      14.9102  14.3859  10.2933   C.ar      1 RES1   0.0000
    21 H6      15.6177  14.9672  10.0374   H         1 RES1   0.0000
    22 C9      13.9309  14.8244  11.1712   C.ar      1 RES1   0.0000
    23 H7      13.9390  15.7119  11.5102   H         1 RES1   0.0000
    24 C10     12.9454  13.9385  11.5374   C.ar      1 RES1   0.0000
    25 H8      12.2792  14.2284  12.1482   H         1 RES1   0.0000
    26 N2      12.8833  12.6919  11.0736   N.ar      1 RES1   0.0000
    27 C11     12.3517  11.1040   8.7070   C.ar      1 RES1   0.0000
    28 C12     12.4582  11.2865   7.3206   C.ar      1 RES1   0.0000
    29 H9      13.2957  11.1982   6.8824   H         1 RES1   0.0000
    30 C13     11.3319  11.5955   6.6138   C.ar      1 RES1   0.0000
    31 H10     11.3892  11.7530   5.6783   H         1 RES1   0.0000
    32 C14     10.1330  11.6794   7.2422   C.ar      1 RES1   0.0000
    33 H11      9.3420  11.8693   6.7545   H         1 RES1   0.0000
    34 C15     10.0880  11.4793   8.6110   C.ar      1 RES1   0.0000
    35 H12      9.2481  11.5308   9.0508   H         1 RES1   0.0000
    36 N3      11.1654  11.2217   9.3322   N.ar      1 RES1   0.0000
    37 C16     14.7403  10.2754   8.8093   C.3       1 RES1   0.0000
    38 H13     14.3685   9.5101   8.3040   H         1 RES1   0.0000
    39 H14     15.0149  10.9539   8.1425   H         1 RES1   0.0000
    40 C17     15.9636   9.8030   9.4777   C.3       1 RES1   0.0000
    41 H15     15.7419   9.0451  10.0758   H         1 RES1   0.0000
    42 H16     16.3381  10.5315  10.0342   H         1 RES1   0.0000
    43 C18     17.0281   9.3468   8.4367   C.3       1 RES1   0.0000
    44 H17     16.6375   8.6404   7.8643   H         1 RES1   0.0000
    45 H18     17.2633  10.1135   7.8563   H         1 RES1   0.0000
    46 C19     18.2459   8.8331   9.0684   C.3       1 RES1   0.0000
    47 H19     18.9052   8.6183   8.3776   H         1 RES1   0.0000
    48 H20     18.0314   8.0237   9.5785   H         1 RES1   0.0000
    49 H21     18.6113   9.5131   9.6712   H         1 RES1   0.0000
    50 P1       3.3347  12.1727   9.6650   P.3       2 RES2   1.0000
    51 C20      4.3771  12.7935   8.3376   C.ar      2 RES2   0.0000
    52 C21      5.4938  12.0944   7.9106   C.ar      2 RES2   0.0000
    53 H22      5.7201  11.2659   8.3184   H         2 RES2   0.0000
    54 C22      6.2795  12.6036   6.8872   C.ar      2 RES2   0.0000
    55 H23      7.0282  12.1077   6.5754   H         2 RES2   0.0000
    56 C23      5.9867  13.8090   6.3276   C.ar      2 RES2   0.0000
    57 H24      6.5697  14.1872   5.6767   H         2 RES2   0.0000
    58 C24      4.8670  14.4668   6.6985   C.ar      2 RES2   0.0000
    59 H25      4.6328  15.2748   6.2556   H         2 RES2   0.0000
    60 C25      4.0536  13.9870   7.7124   C.ar      2 RES2   0.0000
    61 H26      3.2794  14.4712   7.9778   H         2 RES2   0.0000
    62 C26      3.1979  10.3976   9.5257   C.ar      2 RES2   0.0000
    63 C27      2.9629   9.6499  10.6723   C.ar      2 RES2   0.0000
    64 H27      2.9321  10.0782  11.5198   H         2 RES2   0.0000
    65 C28      2.7773   8.2945  10.5859   C.ar      2 RES2   0.0000
    66 H28      2.6136   7.7882  11.3743   H         2 RES2   0.0000
    67 C29      2.8221   7.6602   9.3610   C.ar      2 RES2   0.0000
    68 H29      2.6981   6.7198   9.3098   H         2 RES2   0.0000
    69 C30      3.0477   8.3872   8.2193   C.ar      2 RES2   0.0000
    70 H30      3.0790   7.9487   7.3766   H         2 RES2   0.0000
    71 C31      3.2279   9.7515   8.2928   C.ar      2 RES2   0.0000
    72 H31      3.3720  10.2533   7.4997   H         2 RES2   0.0000
    73 C32      1.7179  12.9274   9.4985   C.ar      2 RES2   0.0000
    74 C33      1.4897  14.2152   9.9559   C.ar      2 RES2   0.0000
    75 H32      2.1643  14.6699  10.4468   H         2 RES2   0.0000
    76 C34      0.2802  14.8436   9.6984   C.ar      2 RES2   0.0000
    77 H33      0.1211  15.7266  10.0070   H         2 RES2   0.0000
    78 C35     -0.6806  14.1681   8.9916   C.ar      2 RES2   0.0000
    79 H34     -1.5101  14.5919   8.8141   H         2 RES2   0.0000
    80 C36     -0.4649  12.8862   8.5311   C.ar      2 RES2   0.0000
    81 H35     -1.1428  12.4373   8.0386   H         2 RES2   0.0000
    82 C37      0.7250  12.2593   8.7837   C.ar      2 RES2   0.0000
    83 H36      0.8756  11.3733   8.4719   H         2 RES2   0.0000
    84 C38      4.0518  12.5507  11.2623   C.ar      2 RES2   0.0000
    85 C39      5.4251  12.5036  11.4414   C.ar      2 RES2   0.0000
    86 H37      5.9898  12.3284  10.6978   H         2 RES2   0.0000
    87 C40      5.9818  12.7067  12.6919   C.ar      2 RES2   0.0000
    88 H38      6.9241  12.6640  12.8118   H         2 RES2   0.0000
    89 C41      5.1458  12.9730  13.7697   C.ar      2 RES2   0.0000
    90 H39      5.5200  13.1143  14.6316   H         2 RES2   0.0000
    91 C42      3.8025  13.0334  13.6050   C.ar      2 RES2   0.0000
    92 H40      3.2483  13.2218  14.3517   H         2 RES2   0.0000
    93 C43      3.2261  12.8244  12.3561   C.ar      2 RES2   0.0000
    94 H41      2.2841  12.8685  12.2474   H         2 RES2   0.0000
    95 C44      7.6344   9.1981  10.9841   C.3       3 RES3   0.0000
    96 H42      8.4116   8.5903  11.0672   H         3 RES3   0.0000
    97 H43      7.9519  10.1238  11.1328   H         3 RES3   0.0000
    98 Cl2      6.9611   9.0658   9.3657   Cl        3 RES3   0.0000
    99 Cl3      6.4431   8.7893  12.2000   Cl        3 RES3   0.0000
   100 C45     12.5079   4.6844  11.5821   C.3       4 RES4   0.0000
   101 H44     12.7400   4.6741  12.5448   H         4 RES4   0.0000
   102 H45     11.9779   5.5012  11.4062   H         4 RES4   0.0000
   103 Cl4     13.9933   4.7374  10.6243   Cl        4 RES4   0.0000
   104 Cl5     11.5376   3.2773  11.2105   Cl        4 RES4   0.0000
@<TRIPOS>BOND
     1     1     2    1
     2     3     1    1
     3     4     3    1
     4     5     4    1
     5     6     4    1
     6     7     4    1
     7     8     7    2
     8     9     1    1
     9    10     3    1
    10    11    10    1
    11    12    10    1
    12    13    10    1
    13    14    13    2
    14    15     1    1
    15    16     3    1
    16    17    16    1
    17    18    17   ar
    18    19    18    1
    19    20    18   ar
    20    21    20    1
    21    22    20   ar
    22    23    22    1
    23    24    22   ar
    24    25    24    1
    25    26     1    1
    26    27    16    1
    27    28    27   ar
    28    29    28    1
    29    30    28   ar
    30    31    30    1
    31    32    30   ar
    32    33    32    1
    33    34    32   ar
    34    35    34    1
    35    36     1    1
    36    37    16    1
    37    38    37    1
    38    39    37    1
    39    40    37    1
    40    41    40    1
    41    42    40    1
    42    43    40    1
    43    44    43    1
    44    45    43    1
    45    46    43    1
    46    47    46    1
    47    48    46    1
    48    49    46    1
    49     7     9    1
    50    13    15    1
    51    17    26   ar
    52    24    26   ar
    53    27    36   ar
    54    34    36   ar
    55    50    51    1
    56    51    52   ar
    57    52    53    1
    58    54    52   ar
    59    55    54    1
    60    56    54   ar
    61    57    56    1
    62    58    56   ar
    63    59    58    1
    64    60    51   ar
    65    61    60    1
    66    62    50    1
    67    63    62   ar
    68    64    63    1
    69    65    63   ar
    70    66    65    1
    71    67    65   ar
    72    68    67    1
    73    69    67   ar
    74    70    69    1
    75    71    62   ar
    76    72    71    1
    77    73    50    1
    78    74    73   ar
    79    75    74    1
    80    76    74   ar
    81    77    76    1
    82    78    76   ar
    83    79    78    1
    84    80    78   ar
    85    81    80    1
    86    82    73   ar
    87    83    82    1
    88    84    50    1
    89    85    84   ar
    90    86    85    1
    91    87    85   ar
    92    88    87    1
    93    89    87   ar
    94    90    89    1
    95    91    89   ar
    96    92    91    1
    97    93    84   ar
    98    94    93    1
    99    58    60   ar
   100    69    71   ar
   101    80    82   ar
   102    91    93   ar
   103    95    96    1
   104    97    95    1
   105    98    95    1
   106    99    95    1
   107   100   101    1
   108   102   100    1
   109   103   100    1
   110   104   100    1
@<TRIPOS>SUBSTRUCTURE
     1 RES1        1 GROUP             0 ****  ****    0  
     2 RES2       50 GROUP             0 ****  ****    0  
     3 RES3       95 GROUP             0 ****  ****    0  
     4 RES4      100 GROUP             0 ****  ****    0  
@<TRIPOS>CRYSIN
   19.2340   14.7170   16.8010   90.0000  107.8660   90.0000    14     1
