@<TRIPOS>MOLECULE
SATXOE
    87    93     1     0     0
SMALL
NO_CHARGES
****
Generated from the CSD

@<TRIPOS>ATOM
     1 Fe1      5.8861  21.6217   2.9818   Fe        1 RES1   0.0000
     2 S1       7.9505  19.8903   4.8414   S.o2      1 RES1   0.0000
     3 S2       4.0861  21.6081   0.2062   S.o2      1 RES1   0.0000
     4 F1       9.4249  19.2783   6.9347   F         1 RES1   0.0000
     5 F2       7.4209  19.8552   7.4089   F         1 RES1   0.0000
     6 F3       8.8570  21.2896   6.8556   F         1 RES1   0.0000
     7 F4       2.5879  23.7141  -0.1957   F         1 RES1   0.0000
     8 F5       2.7556  22.4237  -1.8813   F         1 RES1   0.0000
     9 F6       4.3762  23.6940  -1.3437   F         1 RES1   0.0000
    10 O1       7.0222  21.0119   4.7048   O.3       1 RES1   0.0000
    11 O2       7.3189  18.6135   4.7707   O.2       1 RES1   0.0000
    12 O3       9.1751  20.0654   4.1072   O.2       1 RES1   0.0000
    13 O4       4.7467  22.3669   1.2673   O.3       1 RES1   0.0000
    14 O5       2.9090  20.9039   0.6452   O.2       1 RES1   0.0000
    15 O6       4.9766  20.8893  -0.6442   O.2       1 RES1   0.0000
    16 N1       7.6951  22.6889   2.1674   N.2       1 RES1   0.0000
    17 N2       6.9018  20.2084   1.7571   N.ar      1 RES1   0.0000
    18 N3       4.7568  19.8156   3.0721   N.ar      1 RES1   0.0000
    19 N4       4.1578  22.0188   4.3317   N.2       1 RES1   0.0000
    20 C1       8.0333  24.0894   2.4033   C.ar      1 RES1   0.0000
    21 C2       8.6411  24.4732   3.6127   C.ar      1 RES1   0.0000
    22 C3       8.9727  25.8043   3.7747   C.ar      1 RES1   0.0000
    23 H1       9.3788  26.0785   4.5882   H         1 RES1   0.0000
    24 C4       8.7373  26.7476   2.8033   C.ar      1 RES1   0.0000
    25 C5       8.0958  26.3512   1.6504   C.ar      1 RES1   0.0000
    26 H2       7.8861  27.0030   0.9916   H         1 RES1   0.0000
    27 C6       7.7461  25.0262   1.4227   C.ar      1 RES1   0.0000
    28 C7       7.0854  24.6402   0.1282   C.3       1 RES1   0.0000
    29 H3       7.7289  24.1675  -0.4392   H         1 RES1   0.0000
    30 H4       6.7733  25.4467  -0.3325   H         1 RES1   0.0000
    31 H5       6.3214  24.0542   0.3138   H         1 RES1   0.0000
    32 C8       8.9601  23.4746   4.6897   C.3       1 RES1   0.0000
    33 H6       8.1406  23.2425   5.1735   H         1 RES1   0.0000
    34 H7       9.6093  23.8626   5.3130   H         1 RES1   0.0000
    35 H8       9.3400  22.6671   4.2838   H         1 RES1   0.0000
    36 C9       9.1806  28.1837   3.0034   C.3       1 RES1   0.0000
    37 H9       8.9948  28.4575   3.9260   H         1 RES1   0.0000
    38 H10      8.6926  28.7658   2.3850   H         1 RES1   0.0000
    39 H11     10.1427  28.2553   2.8294   H         1 RES1   0.0000
    40 C10      8.4406  21.9934   1.4012   C.2       1 RES1   0.0000
    41 C11      9.7176  22.4570   0.7580   C.3       1 RES1   0.0000
    42 H12     10.4540  21.8721   1.0343   H         1 RES1   0.0000
    43 H13      9.9090  23.3768   1.0362   H         1 RES1   0.0000
    44 H14      9.6233  22.4238  -0.2173   H         1 RES1   0.0000
    45 C12      8.0277  20.5887   1.1263   C.ar      1 RES1   0.0000
    46 C13      8.6885  19.7216   0.2749   C.ar      1 RES1   0.0000
    47 H15      9.4814  19.9885  -0.1746   H         1 RES1   0.0000
    48 C14      8.1645  18.4591   0.0974   C.ar      1 RES1   0.0000
    49 H16      8.5987  17.8532  -0.4912   H         1 RES1   0.0000
    50 C15      7.0174  18.0574   0.7611   C.ar      1 RES1   0.0000
    51 H17      6.6620  17.1838   0.6456   H         1 RES1   0.0000
    52 C16      6.4030  18.9799   1.6032   C.ar      1 RES1   0.0000
    53 C17      5.1575  18.7476   2.3859   C.ar      1 RES1   0.0000
    54 C18      4.4376  17.5591   2.4310   C.ar      1 RES1   0.0000
    55 H18      4.7205  16.7964   1.9398   H         1 RES1   0.0000
    56 C19      3.2904  17.5230   3.2177   C.ar      1 RES1   0.0000
    57 H19      2.7816  16.7226   3.2713   H         1 RES1   0.0000
    58 C20      2.8872  18.6350   3.9173   C.ar      1 RES1   0.0000
    59 H20      2.0982  18.6151   4.4465   H         1 RES1   0.0000
    60 C21      3.6487  19.7759   3.8363   C.ar      1 RES1   0.0000
    61 C22      3.3541  21.0508   4.5481   C.2       1 RES1   0.0000
    62 C23      2.1695  21.0902   5.4621   C.3       1 RES1   0.0000
    63 H21      1.3554  20.8990   4.9508   H         1 RES1   0.0000
    64 H22      2.0987  21.9795   5.8679   H         1 RES1   0.0000
    65 H23      2.2776  20.4176   6.1668   H         1 RES1   0.0000
    66 C24      3.9019  23.2912   4.9666   C.ar      1 RES1   0.0000
    67 C25      4.5307  23.6072   6.1801   C.ar      1 RES1   0.0000
    68 C26      4.3078  24.8643   6.7165   C.ar      1 RES1   0.0000
    69 H24      4.7406  25.0939   7.5300   H         1 RES1   0.0000
    70 C27      3.4899  25.7911   6.1257   C.ar      1 RES1   0.0000
    71 C28      2.8603  25.4340   4.9369   C.ar      1 RES1   0.0000
    72 H25      2.2810  26.0615   4.5200   H         1 RES1   0.0000
    73 C29      3.0459  24.1980   4.3368   C.ar      1 RES1   0.0000
    74 C30      2.3140  23.8191   3.0772   C.3       1 RES1   0.0000
    75 H26      2.9629  23.5939   2.3781   H         1 RES1   0.0000
    76 H27      1.7628  24.5731   2.7807   H         1 RES1   0.0000
    77 H28      1.7409  23.0443   3.2531   H         1 RES1   0.0000
    78 C31      5.3259  22.5821   6.9443   C.3       1 RES1   0.0000
    79 H29      4.7142  21.9863   7.4255   H         1 RES1   0.0000
    80 H30      5.9123  23.0350   7.5861   H         1 RES1   0.0000
    81 H31      5.8690  22.0575   6.3198   H         1 RES1   0.0000
    82 C32      3.2325  27.1325   6.7689   C.3       1 RES1   0.0000
    83 H32      2.3945  27.0967   7.2751   H         1 RES1   0.0000
    84 H33      3.1649  27.8201   6.0734   H         1 RES1   0.0000
    85 H34      3.9712  27.3521   7.3741   H         1 RES1   0.0000
    86 C33      8.4357  20.0625   6.5986   C.3       1 RES1   0.0000
    87 C34      3.4281  22.9366  -0.8575   C.3       1 RES1   0.0000
@<TRIPOS>BOND
     1     1    10    1
     2     2    10    1
     3     3    13    1
     4     4    86    1
     5     5    86    1
     6     6    86    1
     7     7    87    1
     8     8    87    1
     9     9    87    1
    10    11     2    2
    11    12     2    2
    12    13     1    1
    13    14     3    2
    14    15     3    2
    15    16     1    1
    16    17     1    1
    17    18     1    1
    18    19     1    1
    19    20    16    1
    20    21    20   ar
    21    22    21   ar
    22    23    22    1
    23    24    22   ar
    24    25    24   ar
    25    26    25    1
    26    27    20   ar
    27    28    27    1
    28    29    28    1
    29    30    28    1
    30    31    28    1
    31    32    21    1
    32    33    32    1
    33    34    32    1
    34    35    32    1
    35    36    24    1
    36    37    36    1
    37    38    36    1
    38    39    36    1
    39    40    16    2
    40    41    40    1
    41    42    41    1
    42    43    41    1
    43    44    41    1
    44    45    17   ar
    45    46    45   ar
    46    47    46    1
    47    48    46   ar
    48    49    48    1
    49    50    48   ar
    50    51    50    1
    51    52    17   ar
    52    53    18   ar
    53    54    53   ar
    54    55    54    1
    55    56    54   ar
    56    57    56    1
    57    58    56   ar
    58    59    58    1
    59    60    18   ar
    60    61    19    2
    61    62    61    1
    62    63    62    1
    63    64    62    1
    64    65    62    1
    65    66    19    1
    66    67    66   ar
    67    68    67   ar
    68    69    68    1
    69    70    68   ar
    70    71    70   ar
    71    72    71    1
    72    73    66   ar
    73    74    73    1
    74    75    74    1
    75    76    74    1
    76    77    74    1
    77    78    67    1
    78    79    78    1
    79    80    78    1
    80    81    78    1
    81    82    70    1
    82    83    82    1
    83    84    82    1
    84    85    82    1
    85    86     2    1
    86    87     3    1
    87    25    27   ar
    88    40    45    1
    89    50    52   ar
    90    52    53    1
    91    58    60   ar
    92    60    61    1
    93    71    73   ar
@<TRIPOS>SUBSTRUCTURE
     1 RES1        1 GROUP             0 ****  ****    0  
@<TRIPOS>CRYSIN
    9.9180   35.7430   10.4480   90.0000  100.9610   90.0000    14     1
