@<TRIPOS>MOLECULE
SAVSUH
   155   162     1     0     0
SMALL
NO_CHARGES
****
Generated from the CSD

@<TRIPOS>ATOM
     1 Fe1      9.3478   7.3058  14.2194   Fe        1 RES1   0.0000
     2 P1       8.4010   6.8915  12.0551   P.3       1 RES1   0.0000
     3 P2       7.3809   8.2965  13.2765   P.3       1 RES1   0.0000
     4 N1       7.5921   5.1334  15.3918   N.1       1 RES1   0.0000
     5 O1      11.3890   5.2012  13.9703   O.2       1 RES1   0.0000
     6 N2      11.4662   9.2850  13.3660   N.1       1 RES1   0.0000
     7 O2       9.1991   8.7913  16.7598   O.2       1 RES1   0.0000
     8 C1       7.0143   2.6711  14.0767   C.ar      1 RES1   0.0000
     9 C2       6.6671   2.9065  15.5098   C.ar      1 RES1   0.0000
    10 C3       6.0154   1.9406  16.2640   C.ar      1 RES1   0.0000
    11 H1       5.8063   1.1026  15.8684   H         1 RES1   0.0000
    12 C4       6.9410   4.1329  16.1276   C.ar      1 RES1   0.0000
    13 C5       8.1529   1.9096  13.7544   C.ar      1 RES1   0.0000
    14 C6      13.3762  10.3589  14.3761   C.ar      1 RES1   0.0000
    15 C7      12.6820   9.9593  13.2184   C.ar      1 RES1   0.0000
    16 C8       6.5570   4.4209  17.4462   C.ar      1 RES1   0.0000
    17 C9       8.2206   5.9859  14.9075   C.1       1 RES1   0.0000
    18 C10      6.1771   3.1915  13.0764   C.ar      1 RES1   0.0000
    19 C11     13.1849  10.2172  11.9362   C.ar      1 RES1   0.0000
    20 C12      5.6643   2.1770  17.5844   C.ar      1 RES1   0.0000
    21 H2       5.2390   1.4968  18.0932   H         1 RES1   0.0000
    22 C13     15.1346  11.2174  12.9719   C.ar      1 RES1   0.0000
    23 H3      15.9855  11.6310  12.8864   H         1 RES1   0.0000
    24 C14      5.9355   3.4082  18.1591   C.ar      1 RES1   0.0000
    25 H4       5.6894   3.5617  19.0638   H         1 RES1   0.0000
    26 C15     11.5487  10.8930  10.1791   C.ar      1 RES1   0.0000
    27 C16      9.0286   1.3075  14.8345   C.3       1 RES1   0.0000
    28 H5       8.4690   1.2183  15.6585   H         1 RES1   0.0000
    29 C17      5.7115   6.7401  17.6933   C.ar      1 RES1   0.0000
    30 C18     14.5987  10.9849  14.2204   C.ar      1 RES1   0.0000
    31 H6      15.0803  11.2613  14.9912   H         1 RES1   0.0000
    32 C19     12.8134  10.1633  15.7462   C.ar      1 RES1   0.0000
    33 C20     14.4248  10.8442  11.8439   C.ar      1 RES1   0.0000
    34 H7      14.7927  11.0202  10.9857   H         1 RES1   0.0000
    35 C21      6.7000   5.7969  18.0065   C.ar      1 RES1   0.0000
    36 C22      8.4622   1.7270  12.4114   C.ar      1 RES1   0.0000
    37 H8       9.2412   1.2391  12.1712   H         1 RES1   0.0000
    38 C23      4.5263   6.4018  16.7990   C.3       1 RES1   0.0000
    39 H9       4.7487   5.5543  16.3171   H         1 RES1   0.0000
    40 C24     10.5936   8.5593  13.6569   C.1       1 RES1   0.0000
    41 C25     13.0665   8.9661  16.4470   C.ar      1 RES1   0.0000
    42 C26      7.7736   6.1228  18.8550   C.ar      1 RES1   0.0000
    43 C27     12.7138   8.7551   9.9378   C.ar      1 RES1   0.0000
    44 C28     13.6076   7.6643  10.5046   C.3       1 RES1   0.0000
    45 H10     14.2604   8.1018  11.1229   H         1 RES1   0.0000
    46 C29     13.8761   7.8462  15.8046   C.3       1 RES1   0.0000
    47 H11     13.7335   7.8951  14.8161   H         1 RES1   0.0000
    48 C30      7.8108   7.4131  19.3867   C.ar      1 RES1   0.0000
    49 H12      8.5289   7.6595  19.9578   H         1 RES1   0.0000
    50 C31     10.9749  10.6941   8.9291   C.ar      1 RES1   0.0000
    51 H13     10.3888  11.3499   8.5700   H         1 RES1   0.0000
    52 C32      7.5474   9.8581  10.9357   C.2       1 RES1   0.0000
    53 H14      6.9261  10.4551  10.5356   H         1 RES1   0.0000
    54 C33      7.6533   2.2443  11.4260   C.ar      1 RES1   0.0000
    55 H15      7.8769   2.1045  10.5133   H         1 RES1   0.0000
    56 C34     12.0890  11.2058  16.3414   C.ar      1 RES1   0.0000
    57 C35     12.4336   9.9238  10.6695   C.ar      1 RES1   0.0000
    58 C36      8.8776   5.1411  19.1704   C.3       1 RES1   0.0000
    59 H16      8.5572   4.2328  18.9011   H         1 RES1   0.0000
    60 C37      9.1832   8.0334  10.7712   C.3       1 RES1   0.0000
    61 H17      9.9107   8.5529  11.1966   H         1 RES1   0.0000
    62 H18      9.5816   7.4870  10.0481   H         1 RES1   0.0000
    63 C38      6.5241   2.9623  11.7476   C.ar      1 RES1   0.0000
    64 H19      5.9738   3.3060  11.0536   H         1 RES1   0.0000
    65 C39     10.6127   6.0333  14.0834   C.1       1 RES1   0.0000
    66 C40      8.1836   8.9762  10.1828   C.2       1 RES1   0.0000
    67 H20      8.0021   8.9415   9.2509   H         1 RES1   0.0000
    68 C41      4.2787   7.4735  15.7432   C.3       1 RES1   0.0000
    69 H21      4.0044   8.3063  16.1812   H         1 RES1   0.0000
    70 H22      3.5704   7.1756  15.1351   H         1 RES1   0.0000
    71 H23      5.1022   7.6278  15.2350   H         1 RES1   0.0000
    72 C42     11.2481  12.1710  10.9690   C.3       1 RES1   0.0000
    73 H24     11.4407  11.9799  11.9316   H         1 RES1   0.0000
    74 C43      4.9011   3.9335  13.4098   C.3       1 RES1   0.0000
    75 H25      4.9224   4.1413  14.3877   H         1 RES1   0.0000
    76 C44      6.8364   8.3303  19.1031   C.ar      1 RES1   0.0000
    77 H26      6.8822   9.1979  19.4875   H         1 RES1   0.0000
    78 C45      7.7947   9.9267  12.4139   C.3       1 RES1   0.0000
    79 H27      7.2431  10.6507  12.8034   H         1 RES1   0.0000
    80 H28      8.7460  10.1485  12.5753   H         1 RES1   0.0000
    81 C46     12.0974   8.5853   8.7057   C.ar      1 RES1   0.0000
    82 H29     12.2610   7.7960   8.2029   H         1 RES1   0.0000
    83 C47      9.2692   8.1875  15.7828   C.1       1 RES1   0.0000
    84 C48     12.1625  13.3068  10.5391   C.3       1 RES1   0.0000
    85 H30     13.0968  13.0417  10.6704   H         1 RES1   0.0000
    86 H31     11.9702  14.1027  11.0777   H         1 RES1   0.0000
    87 H32     12.0101  13.5084   9.5923   H         1 RES1   0.0000
    88 C49      5.7875   8.0099  18.2653   C.ar      1 RES1   0.0000
    89 H33      5.1160   8.6553  18.0780   H         1 RES1   0.0000
    90 C50     11.2502   9.5501   8.2043   C.ar      1 RES1   0.0000
    91 H34     10.8511   9.4272   7.3510   H         1 RES1   0.0000
    92 C51     11.7352  12.4703  15.5955   C.3       1 RES1   0.0000
    93 H35     12.2852  12.4932  14.7605   H         1 RES1   0.0000
    94 C52     13.4424   6.4601  16.2689   C.3       1 RES1   0.0000
    95 H36     13.7133   6.3283  17.2014   H         1 RES1   0.0000
    96 H37     13.8667   5.7794  15.7060   H         1 RES1   0.0000
    97 H38     12.4680   6.3819  16.1977   H         1 RES1   0.0000
    98 C53     11.6386  11.0293  17.6574   C.ar      1 RES1   0.0000
    99 H39     11.1486  11.7242  18.0809   H         1 RES1   0.0000
   100 C54      9.7974  12.6156  10.8753   C.3       1 RES1   0.0000
   101 H40      9.5953  12.8782   9.9529   H         1 RES1   0.0000
   102 H41      9.6505  13.3790  11.4718   H         1 RES1   0.0000
   103 H42      9.2114  11.8763  11.1402   H         1 RES1   0.0000
   104 C55      3.6724   3.0586  13.1541   C.3       1 RES1   0.0000
   105 H43      3.6251   2.8322  12.2019   H         1 RES1   0.0000
   106 H44      2.8637   3.5470  13.4145   H         1 RES1   0.0000
   107 H45      3.7416   2.2360  13.6824   H         1 RES1   0.0000
   108 C56     12.6016   8.8466  17.7430   C.ar      1 RES1   0.0000
   109 H46     12.7707   8.0484  18.2296   H         1 RES1   0.0000
   110 C57     15.3609   8.0324  16.0683   C.3       1 RES1   0.0000
   111 H47     15.6543   8.8890  15.6937   H         1 RES1   0.0000
   112 H48     15.8615   7.3029  15.6469   H         1 RES1   0.0000
   113 H49     15.5245   8.0252  17.0346   H         1 RES1   0.0000
   114 C58     10.2697  12.4599  15.1821   C.3       1 RES1   0.0000
   115 H50     10.0793  11.6434  14.6748   H         1 RES1   0.0000
   116 H51     10.0824  13.2429  14.6234   H         1 RES1   0.0000
   117 H52      9.7046  12.4867  15.9823   H         1 RES1   0.0000
   118 C59      3.2582   6.1479  17.6040   C.3       1 RES1   0.0000
   119 H53      3.4035   5.3932  18.2127   H         1 RES1   0.0000
   120 H54      2.5206   5.9374  16.9939   H         1 RES1   0.0000
   121 H55      3.0348   6.9480  18.1232   H         1 RES1   0.0000
   122 C60      4.7844   5.2607  12.6630   C.3       1 RES1   0.0000
   123 H56      5.5882   5.7978  12.8240   H         1 RES1   0.0000
   124 H57      3.9967   5.7476  12.9833   H         1 RES1   0.0000
   125 H58      4.6938   5.0882  11.7026   H         1 RES1   0.0000
   126 C61     10.1867   2.2314  15.1691   C.3       1 RES1   0.0000
   127 H59     10.7386   2.3658  14.3706   H         1 RES1   0.0000
   128 H60     10.7306   1.8299  15.8785   H         1 RES1   0.0000
   129 H61      9.8379   3.0950  15.4742   H         1 RES1   0.0000
   130 C62      9.5485  -0.0841  14.4821   C.3       1 RES1   0.0000
   131 H62      8.7959  -0.6611  14.2350   H         1 RES1   0.0000
   132 H63     10.0118  -0.4657  15.2569   H         1 RES1   0.0000
   133 H64     10.1715  -0.0190  13.7284   H         1 RES1   0.0000
   134 C63     11.8936   9.8732  18.3411   C.ar      1 RES1   0.0000
   135 H65     11.5821   9.7743  19.2332   H         1 RES1   0.0000
   136 C64     12.0587  13.7319  16.3977   C.3       1 RES1   0.0000
   137 H66     11.4717  13.7805  17.1809   H         1 RES1   0.0000
   138 H67     11.9186  14.5218  15.8349   H         1 RES1   0.0000
   139 H68     12.9933  13.7016  16.6913   H         1 RES1   0.0000
   140 C65     14.4075   6.9158   9.4516   C.3       1 RES1   0.0000
   141 H69     13.7995   6.3843   8.8960   H         1 RES1   0.0000
   142 H70     15.0509   6.3212   9.8915   H         1 RES1   0.0000
   143 H71     14.8880   7.5574   8.8884   H         1 RES1   0.0000
   144 C66     12.7789   6.6949  11.3278   C.3       1 RES1   0.0000
   145 H72     12.2770   7.1903  12.0083   H         1 RES1   0.0000
   146 H73     13.3714   6.0482  11.7651   H         1 RES1   0.0000
   147 H74     12.1533   6.2203  10.7415   H         1 RES1   0.0000
   148 C67      9.2173   5.0850  20.6556   C.3       1 RES1   0.0000
   149 H75      9.5925   5.9443  20.9379   H         1 RES1   0.0000
   150 H76      9.8721   4.3734  20.8143   H         1 RES1   0.0000
   151 H77      8.4029   4.8992  21.1695   H         1 RES1   0.0000
   152 C68     10.1253   5.4436  18.3581   C.3       1 RES1   0.0000
   153 H78      9.9050   5.4283  17.4033   H         1 RES1   0.0000
   154 H79     10.8091   4.7665  18.5459   H         1 RES1   0.0000
   155 H80     10.4668   6.3289  18.6010   H         1 RES1   0.0000
@<TRIPOS>BOND
     1     1     2    1
     2     2     3    1
     3     3     1    1
     4     4    12    1
     5     5    65    3
     6     6    15    1
     7     7    83    3
     8     8     9    1
     9     9    10   ar
    10    10    11    1
    11    12     9   ar
    12    13     8   ar
    13    14    15   ar
    14    15    19   ar
    15    16    12   ar
    16    17     1    1
    17    18     8   ar
    18    19    33   ar
    19    20    10   ar
    20    21    20    1
    21    22    23    1
    22    24    16   ar
    23    25    24    1
    24    26    50   ar
    25    27    13    1
    26    28    27    1
    27    29    35   ar
    28    30    14   ar
    29    31    30    1
    30    32    14    1
    31    33    22   ar
    32    34    33    1
    33    35    16    1
    34    36    13   ar
    35    37    36    1
    36    38    29    1
    37    39    38    1
    38    40     1    1
    39    41    32   ar
    40    42    35   ar
    41    43    44    1
    42    44    45    1
    43    46    41    1
    44    47    46    1
    45    48    42   ar
    46    49    48    1
    47    50    51    1
    48    52    53    1
    49    54    36   ar
    50    55    54    1
    51    56    32   ar
    52    57    19    1
    53    58    42    1
    54    59    58    1
    55    60     2    1
    56    61    60    1
    57    62    60    1
    58    63    18   ar
    59    64    63    1
    60    65     1    1
    61    66    52    2
    62    67    66    1
    63    68    38    1
    64    69    68    1
    65    70    68    1
    66    71    68    1
    67    72    26    1
    68    73    72    1
    69    74    18    1
    70    75    74    1
    71    76    48   ar
    72    77    76    1
    73    78     3    1
    74    79    78    1
    75    80    78    1
    76    81    43   ar
    77    82    81    1
    78    83     1    1
    79    84    72    1
    80    85    84    1
    81    86    84    1
    82    87    84    1
    83    88    29   ar
    84    89    88    1
    85    90    50   ar
    86    91    90    1
    87    92    56    1
    88    93    92    1
    89    94    46    1
    90    95    94    1
    91    96    94    1
    92    97    94    1
    93    98    56   ar
    94    99    98    1
    95   100    72    1
    96   101   100    1
    97   102   100    1
    98   103   100    1
    99   104    74    1
   100   105   104    1
   101   106   104    1
   102   107   104    1
   103   108    41   ar
   104   109   108    1
   105   110    46    1
   106   111   110    1
   107   112   110    1
   108   113   110    1
   109   114    92    1
   110   115   114    1
   111   116   114    1
   112   117   114    1
   113   118    38    1
   114   119   118    1
   115   120   118    1
   116   121   118    1
   117   122    74    1
   118   123   122    1
   119   124   122    1
   120   125   122    1
   121   126    27    1
   122   127   126    1
   123   128   126    1
   124   129   126    1
   125   130    27    1
   126   131   130    1
   127   132   130    1
   128   133   130    1
   129   134    98   ar
   130   135   134    1
   131   136    92    1
   132   137   136    1
   133   138   136    1
   134   139   136    1
   135   140    44    1
   136   141   140    1
   137   142   140    1
   138   143   140    1
   139   144    44    1
   140   145   144    1
   141   146   144    1
   142   147   144    1
   143   148    58    1
   144   149   148    1
   145   150   148    1
   146   151   148    1
   147   152    58    1
   148   153   152    1
   149   154   152    1
   150   155   152    1
   151     4    17    3
   152     6    40    3
   153    20    24   ar
   154    22    30   ar
   155    26    57   ar
   156    43    57   ar
   157    52    78    1
   158    54    63   ar
   159    60    66    1
   160    76    88   ar
   161    81    90   ar
   162   108   134   ar
@<TRIPOS>SUBSTRUCTURE
     1 RES1        1 GROUP             0 ****  ****    0  
@<TRIPOS>CRYSIN
   18.7530   16.3032   20.3730   90.0000  106.9400   90.0000    14     1
