@<TRIPOS>MOLECULE
SAVSOB
   171   177     1     0     0
SMALL
NO_CHARGES
****
Generated from the CSD

@<TRIPOS>ATOM
     1 Fe1      1.9342   6.4354  19.1655   Fe        1 RES1   0.0000
     2 Si1      4.8781   5.6846  21.1436   Si        1 RES1   0.0000
     3 Si2      3.6992   9.6507  19.2813   Si        1 RES1   0.0000
     4 N1       3.0098   6.3918  16.3616   N.1       1 RES1   0.0000
     5 N2       0.6252   6.3056  21.8612   N.1       1 RES1   0.0000
     6 O1      -0.3335   8.1180  18.4135   O.2       1 RES1   0.0000
     7 C1       3.2394   6.4193  14.9915   C.ar      1 RES1   0.0000
     8 O2       1.6712   3.5237  19.0184   O.2       1 RES1   0.0000
     9 C2       2.6197   6.4207  17.4563   C.1       1 RES1   0.0000
    10 C3       1.1660   6.3954  20.8379   C.1       1 RES1   0.0000
    11 C4       4.4040   5.8298  14.4910   C.ar      1 RES1   0.0000
    12 C5       5.3386   5.0540  15.3657   C.ar      1 RES1   0.0000
    13 C6       0.5562   2.5020  22.7236   C.ar      1 RES1   0.0000
    14 C7       0.0438   6.0689  23.1007   C.ar      1 RES1   0.0000
    15 C8       4.5867   5.8254  13.1125   C.ar      1 RES1   0.0000
    16 H1       5.3806   5.4525  12.7482   H         1 RES1   0.0000
    17 C9       6.4213   5.6630  16.0247   C.ar      1 RES1   0.0000
    18 C10     -0.0643   6.4877  14.9949   C.ar      1 RES1   0.0000
    19 C11      2.2372   6.9546  14.1528   C.ar      1 RES1   0.0000
    20 C12      0.6743   8.8114  14.8597   C.ar      1 RES1   0.0000
    21 C13     -1.3009   6.9374  15.4375   C.ar      1 RES1   0.0000
    22 H2      -1.9832   6.3069  15.6358   H         1 RES1   0.0000
    23 C14     -0.3391   4.7581  23.4431   C.ar      1 RES1   0.0000
    24 C15      0.9311   7.4381  14.6910   C.ar      1 RES1   0.0000
    25 C16      3.6345   6.3528  12.2658   C.ar      1 RES1   0.0000
    26 H3       3.7768   6.3419  11.3265   H         1 RES1   0.0000
    27 C17      1.7155   9.8676  14.5439   C.3       1 RES1   0.0000
    28 H4       2.6189   9.4601  14.6793   H         1 RES1   0.0000
    29 C18      0.0291   8.5835  23.4858   C.ar      1 RES1   0.0000
    30 C19     -0.2896   3.5976  22.4807   C.ar      1 RES1   0.0000
    31 C20     -0.5826   9.2038  15.3136   C.ar      1 RES1   0.0000
    32 H5      -0.7687  10.1280  15.4311   H         1 RES1   0.0000
    33 C21      1.1984   9.2842  23.8014   C.ar      1 RES1   0.0000
    34 C22      7.5311   7.5150  14.7629   C.3       1 RES1   0.0000
    35 H6       8.3857   7.0423  14.8395   H         1 RES1   0.0000
    36 H7       7.6919   8.4816  14.7505   H         1 RES1   0.0000
    37 H8       7.0829   7.2479  13.9332   H         1 RES1   0.0000
    38 C23      0.4733   1.3918  21.8943   C.ar      1 RES1   0.0000
    39 H9       1.0428   0.6482  22.0552   H         1 RES1   0.0000
    40 C24      1.2815  10.6342  23.4280   C.ar      1 RES1   0.0000
    41 H10      2.0625  11.1316  23.6420   H         1 RES1   0.0000
    42 C25      2.4726   6.8983  12.7826   C.ar      1 RES1   0.0000
    43 H11      1.8185   7.2431  12.1865   H         1 RES1   0.0000
    44 C26     -1.5550   8.2787  15.5940   C.ar      1 RES1   0.0000
    45 H12     -2.4081   8.5665  15.8975   H         1 RES1   0.0000
    46 C27     -0.1712   7.1681  23.9529   C.ar      1 RES1   0.0000
    47 C28     -1.1875   3.5574  21.3899   C.ar      1 RES1   0.0000
    48 C29      6.6425   7.1610  15.9591   C.3       1 RES1   0.0000
    49 H13      5.7527   7.5936  15.8154   H         1 RES1   0.0000
    50 C30     -1.0210   9.2018  22.7940   C.ar      1 RES1   0.0000
    51 C31     -0.8706   4.5778  24.7148   C.ar      1 RES1   0.0000
    52 H14     -1.1518   3.7093  24.9783   H         1 RES1   0.0000
    53 C32      5.1247   3.6646  15.4612   C.ar      1 RES1   0.0000
    54 C33      3.8296   6.7670  20.0891   C.3       1 RES1   0.0000
    55 C34     -1.2191   2.4188  20.5981   C.ar      1 RES1   0.0000
    56 H15     -1.8186   2.3844  19.8621   H         1 RES1   0.0000
    57 C35      3.4637   7.8601  19.6717   C.3       1 RES1   0.0000
    58 C36      2.3533   8.6430  24.5232   C.3       1 RES1   0.0000
    59 H16      2.1411   7.6737  24.6468   H         1 RES1   0.0000
    60 C37     -0.6690   6.9168  25.2213   C.ar      1 RES1   0.0000
    61 H17     -0.7832   7.6357  25.8319   H         1 RES1   0.0000
    62 C38      1.6188  10.3286  13.0823   C.3       1 RES1   0.0000
    63 H18      1.8461   9.5828  12.4887   H         1 RES1   0.0000
    64 H19      2.2428  11.0687  12.9311   H         1 RES1   0.0000
    65 H20      0.7046  10.6284  12.8945   H         1 RES1   0.0000
    66 C39      0.2475  11.2487  22.7549   C.ar      1 RES1   0.0000
    67 H21      0.3212  12.1650  22.5153   H         1 RES1   0.0000
    68 C40      0.1664   5.0055  14.7842   C.3       1 RES1   0.0000
    69 H22      1.1545   4.8545  14.8133   H         1 RES1   0.0000
    70 C41      6.0453   2.9071  16.1937   C.ar      1 RES1   0.0000
    71 H23      5.9206   1.9683  16.2674   H         1 RES1   0.0000
    72 C42      1.6049  11.0901  15.4677   C.3       1 RES1   0.0000
    73 H24      0.8287  11.6283  15.2054   H         1 RES1   0.0000
    74 H25      2.4180  11.6314  15.3926   H         1 RES1   0.0000
    75 H26      1.4959  10.7906  16.3945   H         1 RES1   0.0000
    76 C43     -1.0041   5.6277  25.6105   C.ar      1 RES1   0.0000
    77 H27     -1.3236   5.4647  26.4900   H         1 RES1   0.0000
    78 C44     -0.4105   1.3451  20.8489   C.ar      1 RES1   0.0000
    79 H28     -0.4625   0.5706  20.3012   H         1 RES1   0.0000
    80 C45     -2.1836   4.6713  21.1335   C.3       1 RES1   0.0000
    81 H29     -1.8102   5.5071  21.5356   H         1 RES1   0.0000
    82 C46      7.3114   4.8585  16.7290   C.ar      1 RES1   0.0000
    83 H30      8.0583   5.2539  17.1626   H         1 RES1   0.0000
    84 C47     -0.8863  10.5497  22.4281   C.ar      1 RES1   0.0000
    85 H31     -1.5848  10.9814  21.9507   H         1 RES1   0.0000
    86 C48      7.1217   3.4911  16.8066   C.ar      1 RES1   0.0000
    87 H32      7.7417   2.9543  17.2868   H         1 RES1   0.0000
    88 C49      7.2379   7.7383  17.2469   C.3       1 RES1   0.0000
    89 H33      6.7148   7.4291  18.0158   H         1 RES1   0.0000
    90 H34      7.2146   8.7168  17.2079   H         1 RES1   0.0000
    91 H35      8.1660   7.4370  17.3414   H         1 RES1   0.0000
    92 C50     -2.3220   8.4928  22.4726   C.3       1 RES1   0.0000
    93 H36     -2.1868   7.5187  22.6534   H         1 RES1   0.0000
    94 C51      3.9374   2.9825  14.8222   C.3       1 RES1   0.0000
    95 H37      3.3805   3.7020  14.4071   H         1 RES1   0.0000
    96 C52      1.5545   2.4394  23.8639   C.3       1 RES1   0.0000
    97 H38      1.6944   3.3681  24.2071   H         1 RES1   0.0000
    98 C53      0.5802   7.4718  18.6528   C.1       1 RES1   0.0000
    99 C54      3.6582   8.7444  23.7113   C.3       1 RES1   0.0000
   100 H39      3.5043   8.4089  22.8034   H         1 RES1   0.0000
   101 H40      4.3547   8.2084  24.1441   H         1 RES1   0.0000
   102 H41      3.9446   9.6806  23.6693   H         1 RES1   0.0000
   103 C55      1.7768   4.6749  19.0965   C.1       1 RES1   0.0000
   104 C56      2.5685   9.2569  25.9019   C.3       1 RES1   0.0000
   105 H42      2.7707  10.2119  25.8062   H         1 RES1   0.0000
   106 H43      3.3167   8.8083  26.3471   H         1 RES1   0.0000
   107 H44      1.7557   9.1485  26.4385   H         1 RES1   0.0000
   108 C57      4.1203   9.7961  17.4737   C.3       1 RES1   0.0000
   109 H45      4.9519   9.3112  17.2920   H         1 RES1   0.0000
   110 H46      4.2340  10.7405  17.2396   H         1 RES1   0.0000
   111 H47      3.3945   9.4119  16.9378   H         1 RES1   0.0000
   112 C58      3.8815   5.1616  22.6169   C.3       1 RES1   0.0000
   113 H48      3.5905   5.9541  23.1133   H         1 RES1   0.0000
   114 H49      4.4310   4.5949  23.1985   H         1 RES1   0.0000
   115 H50      3.0963   4.6565  22.3176   H         1 RES1   0.0000
   116 C59     -0.4492   4.1357  15.8586   C.3       1 RES1   0.0000
   117 H51     -0.2119   4.4890  16.7412   H         1 RES1   0.0000
   118 H52     -0.1090   3.2199  15.7718   H         1 RES1   0.0000
   119 H53     -1.4236   4.1324  15.7585   H         1 RES1   0.0000
   120 C60      1.0201   1.5812  25.0122   C.3       1 RES1   0.0000
   121 H54      0.1811   1.9644  25.3428   H         1 RES1   0.0000
   122 H55      1.6785   1.5612  25.7379   H         1 RES1   0.0000
   123 H56      0.8595   0.6697  24.6912   H         1 RES1   0.0000
   124 C61      2.1721  10.6079  19.6722   C.3       1 RES1   0.0000
   125 H57      1.4452  10.3181  19.0825   H         1 RES1   0.0000
   126 H58      2.3419  11.5635  19.5362   H         1 RES1   0.0000
   127 H59      1.9182  10.4509  20.6056   H         1 RES1   0.0000
   128 C62     -2.7370   8.6329  21.0231   C.3       1 RES1   0.0000
   129 H60     -2.9120   9.5771  20.8236   H         1 RES1   0.0000
   130 H61     -3.5496   8.1098  20.8632   H         1 RES1   0.0000
   131 H62     -2.0176   8.3054  20.4442   H         1 RES1   0.0000
   132 C63     -2.4370   4.9475  19.6584   C.3       1 RES1   0.0000
   133 H63     -1.5851   5.1244  19.2080   H         1 RES1   0.0000
   134 H64     -3.0228   5.7281  19.5681   H         1 RES1   0.0000
   135 H65     -2.8672   4.1676  19.2491   H         1 RES1   0.0000
   136 C64      5.4394   4.1983  20.1794   C.3       1 RES1   0.0000
   137 H66      4.6576   3.7209  19.8319   H         1 RES1   0.0000
   138 H67      5.9522   3.6040  20.7654   H         1 RES1   0.0000
   139 H68      6.0039   4.4885  19.4327   H         1 RES1   0.0000
   140 C65      6.3205   6.7044  21.7553   C.3       1 RES1   0.0000
   141 H69      6.9541   6.8478  21.0203   H         1 RES1   0.0000
   142 H70      6.7697   6.2316  22.4856   H         1 RES1   0.0000
   143 H71      5.9949   7.5711  22.0775   H         1 RES1   0.0000
   144 C66      5.1530  10.2727  20.2760   C.3       1 RES1   0.0000
   145 H72      4.9700  10.1540  21.2313   H         1 RES1   0.0000
   146 H73      5.2941  11.2248  20.0871   H         1 RES1   0.0000
   147 H74      5.9562   9.7690  20.0313   H         1 RES1   0.0000
   148 C67     -0.3086   4.6042  13.3880   C.3       1 RES1   0.0000
   149 H75     -1.2873   4.6439  13.3519   H         1 RES1   0.0000
   150 H76     -0.0113   3.6914  13.1914   H         1 RES1   0.0000
   151 H77      0.0678   5.2202  12.7252   H         1 RES1   0.0000
   152 C68     -3.4358   8.9762  23.3879   C.3       1 RES1   0.0000
   153 H78     -3.1668   8.8548  24.3224   H         1 RES1   0.0000
   154 H79     -4.2505   8.4615  23.2124   H         1 RES1   0.0000
   155 H80     -3.6075   9.9269  23.2191   H         1 RES1   0.0000
   156 C69      2.9202   1.8902  23.3827   C.3       1 RES1   0.0000
   157 H81      2.8378   0.9341  23.1878   H         1 RES1   0.0000
   158 H82      3.5910   2.0237  24.0858   H         1 RES1   0.0000
   159 H83      3.1973   2.3672  22.5732   H         1 RES1   0.0000
   160 C70      3.0685   2.2961  15.8445   C.3       1 RES1   0.0000
   161 H84      3.5586   1.5453  16.2392   H         1 RES1   0.0000
   162 H85      2.2546   1.9630  15.4108   H         1 RES1   0.0000
   163 H86      2.8254   2.9339  16.5478   H         1 RES1   0.0000
   164 C71     -3.4816   4.3377  21.8855   C.3       1 RES1   0.0000
   165 H87     -3.9149   3.5675  21.4617   H         1 RES1   0.0000
   166 H88     -4.0846   5.1101  21.8524   H         1 RES1   0.0000
   167 H89     -3.2732   4.1248  22.8177   H         1 RES1   0.0000
   168 C72      4.3636   2.0557  13.6989   C.3       1 RES1   0.0000
   169 H90      4.9053   2.5557  13.0518   H         1 RES1   0.0000
   170 H91      3.5686   1.6985  13.2507   H         1 RES1   0.0000
   171 H92      4.8920   1.3179  14.0661   H         1 RES1   0.0000
@<TRIPOS>BOND
     1     1     9    1
     2     2    54    1
     3     3    57    1
     4     4     7    1
     5     5    10    3
     6     6    98    3
     7     7    11   ar
     8     8   103    3
     9     9     4    3
    10    10     1    1
    11    11    12    1
    12    12    17   ar
    13    13    30   ar
    14    14     5    1
    15    15    11   ar
    16    16    15    1
    17    17    48    1
    18    18    21   ar
    19    19     7   ar
    20    20    24   ar
    21    21    22    1
    22    23    14   ar
    23    24    18   ar
    24    25    15   ar
    25    26    25    1
    26    27    20    1
    27    28    27    1
    28    29    33   ar
    29    30    23    1
    30    31    20   ar
    31    32    31    1
    32    33    40   ar
    33    34    35    1
    34    36    34    1
    35    37    34    1
    36    38    13   ar
    37    39    38    1
    38    40    41    1
    39    42    19   ar
    40    43    42    1
    41    44    21   ar
    42    45    44    1
    43    46    14   ar
    44    47    30   ar
    45    48    34    1
    46    49    48    1
    47    50    29   ar
    48    51    23   ar
    49    52    51    1
    50    53    12   ar
    51    54     1   un
    52    55    47   ar
    53    56    55    1
    54    57     1   un
    55    58    33    1
    56    59    58    1
    57    60    46   ar
    58    61    60    1
    59    62    27    1
    60    63    62    1
    61    64    62    1
    62    65    62    1
    63    66    40   ar
    64    67    66    1
    65    68    18    1
    66    69    68    1
    67    70    53   ar
    68    71    70    1
    69    72    27    1
    70    73    72    1
    71    74    72    1
    72    75    72    1
    73    76    51   ar
    74    77    76    1
    75    78    38   ar
    76    79    78    1
    77    80    47    1
    78    81    80    1
    79    82    17   ar
    80    83    82    1
    81    84    50   ar
    82    85    84    1
    83    86    70   ar
    84    87    86    1
    85    88    48    1
    86    89    88    1
    87    90    88    1
    88    91    88    1
    89    92    50    1
    90    93    92    1
    91    94    53    1
    92    95    94    1
    93    96    13    1
    94    97    96    1
    95    98     1    1
    96    99    58    1
    97   100    99    1
    98   101    99    1
    99   102    99    1
   100   103     1    1
   101   104    58    1
   102   105   104    1
   103   106   104    1
   104   107   104    1
   105   108     3    1
   106   109   108    1
   107   110   108    1
   108   111   108    1
   109   112     2    1
   110   113   112    1
   111   114   112    1
   112   115   112    1
   113   116    68    1
   114   117   116    1
   115   118   116    1
   116   119   116    1
   117   120    96    1
   118   121   120    1
   119   122   120    1
   120   123   120    1
   121   124     3    1
   122   125   124    1
   123   126   124    1
   124   127   124    1
   125   128    92    1
   126   129   128    1
   127   130   128    1
   128   131   128    1
   129   132    80    1
   130   133   132    1
   131   134   132    1
   132   135   132    1
   133   136     2    1
   134   137   136    1
   135   138   136    1
   136   139   136    1
   137   140     2    1
   138   141   140    1
   139   142   140    1
   140   143   140    1
   141   144     3    1
   142   145   144    1
   143   146   144    1
   144   147   144    1
   145   148    68    1
   146   149   148    1
   147   150   148    1
   148   151   148    1
   149   152    92    1
   150   153   152    1
   151   154   152    1
   152   155   152    1
   153   156    96    1
   154   157   156    1
   155   158   156    1
   156   159   156    1
   157   160    94    1
   158   161   160    1
   159   162   160    1
   160   163   160    1
   161   164    80    1
   162   165   164    1
   163   166   164    1
   164   167   164    1
   165   168    94    1
   166   169   168    1
   167   170   168    1
   168   171   168    1
   169    19    24    1
   170    25    42   ar
   171    29    46    1
   172    31    44   ar
   173    54    57    3
   174    55    78   ar
   175    60    76   ar
   176    66    84   ar
   177    82    86   ar
@<TRIPOS>SUBSTRUCTURE
     1 RES1        1 GROUP             0 ****  ****    0  
@<TRIPOS>CRYSIN
   12.6742   20.1940   26.6760   90.0000  102.5500   90.0000   231     1
