@<TRIPOS>MOLECULE
SAVTAO
   200   209     3     0     0
SMALL
NO_CHARGES
****
Generated from the CSD

@<TRIPOS>ATOM
     1 Fe1      4.4734  10.0859   4.7832   Fe        1 RES1   0.0000
     2 P1       2.2935  10.3987   5.6905   P.3       1 RES1   0.0000
     3 P2       3.8175  11.5687   6.5668   P.3       1 RES1   0.0000
     4 N1       3.6770  12.4435   3.0831   N.1       1 RES1   0.0000
     5 N2       5.2940   7.4020   5.8535   N.1       1 RES1   0.0000
     6 O1       7.2587  11.0354   4.8971   O.2       1 RES1   0.0000
     7 O2       3.9093   8.3047   2.5247   O.2       1 RES1   0.0000
     8 C1       3.3490  13.4604   2.1991   C.ar      1 RES1   0.0000
     9 C2       5.8491   6.1305   5.7381   C.ar      1 RES1   0.0000
    10 C3       3.4947  13.2223   0.8229   C.ar      1 RES1   0.0000
    11 C4       2.9039  14.6865   2.7074   C.ar      1 RES1   0.0000
    12 C5       3.9962  11.5467   3.7473   C.1       1 RES1   0.0000
    13 C6       3.9583  11.8836   0.3466   C.ar      1 RES1   0.0000
    14 C7       6.8800   3.6102   5.3150   C.ar      1 RES1   0.0000
    15 H1       7.2182   2.7448   5.1161   H         1 RES1   0.0000
    16 C8       3.1908  14.2600  -0.0441   C.ar      1 RES1   0.0000
    17 H2       3.2795  14.1265  -0.9805   H         1 RES1   0.0000
    18 C9       7.1860   6.0180   5.3279   C.ar      1 RES1   0.0000
    19 C10      8.0804   7.1925   5.1497   C.ar      1 RES1   0.0000
    20 C11      2.7519  14.8950   4.1809   C.ar      1 RES1   0.0000
    21 C12      2.6140  15.6963   1.7922   C.ar      1 RES1   0.0000
    22 H3       2.3132  16.5402   2.1077   H         1 RES1   0.0000
    23 C13      5.0576   5.0106   6.0431   C.ar      1 RES1   0.0000
    24 C14      3.7593   5.1489   6.7853   C.ar      1 RES1   0.0000
    25 C15      7.6842   4.7237   5.1325   C.ar      1 RES1   0.0000
    26 H4       8.5898   4.6072   4.8700   H         1 RES1   0.0000
    27 C16      5.5821   3.7550   5.7882   C.ar      1 RES1   0.0000
    28 H5       5.0484   2.9837   5.9383   H         1 RES1   0.0000
    29 C17      8.5285   7.5436   3.8692   C.ar      1 RES1   0.0000
    30 C18      3.7100  15.4334   6.3190   C.ar      1 RES1   0.0000
    31 H6       4.4618  15.6559   6.8556   H         1 RES1   0.0000
    32 C19      1.4753  14.7726   4.7701   C.ar      1 RES1   0.0000
    33 C20      8.0256   6.8395   2.6226   C.3       1 RES1   0.0000
    34 H7       7.2906   6.2192   2.8951   H         1 RES1   0.0000
    35 C21      3.8166   5.0110   8.1833   C.ar      1 RES1   0.0000
    36 C22      1.3658  14.9929   6.1448   C.ar      1 RES1   0.0000
    37 H8       0.5165  14.9130   6.5640   H         1 RES1   0.0000
    38 C23      5.3340  11.6158   0.2819   C.ar      1 RES1   0.0000
    39 C24      3.4658   9.6423  -0.3928   C.ar      1 RES1   0.0000
    40 H9       2.8397   8.9672  -0.6260   H         1 RES1   0.0000
    41 C25      3.0094  10.9051   0.0041   C.ar      1 RES1   0.0000
    42 C26      9.4554   8.5753   3.7461   C.ar      1 RES1   0.0000
    43 H10      9.7779   8.8146   2.8851   H         1 RES1   0.0000
    44 C27      4.9277   8.4811   5.6128   C.1       1 RES1   0.0000
    45 C28      2.4819   5.5169   4.6095   C.3       1 RES1   0.0000
    46 H11      3.3929   5.7748   4.2868   H         1 RES1   0.0000
    47 C29      2.4617  15.3256   6.9012   C.ar      1 RES1   0.0000
    48 H12      2.3621  15.4812   7.8329   H         1 RES1   0.0000
    49 C30      4.8120   9.3709  -0.4481   C.ar      1 RES1   0.0000
    50 H13      5.1082   8.5070  -0.7102   H         1 RES1   0.0000
    51 C31      1.3806   5.4524   6.8849   C.ar      1 RES1   0.0000
    52 H14      0.5468   5.5992   6.4533   H         1 RES1   0.0000
    53 C32      5.7356  10.3425  -0.1257   C.ar      1 RES1   0.0000
    54 H15      6.6624  10.1416  -0.1821   H         1 RES1   0.0000
    55 C33      2.7570  15.4903   0.4301   C.ar      1 RES1   0.0000
    56 H16      2.5594  16.1913  -0.1796   H         1 RES1   0.0000
    57 C34      8.5194   7.9075   6.2903   C.ar      1 RES1   0.0000
    58 C35      6.3696  12.6918   0.5762   C.3       1 RES1   0.0000
    59 H17      5.9260  13.3934   1.1330   H         1 RES1   0.0000
    60 C36      3.8776  15.2202   4.9537   C.ar      1 RES1   0.0000
    61 C37      2.5480   5.3804   6.1223   C.ar      1 RES1   0.0000
    62 C38      0.2447  14.4103   3.9607   C.3       1 RES1   0.0000
    63 H18      0.5354  14.1951   3.0287   H         1 RES1   0.0000
    64 C39      9.9125   9.2587   4.8569   C.ar      1 RES1   0.0000
    65 H19     10.5541   9.9515   4.7579   H         1 RES1   0.0000
    66 C40      1.4208   5.3110   8.2594   C.ar      1 RES1   0.0000
    67 H20      0.6170   5.3645   8.7624   H         1 RES1   0.0000
    68 C41      5.2562  15.3763   4.3332   C.3       1 RES1   0.0000
    69 H21      5.1964  15.0928   3.3761   H         1 RES1   0.0000
    70 C42      9.1297   6.0045   1.9777   C.3       1 RES1   0.0000
    71 H22      9.8831   6.5850   1.7418   H         1 RES1   0.0000
    72 H23      8.7830   5.5742   1.1682   H         1 RES1   0.0000
    73 H24      9.4312   5.3181   2.6088   H         1 RES1   0.0000
    74 C43      5.1171   4.7707   8.9324   C.3       1 RES1   0.0000
    75 H25      5.8670   4.9388   8.2922   H         1 RES1   0.0000
    76 C44      6.1974  10.6354   4.8505   C.1       1 RES1   0.0000
    77 C45      2.6231   5.0948   8.9086   C.ar      1 RES1   0.0000
    78 H26      2.6379   5.0019   9.8541   H         1 RES1   0.0000
    79 C46      1.5204  11.1731   0.0730   C.3       1 RES1   0.0000
    80 H27      1.3971  12.1402   0.2983   H         1 RES1   0.0000
    81 C47      1.8459   9.3232   7.2158   C.3       1 RES1   0.0000
    82 H28      1.1409   8.6594   6.9644   H         1 RES1   0.0000
    83 C48      2.9805   8.6280   7.8261   C.2       1 RES1   0.0000
    84 H29      3.0279   7.6797   7.8310   H         1 RES1   0.0000
    85 C49      8.0640   7.5353   7.6935   C.3       1 RES1   0.0000
    86 H30      7.1876   7.0619   7.6109   H         1 RES1   0.0000
    87 C50      1.5085   6.5977   4.1620   C.3       1 RES1   0.0000
    88 H31      0.5911   6.3133   4.3588   H         1 RES1   0.0000
    89 H32      1.6042   6.7458   3.1979   H         1 RES1   0.0000
    90 H33      1.7014   7.4308   4.6410   H         1 RES1   0.0000
    91 C51      4.1237   9.0143   3.3854   C.1       1 RES1   0.0000
    92 C52      1.2599  10.3523   8.2255   C.3       1 RES1   0.0000
    93 H34      0.6124  10.9385   7.7578   H         1 RES1   0.0000
    94 H35      0.7734   9.8708   8.9406   H         1 RES1   0.0000
    95 C53     -0.7249  15.5735   3.8966   C.3       1 RES1   0.0000
    96 H36     -1.0105  15.8117   4.8034   H         1 RES1   0.0000
    97 H37     -1.5076  15.3180   3.3646   H         1 RES1   0.0000
    98 H38     -0.2846  16.3437   3.4801   H         1 RES1   0.0000
    99 C54      9.4372   8.9324   6.1078   C.ar      1 RES1   0.0000
   100 H39      9.7444   9.4200   6.8628   H         1 RES1   0.0000
   101 C55      2.3550  11.2107   8.8497   C.3       1 RES1   0.0000
   102 H40      2.3259  11.1087   9.8341   H         1 RES1   0.0000
   103 H41      2.1847  12.1615   8.6370   H         1 RES1   0.0000
   104 C56      7.4488   7.8417   1.6197   C.3       1 RES1   0.0000
   105 H42      6.7385   8.3622   2.0500   H         1 RES1   0.0000
   106 H43      7.0805   7.3595   0.8505   H         1 RES1   0.0000
   107 H44      8.1586   8.4464   1.3169   H         1 RES1   0.0000
   108 C57      3.9336   9.3576   8.3682   C.2       1 RES1   0.0000
   109 H45      4.6968   8.9527   8.7649   H         1 RES1   0.0000
   110 C58      5.7122  16.8409   4.3629   C.3       1 RES1   0.0000
   111 H46      5.0664  17.3931   3.8749   H         1 RES1   0.0000
   112 H47      6.5929  16.9169   3.9405   H         1 RES1   0.0000
   113 H48      5.7674  17.1463   5.2922   H         1 RES1   0.0000
   114 C59      2.1302   4.1724   3.9821   C.3       1 RES1   0.0000
   115 H49      2.8079   3.5091   4.2291   H         1 RES1   0.0000
   116 H50      2.1030   4.2641   3.0067   H         1 RES1   0.0000
   117 H51      1.2530   3.8799   4.3071   H         1 RES1   0.0000
   118 C60      3.7760  10.8191   8.3378   C.3       1 RES1   0.0000
   119 H52      4.4760  11.2495   8.9079   H         1 RES1   0.0000
   120 C61      6.8248  13.3558  -0.7287   C.3       1 RES1   0.0000
   121 H53      7.2834  12.6950  -1.2887   H         1 RES1   0.0000
   122 H54      7.4373  14.0923  -0.5239   H         1 RES1   0.0000
   123 H55      6.0435  13.7036  -1.2075   H         1 RES1   0.0000
   124 C62      7.5798  12.1727   1.3636   C.3       1 RES1   0.0000
   125 H56      7.2691  11.6837   2.1539   H         1 RES1   0.0000
   126 H57      8.1345  12.9299   1.6450   H         1 RES1   0.0000
   127 H58      8.1070  11.5743   0.7949   H         1 RES1   0.0000
   128 C63      0.8613  10.9287  -1.2787   C.3       1 RES1   0.0000
   129 H59      1.2831  11.4972  -1.9553   H         1 RES1   0.0000
   130 H60     -0.0931  11.1420  -1.2197   H         1 RES1   0.0000
   131 H61      0.9707   9.9869  -1.5282   H         1 RES1   0.0000
   132 C64      6.2962  14.4859   5.0229   C.3       1 RES1   0.0000
   133 H62      6.4586  14.8180   5.9310   H         1 RES1   0.0000
   134 H63      7.1327  14.5062   4.5135   H         1 RES1   0.0000
   135 H64      5.9612  13.5665   5.0664   H         1 RES1   0.0000
   136 C65      0.8579  10.3534   1.1781   C.3       1 RES1   0.0000
   137 H65      0.9693   9.3981   0.9886   H         1 RES1   0.0000
   138 H66     -0.0973  10.5687   1.2186   H         1 RES1   0.0000
   139 H67      1.2766  10.5656   2.0391   H         1 RES1   0.0000
   140 C66      5.2176   3.3101   9.3843   C.3       1 RES1   0.0000
   141 H68      4.4786   3.1064   9.9950   H         1 RES1   0.0000
   142 H69      6.0707   3.1692   9.8452   H         1 RES1   0.0000
   143 H70      5.1670   2.7225   8.6022   H         1 RES1   0.0000
   144 C67      5.2928   5.7232  10.0972   C.3       1 RES1   0.0000
   145 H71      5.2341   6.6472   9.7755   H         1 RES1   0.0000
   146 H72      6.1699   5.5765  10.5096   H         1 RES1   0.0000
   147 H73      4.5893   5.5625  10.7597   H         1 RES1   0.0000
   148 C68     -0.4672  13.1715   4.5431   C.3       1 RES1   0.0000
   149 H74      0.1640  12.4230   4.5874   H         1 RES1   0.0000
   150 H75     -1.2221  12.9274   3.9667   H         1 RES1   0.0000
   151 H76     -0.7962  13.3755   5.4428   H         1 RES1   0.0000
   152 C69      9.0523   6.5649   8.3080   C.3       1 RES1   0.0000
   153 H77      9.1348   5.7749   7.7333   H         1 RES1   0.0000
   154 H78      8.7345   6.2918   9.1939   H         1 RES1   0.0000
   155 H79      9.9267   6.9986   8.3939   H         1 RES1   0.0000
   156 C70      7.8570   8.7297   8.6106   C.3       1 RES1   0.0000
   157 H80      8.7240   9.1345   8.8212   H         1 RES1   0.0000
   158 H81      7.4256   8.4329   9.4400   H         1 RES1   0.0000
   159 H82      7.2871   9.3894   8.1645   H         1 RES1   0.0000
   160 C71      0.1842   1.9892   8.5648   C.3       2 RES2   0.0000
   161 H83     -0.2362   1.1552   8.2370   H         2 RES2   0.0000
   162 H84      0.2058   2.6310   7.8111   H         2 RES2   0.0000
   163 C72     -0.6761   2.5671   9.6741   C.3       2 RES2   0.0000
   164 H85     -0.6718   1.9458  10.4446   H         2 RES2   0.0000
   165 H86     -0.2843   3.4254   9.9744   H         2 RES2   0.0000
   166 C73      1.5961   1.6871   8.9833   C.3       2 RES2   0.0000
   167 H87      1.5868   0.9570   9.6510   H         2 RES2   0.0000
   168 H88      1.9849   2.4888   9.4140   H         2 RES2   0.0000
   169 C74     -2.0898   2.7996   9.2425   C.3       2 RES2   0.0000
   170 H89     -2.0962   3.3107   8.4057   H         2 RES2   0.0000
   171 H90     -2.5647   3.3044   9.9359   H         2 RES2   0.0000
   172 H91     -2.5352   1.9386   9.1025   H         2 RES2   0.0000
   173 C75      2.4725   1.2773   7.8117   C.3       2 RES2   0.0000
   174 H92      2.4318   1.9678   7.1158   H         2 RES2   0.0000
   175 H93      2.1529   0.4267   7.4452   H         2 RES2   0.0000
   176 H94      3.3983   1.1756   8.1154   H         2 RES2   0.0000
   177 C76     -0.9500  -0.5613  11.9178   C.ar      3 RES3   0.0000
   178 C77      0.4034  -0.9757  11.7807   C.ar      3 RES3   0.0000
   179 H95      0.9891  -0.8801  12.5229   H         3 RES3   0.0000
   180 C78      0.8943  -1.5069  10.6155   C.ar      3 RES3   0.0000
   181 C79      2.2836  -1.9048  10.4656   C.ar      3 RES3   0.0000
   182 H96      2.8832  -1.8078  11.1957   H         3 RES3   0.0000
   183 C80      2.7294  -2.4101   9.2982   C.ar      3 RES3   0.0000
   184 H97      3.6466  -2.6378   9.2014   H         3 RES3   0.0000
   185 C81     -1.4622   0.0069  13.0895   C.ar      3 RES3   0.0000
   186 H98     -0.8825   0.1560  13.8273   H         3 RES3   0.0000
   187 C82     -2.7757   0.3509  13.1923   C.ar      3 RES3   0.0000
   188 H99     -3.0982   0.7277  14.0027   H         3 RES3   0.0000
   189 C76A     0.0202  -1.6902   9.5017   C.ar      3 RES3   0.0000
   190 C77A    -1.3332  -1.2759   9.6388   C.ar      3 RES3   0.0000
   191 H95A    -1.9189  -1.3715   8.8966   H         3 RES3   0.0000
   192 C78A    -1.8241  -0.7447  10.8040   C.ar      3 RES3   0.0000
   193 C79A    -3.2134  -0.3468  10.9539   C.ar      3 RES3   0.0000
   194 H96A    -3.8130  -0.4438  10.2238   H         3 RES3   0.0000
   195 C80A    -3.6592   0.1585  12.1213   C.ar      3 RES3   0.0000
   196 H97A    -4.5764   0.3862  12.2181   H         3 RES3   0.0000
   197 C81A     0.5324  -2.2585   8.3301   C.ar      3 RES3   0.0000
   198 H98A    -0.0473  -2.4076   7.5922   H         3 RES3   0.0000
   199 C82A     1.8459  -2.6025   8.2272   C.ar      3 RES3   0.0000
   200 H99A     2.1684  -2.9793   7.4168   H         3 RES3   0.0000
@<TRIPOS>BOND
     1     1     2    1
     2     2     3    1
     3     3     1    1
     4     4     8    1
     5     5     9    1
     6     6    76    3
     7     7    91    3
     8     8    10   ar
     9     9    18   ar
    10    10    13    1
    11    11     8   ar
    12    12     1    1
    13    13    38   ar
    14    14    15    1
    15    16    10   ar
    16    17    16    1
    17    18    19    1
    18    19    29   ar
    19    20    11    1
    20    21    11   ar
    21    22    21    1
    22    23     9   ar
    23    24    23    1
    24    25    14   ar
    25    26    25    1
    26    27    14   ar
    27    28    27    1
    28    29    33    1
    29    30    31    1
    30    32    20   ar
    31    33    34    1
    32    35    24   ar
    33    36    32   ar
    34    37    36    1
    35    38    53   ar
    36    39    40    1
    37    41    13   ar
    38    42    29   ar
    39    43    42    1
    40    44     1    1
    41    45    46    1
    42    47    30   ar
    43    48    47    1
    44    49    39   ar
    45    50    49    1
    46    51    52    1
    47    53    49   ar
    48    54    53    1
    49    55    16   ar
    50    56    55    1
    51    57    19   ar
    52    58    38    1
    53    59    58    1
    54    60    20   ar
    55    61    24   ar
    56    62    32    1
    57    63    62    1
    58    64    42   ar
    59    65    64    1
    60    66    51   ar
    61    67    66    1
    62    68    60    1
    63    69    68    1
    64    70    33    1
    65    71    70    1
    66    72    70    1
    67    73    70    1
    68    74    35    1
    69    75    74    1
    70    76     1    1
    71    77    35   ar
    72    78    77    1
    73    79    41    1
    74    80    79    1
    75    81     2    1
    76    82    81    1
    77    83    81    1
    78    84    83    1
    79    85    57    1
    80    86    85    1
    81    87    45    1
    82    88    87    1
    83    89    87    1
    84    90    87    1
    85    91     1    1
    86    92    81    1
    87    93    92    1
    88    94    92    1
    89    95    62    1
    90    96    95    1
    91    97    95    1
    92    98    95    1
    93    99    57   ar
    94   100    99    1
    95   101    92    1
    96   102   101    1
    97   103   101    1
    98   104    33    1
    99   105   104    1
   100   106   104    1
   101   107   104    1
   102   108    83    2
   103   109   108    1
   104   110    68    1
   105   111   110    1
   106   112   110    1
   107   113   110    1
   108   114    45    1
   109   115   114    1
   110   116   114    1
   111   117   114    1
   112   118     3    1
   113   119   118    1
   114   120    58    1
   115   121   120    1
   116   122   120    1
   117   123   120    1
   118   124    58    1
   119   125   124    1
   120   126   124    1
   121   127   124    1
   122   128    79    1
   123   129   128    1
   124   130   128    1
   125   131   128    1
   126   132    68    1
   127   133   132    1
   128   134   132    1
   129   135   132    1
   130   136    79    1
   131   137   136    1
   132   138   136    1
   133   139   136    1
   134   140    74    1
   135   141   140    1
   136   142   140    1
   137   143   140    1
   138   144    74    1
   139   145   144    1
   140   146   144    1
   141   147   144    1
   142   148    62    1
   143   149   148    1
   144   150   148    1
   145   151   148    1
   146   152    85    1
   147   153   152    1
   148   154   152    1
   149   155   152    1
   150   156    85    1
   151   157   156    1
   152   158   156    1
   153   159   156    1
   154     4    12    3
   155     5    44    3
   156    18    25   ar
   157    21    55   ar
   158    23    27   ar
   159    30    60   ar
   160    36    47   ar
   161    39    41   ar
   162    45    61    1
   163    51    61   ar
   164    64    99   ar
   165    66    77   ar
   166   101   118    1
   167   108   118    1
   168   160   161    1
   169   162   160    1
   170   163   160    1
   171   164   163    1
   172   165   163    1
   173   166   160    1
   174   167   166    1
   175   168   166    1
   176   169   163    1
   177   170   169    1
   178   171   169    1
   179   172   169    1
   180   173   166    1
   181   174   173    1
   182   175   173    1
   183   176   173    1
   184   177   178   ar
   185   178   179    1
   186   180   178   ar
   187   181   180   ar
   188   182   181    1
   189   183   181   ar
   190   184   183    1
   191   185   177   ar
   192   186   185    1
   193   187   185   ar
   194   188   187    1
   195   189   180   ar
   196   190   189   ar
   197   191   190    1
   198   192   177   ar
   199   193   192   ar
   200   194   193    1
   201   195   187   ar
   202   196   195    1
   203   197   189   ar
   204   198   197    1
   205   199   183   ar
   206   200   199    1
   207   190   192   ar
   208   193   195   ar
   209   197   199   ar
@<TRIPOS>SUBSTRUCTURE
     1 RES1        1 GROUP             0 ****  ****    0  
     2 RES2      160 GROUP             0 ****  ****    0  
     3 RES3      177 GROUP             0 ****  ****    0  
@<TRIPOS>CRYSIN
   11.0720   15.7367   21.5576   95.0500   92.4720  106.3940     2     1
