@<TRIPOS>MOLECULE
SAVZAU
    98   100     6     0     0
SMALL
USER_CHARGES
****
Generated from the CSD

@<TRIPOS>ATOM
     1 Fe1      4.5223  16.4804  12.9938   Fe        1 RES1   0.0000
     2 O1       5.2450  16.6910  11.2490   O.3       1 RES1  -1.0000
     3 O2       4.1628  16.2960  15.0107   O.co2     1 RES1   0.0000
     4 O3       5.1738  15.4983  16.8364   O.co2     1 RES1   0.0000
     5 O4       3.3428  18.0680  13.0307   O.3       1 RES1   0.0000
     6 O5       5.3114  14.5410  13.1629   O.co2     1 RES1   0.0000
     7 O6       4.7067  12.6607  14.2051   O.co2     1 RES1   0.0000
     8 N1       4.2583  18.6777   7.8280   N.2       1 RES1   0.0000
     9 N2       3.3700  18.0054   6.9943   N.pl3     1 RES1   0.0000
    10 H1       3.1824  17.1585   7.1393   H         1 RES1   0.0000
    11 N3       2.9983  19.9142   5.7718   N.2       1 RES1   0.0000
    12 H2       3.5060  20.3476   6.3148   H         1 RES1   0.0000
    13 N4       2.0257  17.9750   5.1465   N.pl3     1 RES1   0.0000
    14 H3       1.6430  18.3842   4.4667   H         1 RES1   0.0000
    15 H4       1.8889  17.1162   5.2760   H         1 RES1   0.0000
    16 N5       6.2859  17.2893  13.9064   N.3       1 RES1   0.0000
    17 N6       3.8726  21.3500  10.5776   N.2       1 RES1   0.0000
    18 N7       4.8069  22.3035  10.9524   N.pl3     1 RES1   0.0000
    19 H5       5.0838  22.3980  11.7823   H         1 RES1   0.0000
    20 N8       4.8499  22.8505   8.7299   N.2       1 RES1   0.0000
    21 H6       4.2374  22.2346   8.5855   H         1 RES1   0.0000
    22 N9       6.1633  23.9749  10.1828   N.pl3     1 RES1   0.0000
    23 H7       6.5048  24.4420   9.5193   H         1 RES1   0.0000
    24 H8       6.4347  24.1196  11.0073   H         1 RES1   0.0000
    25 N10      2.9328  15.1906  12.3693   N.3       1 RES1   0.0000
    26 C1       5.9667  17.7793  10.9143   C.ar      1 RES1   0.0000
    27 C2       7.0666  18.1630  11.7480   C.ar      1 RES1   0.0000
    28 C3       7.7612  19.3007  11.4234   C.ar      1 RES1   0.0000
    29 H9       8.4925  19.5494  11.9758   H         1 RES1   0.0000
    30 C4       7.4607  20.1022  10.3432   C.ar      1 RES1   0.0000
    31 C5       6.4039  19.6729   9.5275   C.ar      1 RES1   0.0000
    32 H10      6.1804  20.1888   8.7606   H         1 RES1   0.0000
    33 C6       5.6718  18.5220   9.7980   C.ar      1 RES1   0.0000
    34 C7       4.6824  18.0358   8.8501   C.2       1 RES1   0.0000
    35 H11      4.3213  17.1702   9.0009   H         1 RES1   0.0000
    36 C8       2.8027  18.6530   5.9702   C.2       1 RES1   0.0000
    37 C9       8.2480  21.3633  10.0906   C.3       1 RES1   0.0000
    38 H12      9.2063  21.1618  10.1271   H         1 RES1   0.0000
    39 H13      8.0270  22.0284  10.7748   H         1 RES1   0.0000
    40 H14      8.0215  21.7165   9.2052   H         1 RES1   0.0000
    41 C10      7.3989  17.2665  12.9385   C.3       1 RES1   0.0000
    42 H15      7.5519  16.3399  12.6276   H         1 RES1   0.0000
    43 H16      8.2276  17.5867  13.3768   H         1 RES1   0.0000
    44 C11      6.5461  16.4422  15.0909   C.3       1 RES1   0.0000
    45 H17      7.0373  15.6193  14.8035   H         1 RES1   0.0000
    46 C12      7.4111  17.2172  16.0769   C.3       1 RES1   0.0000
    47 H18      7.0991  17.0817  17.0069   H         1 RES1   0.0000
    48 H19      8.3595  16.9414  16.0117   H         1 RES1   0.0000
    49 C13      7.2351  18.6587  15.6520   C.3       1 RES1   0.0000
    50 H20      8.0844  19.0269  15.2998   H         1 RES1   0.0000
    51 H21      6.9372  19.2160  16.4137   H         1 RES1   0.0000
    52 C14      6.1708  18.6226  14.5618   C.3       1 RES1   0.0000
    53 H22      5.2693  18.7396  14.9540   H         1 RES1   0.0000
    54 H23      6.3250  19.3468  13.9033   H         1 RES1   0.0000
    55 C15      5.2272  16.0320  15.7462   C.2       1 RES1   0.0000
    56 C16      2.5874  18.2067  11.9164   C.ar      1 RES1   0.0000
    57 C17      1.6775  17.1602  11.5977   C.ar      1 RES1   0.0000
    58 C18      0.9324  17.2722  10.4253   C.ar      1 RES1   0.0000
    59 H24      0.3447  16.5611  10.2005   H         1 RES1   0.0000
    60 C19      0.9960  18.3852   9.5495   C.ar      1 RES1   0.0000
    61 C20      1.8844  19.4184   9.9504   C.ar      1 RES1   0.0000
    62 H25      1.9462  20.1987   9.4107   H         1 RES1   0.0000
    63 C21      2.6754  19.3368  11.1087   C.ar      1 RES1   0.0000
    64 C22      3.6545  20.3871  11.4294   C.2       1 RES1   0.0000
    65 H26      4.1267  20.3645  12.2535   H         1 RES1   0.0000
    66 C23      5.2562  23.0708   9.9443   C.2       1 RES1   0.0000
    67 C24      0.2256  18.4935   8.2890   C.3       1 RES1   0.0000
    68 H27     -0.7260  18.3502   8.4755   H         1 RES1   0.0000
    69 H28      0.5397  17.8144   7.6555   H         1 RES1   0.0000
    70 H29      0.3531  19.3844   7.9033   H         1 RES1   0.0000
    71 C25      1.6232  15.9693  12.4094   C.3       1 RES1   0.0000
    72 H30      0.8889  15.3884  12.0876   H         1 RES1   0.0000
    73 H31      1.4236  16.2220  13.3454   H         1 RES1   0.0000
    74 C26      2.9571  13.9940  13.2852   C.3       1 RES1   0.0000
    75 H32      2.4744  14.1881  14.1400   H         1 RES1   0.0000
    76 C27      2.2700  12.8792  12.5176   C.3       1 RES1   0.0000
    77 H33      1.3312  12.7759  12.8135   H         1 RES1   0.0000
    78 H34      2.7431  12.0194  12.6488   H         1 RES1   0.0000
    79 C28      2.3300  13.3103  11.0526   C.3       1 RES1   0.0000
    80 H35      2.7574  12.6078  10.5004   H         1 RES1   0.0000
    81 H36      1.4197  13.4787  10.7018   H         1 RES1   0.0000
    82 C29      3.1593  14.5904  11.0226   C.3       1 RES1   0.0000
    83 H37      4.1181  14.3885  10.8817   H         1 RES1   0.0000
    84 H38      2.8482  15.1982  10.3069   H         1 RES1   0.0000
    85 C30      4.4811  13.6693  13.5597   C.2       1 RES1   0.0000
    86 O7       7.0619  25.0119  12.7180   O.3       2 RES2   0.0000
    87 H39      7.4607  24.7669  13.4074   H         2 RES2   0.0000
    88 H40      6.2438  25.0328  12.9064   H         2 RES2   0.0000
    89 O8       7.0535  13.4224  17.3695   O.3       3 RES3   0.0000
    90 H41      7.4420  13.5610  16.6340   H         3 RES3   0.0000
    91 H42      6.4685  14.0358  17.4357   H         3 RES3   0.0000
    92 O9       3.2286  15.1925   7.0745   O.3       4 RES4   0.0000
    93 H43      2.4339  14.9095   7.1146   H         4 RES4   0.0000
    94 H44      3.5104  14.9475   6.3129   H         4 RES4   0.0000
    95 Na1      4.9641  14.7253   4.4331   Na        5 RES5   1.0000
    96 O10      6.1623  21.8894  13.4455   O.3       6 RES6   0.0000
    97 H45      6.9739  22.0319  13.6078   H         6 RES6   0.0000
    98 H46      5.7757  21.9559  14.1890   H         6 RES6   0.0000
@<TRIPOS>BOND
     1     1     2    1
     2     2    26    1
     3     3     1    1
     4     4    55    2
     5     5     1    1
     6     6     1    1
     7     7    85    2
     8     8     9    1
     9     9    10    1
    10    11    12    1
    11    13    14    1
    12    15    13    1
    13    16     1    1
    14    17    18    1
    15    18    19    1
    16    20    21    1
    17    22    23    1
    18    24    22    1
    19    25     1    1
    20    26    27   ar
    21    27    28   ar
    22    28    29    1
    23    30    28   ar
    24    31    30   ar
    25    32    31    1
    26    33    26   ar
    27    34     8    2
    28    35    34    1
    29    36     9    1
    30    37    30    1
    31    38    37    1
    32    39    37    1
    33    40    37    1
    34    41    16    1
    35    42    41    1
    36    43    41    1
    37    44    16    1
    38    45    44    1
    39    46    44    1
    40    47    46    1
    41    48    46    1
    42    49    46    1
    43    50    49    1
    44    51    49    1
    45    52    16    1
    46    53    52    1
    47    54    52    1
    48    55     3    1
    49    56     5    1
    50    57    56   ar
    51    58    57   ar
    52    59    58    1
    53    60    58   ar
    54    61    60   ar
    55    62    61    1
    56    63    56   ar
    57    64    17    2
    58    65    64    1
    59    66    18    1
    60    67    60    1
    61    68    67    1
    62    69    67    1
    63    70    67    1
    64    71    25    1
    65    72    71    1
    66    73    71    1
    67    74    25    1
    68    75    74    1
    69    76    74    1
    70    77    76    1
    71    78    76    1
    72    79    76    1
    73    80    79    1
    74    81    79    1
    75    82    25    1
    76    83    82    1
    77    84    82    1
    78    85     6    1
    79    11    36    2
    80    13    36    1
    81    20    66    2
    82    22    66    1
    83    27    41    1
    84    31    33   ar
    85    33    34    1
    86    44    55    1
    87    49    52    1
    88    57    71    1
    89    61    63   ar
    90    63    64    1
    91    74    85    1
    92    79    82    1
    93    86    87    1
    94    88    86    1
    95    89    90    1
    96    91    89    1
    97    92    93    1
    98    94    92    1
    99    96    97    1
   100    98    96    1
@<TRIPOS>SUBSTRUCTURE
     1 RES1        1 GROUP             0 ****  ****    0  
     2 RES2       86 GROUP             0 ****  ****    0  
     3 RES3       89 GROUP             0 ****  ****    0  
     4 RES4       92 GROUP             0 ****  ****    0  
     5 RES5       95 GROUP             0 ****  ****    0  
     6 RES6       96 GROUP             0 ****  ****    0  
@<TRIPOS>CRYSIN
    9.3610   18.9930   20.0410   90.0000   90.0000   90.0000    19     1
