@<TRIPOS>MOLECULE
SAVZIB
    77    82     5     0     0
SMALL
USER_CHARGES
****
Generated from the CSD

@<TRIPOS>ATOM
     1 Fe1      8.1260   1.1782   5.3324   Fe        1 RES1   2.0000
     2 S1       2.4124   1.2682   2.3990   S.3       1 RES1   0.0000
     3 S2      14.1281   1.2654   7.6464   S.3       1 RES1   0.0000
     4 O1       4.7764   1.2008   7.6307   O.3       1 RES1   0.0000
     5 O2       7.9100   1.3607   1.2943   O.3       1 RES1   0.0000
     6 O3       9.8894   4.7733   5.8497   O.3       1 RES1   0.0000
     7 O4       9.8957  -2.2762   6.4935   O.3       1 RES1   0.0000
     8 N1       6.9266   1.2337   6.9210   N.2       1 RES1   0.0000
     9 N2       6.4115   1.1741   4.4980   N.ar      1 RES1   0.0000
    10 N3       8.6554   1.1443   3.4233   N.2       1 RES1   0.0000
    11 N4       8.4504   3.1070   5.3530   N.2       1 RES1   0.0000
    12 N5       9.8767   1.2306   6.0728   N.ar      1 RES1   0.0000
    13 N6       8.4542  -0.7462   5.6554   N.2       1 RES1   0.0000
    14 C1       7.0165   1.2290   8.4046   C.3       1 RES1   0.0000
    15 H1       7.6113   1.9501   8.7273   H         1 RES1   0.0000
    16 H2       7.3519   0.3590   8.7391   H         1 RES1   0.0000
    17 C2       5.5750   1.4673   8.8422   C.3       1 RES1   0.0000
    18 H3       5.3206   0.8512   9.5738   H         1 RES1   0.0000
    19 H4       5.4484   2.4000   9.1497   H         1 RES1   0.0000
    20 C3       5.6560   1.1992   6.6473   C.2       1 RES1   0.0000
    21 C4       5.2813   1.1788   5.2398   C.ar      1 RES1   0.0000
    22 C5       4.0246   1.1976   4.6771   C.ar      1 RES1   0.0000
    23 H5       3.2450   1.1898   5.2212   H         1 RES1   0.0000
    24 C6       3.9310   1.2306   3.2763   C.ar      1 RES1   0.0000
    25 C7       1.1846   1.1083   3.7004   C.3       1 RES1   0.0000
    26 H6       0.2873   1.1193   3.3051   H         1 RES1   0.0000
    27 H7       1.3213   0.2634   4.1769   H         1 RES1   0.0000
    28 H8       1.2732   1.8560   4.3273   H         1 RES1   0.0000
    29 C8       5.0902   1.2682   2.5041   C.ar      1 RES1   0.0000
    30 H9       5.0409   1.3184   1.5562   H         1 RES1   0.0000
    31 C9       6.3166   1.2321   3.1462   C.ar      1 RES1   0.0000
    32 C10      7.6670   1.2353   2.6004   C.2       1 RES1   0.0000
    33 C11      9.3971   1.3685   1.1828   C.3       1 RES1   0.0000
    34 H10      9.7185   2.2338   0.8246   H         1 RES1   0.0000
    35 H11      9.7097   0.6411   0.5897   H         1 RES1   0.0000
    36 C12      9.8970   1.1522   2.6258   C.3       1 RES1   0.0000
    37 H12     10.3792   0.2916   2.7086   H         1 RES1   0.0000
    38 H13     10.4969   1.8874   2.9080   H         1 RES1   0.0000
    39 C13      7.7316   4.3375   4.9576   C.3       1 RES1   0.0000
    40 H14      6.8621   4.4065   5.4239   H         1 RES1   0.0000
    41 H15      7.5746   4.3564   3.9792   H         1 RES1   0.0000
    42 C14      8.6706   5.4662   5.3817   C.3       1 RES1   0.0000
    43 H16      8.8744   6.0619   4.6163   H         1 RES1   0.0000
    44 H17      8.2694   6.0039   6.1083   H         1 RES1   0.0000
    45 C15      9.5958   3.4675   5.7872   C.2       1 RES1   0.0000
    46 C16     10.5260   2.4125   6.2130   C.ar      1 RES1   0.0000
    47 C17     11.8207   2.5003   6.6811   C.ar      1 RES1   0.0000
    48 H18     12.2523   3.3421   6.7622   H         1 RES1   0.0000
    49 C18     12.4851   1.3215   7.0325   C.ar      1 RES1   0.0000
    50 C19     14.4848   2.9941   7.9805   C.3       1 RES1   0.0000
    51 H19     15.3948   3.0788   8.3336   H         1 RES1   0.0000
    52 H20     14.4076   3.5099   7.1491   H         1 RES1   0.0000
    53 H21     13.8457   3.3390   8.6377   H         1 RES1   0.0000
    54 C20     11.8144   0.0941   6.8940   C.ar      1 RES1   0.0000
    55 H22     12.2384  -0.7211   7.1373   H         1 RES1   0.0000
    56 C21     10.5260   0.0988   6.3955   C.ar      1 RES1   0.0000
    57 C22      9.5983  -1.0111   6.1590   C.2       1 RES1   0.0000
    58 C23      8.6959  -3.0647   6.1049   C.3       1 RES1   0.0000
    59 H23      8.3441  -3.5757   6.8771   H         1 RES1   0.0000
    60 H24      8.9111  -3.6980   5.3732   H         1 RES1   0.0000
    61 C24      7.6759  -2.0065   5.6335   C.3       1 RES1   0.0000
    62 H25      7.3506  -2.2087   4.7210   H         1 RES1   0.0000
    63 H26      6.9026  -1.9595   6.2502   H         1 RES1   0.0000
    64 Cl1      9.6664   5.4933   1.7901   Cl        2 RES2   0.0000
    65 O5       8.3352   6.0619   1.8773   O.3       2 RES2  -1.0000
    66 O6       9.7299   4.2466   2.4940   O.2       2 RES2   0.0000
    67 O7      10.0071   5.3063   0.4157   O.2       2 RES2   0.0000
    68 O8      10.5969   6.3974   2.4298   O.2       2 RES2   0.0000
    69 Cl2      4.4601   5.3515   6.6643   Cl        3 RES3   0.0000
    70 O9       5.4851   6.2610   6.2198   O.2       3 RES3   0.0000
    71 O10      5.0864   4.1839   7.2235   O.2       3 RES3   0.0000
    72 O11      3.6462   4.9552   5.5287   O.3       3 RES3  -1.0000
    73 O12      3.6272   5.9851   7.6459   O.2       3 RES3   0.0000
    74 O13      0.8404   5.4678   5.6250   O.3       4 RES4   0.0000
    75 C25      0.3265   5.2436   4.3442   C.2       4 RES4   0.0000
    76 O14      6.4356   5.8581  -0.3481   O.3       5 RES5   0.0000
    77 C26      6.5318   4.4598  -0.6083   C.3       5 RES5   0.0000
@<TRIPOS>BOND
     1     1     8    1
     2     2    24    1
     3     3    49    1
     4     4    17    1
     5     5    32    1
     6     6    42    1
     7     7    57    1
     8     8    14    1
     9     9     1    1
    10    10     1    1
    11    11     1    1
    12    12     1    1
    13    13     1    1
    14    14    15    1
    15    16    14    1
    16    17    14    1
    17    18    17    1
    18    19    17    1
    19    20     4    1
    20    21     9   ar
    21    22    21   ar
    22    23    22    1
    23    24    22   ar
    24    25     2    1
    25    26    25    1
    26    27    25    1
    27    28    25    1
    28    29    24   ar
    29    30    29    1
    30    31     9   ar
    31    32    10    2
    32    33     5    1
    33    34    33    1
    34    35    33    1
    35    36    10    1
    36    37    36    1
    37    38    36    1
    38    39    11    1
    39    40    39    1
    40    41    39    1
    41    42    39    1
    42    43    42    1
    43    44    42    1
    44    45     6    1
    45    46    12   ar
    46    47    46   ar
    47    48    47    1
    48    49    47   ar
    49    50     3    1
    50    51    50    1
    51    52    50    1
    52    53    50    1
    53    54    49   ar
    54    55    54    1
    55    56    12   ar
    56    57    13    2
    57    58     7    1
    58    59    58    1
    59    60    58    1
    60    61    13    1
    61    62    61    1
    62    63    61    1
    63     8    20    2
    64    11    45    2
    65    20    21    1
    66    29    31   ar
    67    31    32    1
    68    33    36    1
    69    45    46    1
    70    54    56   ar
    71    56    57    1
    72    58    61    1
    73    64    65    1
    74    66    64    2
    75    67    64    2
    76    68    64    2
    77    69    70    2
    78    71    69    2
    79    72    69    1
    80    73    69    2
    81    74    75    1
    82    76    77    1
@<TRIPOS>SUBSTRUCTURE
     1 RES1        1 GROUP             0 ****  ****    0  
     2 RES2       64 GROUP             0 ****  ****    0  
     3 RES3       69 GROUP             0 ****  ****    0  
     4 RES4       74 GROUP             0 ****  ****    0  
     5 RES5       76 GROUP             0 ****  ****    0  
@<TRIPOS>CRYSIN
   12.6560   15.6760   16.8970   90.0000   90.0000   90.0000    19     1
