@<TRIPOS>MOLECULE
SAXFIH
    83    91     2     0     0
SMALL
USER_CHARGES
****
Generated from the CSD

@<TRIPOS>ATOM
     1 Fe1      3.8686   3.4022   5.0080   Fe        1 RES1   2.0000
     2 O4       3.2945   3.1742   6.9556   O.2       1 RES1   0.0000
     3 N1       4.6858   4.3835   8.2863   N.am      1 RES1   0.0000
     4 H1       4.7809   4.6994   9.1026   H         1 RES1   0.0000
     5 N2       5.8746   2.8626   5.6731   N.ar      1 RES1   0.0000
     6 N3       4.5416   5.4417   5.3285   N.ar      1 RES1   0.0000
     7 C1       7.7389   3.1417   7.1455   C.ar      1 RES1   0.0000
     8 H2       8.1398   3.5911   7.8796   H         1 RES1   0.0000
     9 C2       3.5829   3.6749   8.0679   C.2       1 RES1   0.0000
    10 C3       5.7766   4.7094   7.3408   C.3       1 RES1   0.0000
    11 H3       6.4818   5.1415   7.9027   H         1 RES1   0.0000
    12 C4       5.3990   5.7615   6.3131   C.ar      1 RES1   0.0000
    13 C5       6.4651   3.5013   6.7108   C.ar      1 RES1   0.0000
    14 C6       1.9326   2.2460   9.2158   C.ar      1 RES1   0.0000
    15 H4       2.0192   1.6363   8.4916   H         1 RES1   0.0000
    16 C7       1.0791   1.9577  10.2615   C.ar      1 RES1   0.0000
    17 H5       0.5771   1.1504  10.2584   H         1 RES1   0.0000
    18 C8       2.6710   3.4328   9.2188   C.ar      1 RES1   0.0000
    19 C9       2.5410   4.3224  10.2715   C.ar      1 RES1   0.0000
    20 H6       3.0397   5.1310  10.2795   H         1 RES1   0.0000
    21 C10      7.8150   1.4771   5.4347   C.ar      1 RES1   0.0000
    22 H7       8.2614   0.7758   4.9750   H         1 RES1   0.0000
    23 C11      5.9901   7.0124   6.3872   C.ar      1 RES1   0.0000
    24 H8       6.5739   7.2249   7.1054   H         1 RES1   0.0000
    25 C12      1.6762   4.0233  11.3151   C.ar      1 RES1   0.0000
    26 H9       1.5800   4.6341  12.0363   H         1 RES1   0.0000
    27 C13      5.7246   7.9438   5.4077   C.ar      1 RES1   0.0000
    28 H10      6.1327   8.8016   5.4387   H         1 RES1   0.0000
    29 C14      4.8627   7.6212   4.3850   C.ar      1 RES1   0.0000
    30 H11      4.6718   8.2432   3.6929   H         1 RES1   0.0000
    31 C15      8.4148   2.1206   6.4934   C.ar      1 RES1   0.0000
    32 H12      9.2856   1.8664   6.7769   H         1 RES1   0.0000
    33 C16      4.2859   6.3747   4.3900   C.ar      1 RES1   0.0000
    34 H13      3.6750   6.1575   3.6959   H         1 RES1   0.0000
    35 C17      6.5536   1.8751   5.0581   C.ar      1 RES1   0.0000
    36 H14      6.1394   1.4306   4.3279   H         1 RES1   0.0000
    37 C18      0.9554   2.8480  11.3151   C.ar      1 RES1   0.0000
    38 H15      0.3737   2.6482  12.0393   H         1 RES1   0.0000
    39 O4A      4.4428   3.6301   3.0605   O.2       1 RES1   0.0000
    40 N1A      3.0515   2.4208   1.7298   N.am      1 RES1   0.0000
    41 H1A      2.9564   2.1049   0.9135   H         1 RES1   0.0000
    42 N2A      1.8626   3.9417   4.3430   N.ar      1 RES1   0.0000
    43 N3A      3.1956   1.3626   4.6875   N.ar      1 RES1   0.0000
    44 C1A     -0.0017   3.6626   2.8706   C.ar      1 RES1   0.0000
    45 H2A     -0.4026   3.2132   2.1364   H         1 RES1   0.0000
    46 C2A      4.1544   3.1295   1.9481   C.2       1 RES1   0.0000
    47 C3A      1.9607   2.0950   2.6753   C.3       1 RES1   0.0000
    48 H3A      1.2555   1.6628   2.1134   H         1 RES1   0.0000
    49 C4A      2.3383   1.0428   3.7029   C.ar      1 RES1   0.0000
    50 C5A      1.2721   3.3030   3.3053   C.ar      1 RES1   0.0000
    51 C6A      5.8046   4.5583   0.8003   C.ar      1 RES1   0.0000
    52 H4A      5.7181   5.1680   1.5244   H         1 RES1   0.0000
    53 C7A      6.6582   4.8466  -0.2454   C.ar      1 RES1   0.0000
    54 H5A      7.1602   5.6539  -0.2424   H         1 RES1   0.0000
    55 C8A      5.0663   3.3716   0.7973   C.ar      1 RES1   0.0000
    56 C9A      5.1962   2.4819  -0.2554   C.ar      1 RES1   0.0000
    57 H6A      4.6975   1.6733  -0.2634   H         1 RES1   0.0000
    58 C10A    -0.0778   5.3272   4.5813   C.ar      1 RES1   0.0000
    59 H7A     -0.5242   6.0285   5.0411   H         1 RES1   0.0000
    60 C11A     1.7471  -0.2081   3.6288   C.ar      1 RES1   0.0000
    61 H8A      1.1634  -0.4205   2.9107   H         1 RES1   0.0000
    62 C12A     6.0610   2.7810  -1.2991   C.ar      1 RES1   0.0000
    63 H9A      6.1572   2.1702  -2.0202   H         1 RES1   0.0000
    64 C13A     2.0126  -1.1395   4.6084   C.ar      1 RES1   0.0000
    65 H10A     1.6046  -1.9973   4.5773   H         1 RES1   0.0000
    66 C14A     2.8746  -0.8169   5.6310   C.ar      1 RES1   0.0000
    67 H11A     3.0655  -1.4389   6.3231   H         1 RES1   0.0000
    68 C15A    -0.6775   4.6837   3.5226   C.ar      1 RES1   0.0000
    69 H12A    -1.5483   4.9379   3.2392   H         1 RES1   0.0000
    70 C16A     3.4514   0.4296   5.6260   C.ar      1 RES1   0.0000
    71 H13A     4.0623   0.6468   6.3201   H         1 RES1   0.0000
    72 C17A     1.1837   4.9292   4.9579   C.ar      1 RES1   0.0000
    73 H14A     1.5978   5.3737   5.6881   H         1 RES1   0.0000
    74 C18A     6.7819   3.9563  -1.2991   C.ar      1 RES1   0.0000
    75 H15A     7.3635   4.1561  -2.0232   H         1 RES1   0.0000
    76 S1       5.6782   6.5001  11.5905   S.o2      2 RES2   0.0000
    77 O1       6.7063   7.4439  11.9061   O.3       2 RES2  -1.0000
    78 O2       5.3539   6.3820  10.1913   O.2       2 RES2   0.0000
    79 F1       5.5978   3.8810  11.6917   F         2 RES2   0.0000
    80 O3       4.5376   6.5158  12.4650   O.2       2 RES2   0.0000
    81 F2       6.8593   4.7712  13.1851   F         2 RES2   0.0000
    82 F3       7.5108   4.6971  11.1449   F         2 RES2   0.0000
    83 C19      6.4493   4.8905  11.9031   C.3       2 RES2   0.0000
@<TRIPOS>BOND
     1     1     2    1
     2     2     9    2
     3     3     4    1
     4     5     1    1
     5     6     1    1
     6     7     8    1
     7     9     3   am
     8    10     3    1
     9    11    10    1
    10    12     6   ar
    11    13     5   ar
    12    14    15    1
    13    16    14   ar
    14    17    16    1
    15    18     9    1
    16    19    18   ar
    17    20    19    1
    18    21    22    1
    19    23    12   ar
    20    24    23    1
    21    25    19   ar
    22    26    25    1
    23    27    23   ar
    24    28    27    1
    25    29    27   ar
    26    30    29    1
    27    31     7   ar
    28    32    31    1
    29    33     6   ar
    30    34    33    1
    31    35     5   ar
    32    36    35    1
    33    37    16   ar
    34    38    37    1
    35    39     1    1
    36    40    41    1
    37    42     1    1
    38    43     1    1
    39    44    45    1
    40    46    39    2
    41    47    40    1
    42    48    47    1
    43    49    43   ar
    44    50    42   ar
    45    51    52    1
    46    53    51   ar
    47    54    53    1
    48    55    46    1
    49    56    55   ar
    50    57    56    1
    51    58    59    1
    52    60    49   ar
    53    61    60    1
    54    62    56   ar
    55    63    62    1
    56    64    60   ar
    57    65    64    1
    58    66    64   ar
    59    67    66    1
    60    68    44   ar
    61    69    68    1
    62    70    43   ar
    63    71    70    1
    64    72    42   ar
    65    73    72    1
    66    74    53   ar
    67    75    74    1
    68     7    13   ar
    69    10    12    1
    70    10    13    1
    71    14    18   ar
    72    21    31   ar
    73    21    35   ar
    74    25    37   ar
    75    29    33   ar
    76    40    46   am
    77    44    50   ar
    78    47    49    1
    79    47    50    1
    80    51    55   ar
    81    58    68   ar
    82    58    72   ar
    83    62    74   ar
    84    66    70   ar
    85    76    77    1
    86    78    76    2
    87    79    83    1
    88    80    76    2
    89    81    83    1
    90    82    83    1
    91    83    76    1
@<TRIPOS>SUBSTRUCTURE
     1 RES1        1 GROUP             0 ****  ****    0  
     2 RES2       76 GROUP             0 ****  ****    0  
@<TRIPOS>CRYSIN
    9.0468   10.5152   10.7334  110.0640   95.6960   91.3310     2     1
