@<TRIPOS>MOLECULE
SEBWAY
   131   142     2     0     0
SMALL
NO_CHARGES
****
Generated from the CSD

@<TRIPOS>ATOM
     1 Fe1      8.9255  11.8052  30.1641   Fe        1 RES1   0.0000
     2 N1      10.2571  11.5599  31.4883   N.2       1 RES1   0.0000
     3 O1      11.0196  12.5991  31.9675   O.3       1 RES1   0.0000
     4 N2       9.0688   9.9208  30.1917   N.2       1 RES1   0.0000
     5 O2       8.1386   9.0966  29.5951   O.3       1 RES1   0.0000
     6 N3      10.3332  12.5898  29.1105   N.2       1 RES1   0.0000
     7 O3      11.3176  13.4127  29.6904   O.3       1 RES1   0.0000
     8 N4       8.2328  11.6236  28.3586   N.2       1 RES1   0.0000
     9 O4       7.1684  10.7570  28.0736   O.3       1 RES1   0.0000
    10 N5       7.1051  11.6289  30.7467   N.2       1 RES1   0.0000
    11 O5       6.3452  10.5592  30.3723   O.3       1 RES1   0.0000
    12 N6       8.5914  13.5414  30.8846   N.2       1 RES1   0.0000
    13 O6       9.6236  14.4174  31.1563   O.3       1 RES1   0.0000
    14 B1       6.9026   9.8412  29.2023   B         1 RES1   0.0000
    15 F1       5.9891   8.9387  28.7846   F         1 RES1   0.0000
    16 B2      10.9525  13.7909  31.0583   B         1 RES1   0.0000
    17 F2      11.8698  14.7094  31.5081   F         1 RES1   0.0000
    18 C1      10.7100  10.3070  31.7406   C.2       1 RES1   0.0000
    19 C2      11.9240  10.0111  32.5290   C.ar      1 RES1   0.0000
    20 C3      12.7923   9.0475  32.0276   C.ar      1 RES1   0.0000
    21 H1      12.6298   8.6587  31.1982   H         1 RES1   0.0000
    22 C4      13.9187   8.6600  32.7819   C.ar      1 RES1   0.0000
    23 H2      14.5160   8.0282  32.4474   H         1 RES1   0.0000
    24 C5      14.1238   9.2453  34.0378   C.ar      1 RES1   0.0000
    25 H3      14.8450   8.9772  34.5600   H         1 RES1   0.0000
    26 C6      13.2994  10.1717  34.4850   C.ar      1 RES1   0.0000
    27 H4      13.4658  10.5433  35.3211   H         1 RES1   0.0000
    28 C7      12.1434  10.6455  33.7409   C.ar      1 RES1   0.0000
    29 H5      11.5924  11.3263  34.0549   H         1 RES1   0.0000
    30 C8       9.8907   9.3448  31.0440   C.2       1 RES1   0.0000
    31 C9      10.0003   6.9359  30.3638   C.ar      1 RES1   0.0000
    32 H6       9.9810   7.1908  29.4713   H         1 RES1   0.0000
    33 C10     10.0816   5.5941  30.7033   C.ar      1 RES1   0.0000
    34 H7      10.1152   4.9491  30.0378   H         1 RES1   0.0000
    35 C11     10.1165   5.2172  32.0071   C.ar      1 RES1   0.0000
    36 H8      10.1552   4.3147  32.2290   H         1 RES1   0.0000
    37 C12     10.0932   6.1449  32.9832   C.ar      1 RES1   0.0000
    38 H9      10.1629   5.8768  33.8740   H         1 RES1   0.0000
    39 C13      9.9707   7.4562  32.6952   C.ar      1 RES1   0.0000
    40 H10      9.9010   8.0760  33.3860   H         1 RES1   0.0000
    41 C14      9.9474   7.8929  31.3627   C.ar      1 RES1   0.0000
    42 C15      6.4858  12.6880  31.2307   C.2       1 RES1   0.0000
    43 C16      5.0382  12.8340  31.3982   C.ar      1 RES1   0.0000
    44 C17      4.2267  11.7776  31.8699   C.ar      1 RES1   0.0000
    45 H11      4.6021  10.9613  32.1095   H         1 RES1   0.0000
    46 C18      2.8617  11.9859  31.9662   C.ar      1 RES1   0.0000
    47 H12      2.3224  11.2985  32.2870   H         1 RES1   0.0000
    48 C19      2.2901  13.1526  31.6146   C.ar      1 RES1   0.0000
    49 H13      1.3689  13.2534  31.6829   H         1 RES1   0.0000
    50 C20      3.0681  14.2103  31.1505   C.ar      1 RES1   0.0000
    51 H14      2.6720  15.0199  30.9218   H         1 RES1   0.0000
    52 C21      4.4344  14.0418  31.0344   C.ar      1 RES1   0.0000
    53 H15      4.9582  14.7386  30.7136   H         1 RES1   0.0000
    54 C22      7.4354  13.7803  31.4583   C.2       1 RES1   0.0000
    55 C23      7.1825  14.9124  32.3491   C.ar      1 RES1   0.0000
    56 C24      6.7723  14.6722  33.6488   C.ar      1 RES1   0.0000
    57 H16      6.6394  13.8016  33.9423   H         1 RES1   0.0000
    58 C25      6.5555  15.7738  34.5293   C.ar      1 RES1   0.0000
    59 H17      6.2704  15.6238  35.4030   H         1 RES1   0.0000
    60 C26      6.7697  17.0439  34.0890   C.ar      1 RES1   0.0000
    61 H18      6.6381  17.7579  34.6693   H         1 RES1   0.0000
    62 C27      7.1696  17.2828  32.8126   C.ar      1 RES1   0.0000
    63 H19      7.2845  18.1561  32.5122   H         1 RES1   0.0000
    64 C28      7.4083  16.2064  31.9525   C.ar      1 RES1   0.0000
    65 H20      7.7270  16.3697  31.0958   H         1 RES1   0.0000
    66 C29      8.9862  11.9647  27.3692   C.2       1 RES1   0.0000
    67 C30      7.5451  11.3821  25.3620   C.3       1 RES1   0.0000
    68 H21      6.7903  11.6727  25.9149   H         1 RES1   0.0000
    69 C31      7.4161   9.9261  25.1077   C.3       1 RES1   0.0000
    70 H22      7.4948   9.4550  25.9525   H         1 RES1   0.0000
    71 H23      8.1541   9.6421  24.5463   H         1 RES1   0.0000
    72 C32      6.1052   9.5147  24.4388   C.3       1 RES1   0.0000
    73 C33      4.9621   9.5412  25.4371   C.3       1 RES1   0.0000
    74 H24      4.1467   9.2904  24.9968   H         1 RES1   0.0000
    75 H25      4.8718  10.4265  25.7955   H         1 RES1   0.0000
    76 H26      5.1427   8.9241  26.1470   H         1 RES1   0.0000
    77 C34      6.2588   8.1145  23.8193   C.3       1 RES1   0.0000
    78 H27      5.4317   7.8557  23.4064   H         1 RES1   0.0000
    79 H28      6.4833   7.4841  24.5088   H         1 RES1   0.0000
    80 H29      6.9555   8.1304  23.1606   H         1 RES1   0.0000
    81 C35      6.1530  11.8784  23.2828   C.3       1 RES1   0.0000
    82 C36      5.0382  12.7610  23.8705   C.3       1 RES1   0.0000
    83 H30      4.9028  12.5327  24.7954   H         1 RES1   0.0000
    84 H31      4.2241  12.6150  23.3859   H         1 RES1   0.0000
    85 H32      5.2911  13.6834  23.8023   H         1 RES1   0.0000
    86 C37      6.3504  12.2567  21.8138   C.3       1 RES1   0.0000
    87 H33      7.0419  11.7099  21.4336   H         1 RES1   0.0000
    88 H34      6.6032  13.1804  21.7510   H         1 RES1   0.0000
    89 H35      5.5311  12.1160  21.3347   H         1 RES1   0.0000
    90 C38      7.4806  12.1147  24.0210   C.2       1 RES1   0.0000
    91 H36      8.1683  12.6442  23.6896   H         1 RES1   0.0000
    92 N7       8.7979  11.7736  26.0289   N.pl3     1 RES1   0.0000
    93 H37      9.4830  11.8944  25.5224   H         1 RES1   0.0000
    94 N8       5.7814  10.4636  23.3265   N.3       1 RES1   0.0000
    95 O7       4.7776  10.1040  22.5978   O.3       1 RES1   0.0000
    96 C39     10.1513  12.7305  27.8207   C.2       1 RES1   0.0000
    97 C40     12.0221  14.3139  27.1088   C.3       1 RES1   0.0000
    98 H38     12.5691  13.9290  27.8262   H         1 RES1   0.0000
    99 C41     11.6273  15.6928  27.4951   C.3       1 RES1   0.0000
   100 H39     11.0725  16.0671  26.7921   H         1 RES1   0.0000
   101 H40     11.0906  15.6490  28.3040   H         1 RES1   0.0000
   102 C42     12.8156  16.6365  27.7443   C.3       1 RES1   0.0000
   103 C43     12.4104  18.0725  27.6897   C.3       1 RES1   0.0000
   104 H41     13.1820  18.6273  27.8296   H         1 RES1   0.0000
   105 H42     11.7602  18.2477  28.3723   H         1 RES1   0.0000
   106 H43     12.0311  18.2649  26.8296   H         1 RES1   0.0000
   107 C44     13.4658  16.4122  29.0378   C.3       1 RES1   0.0000
   108 H44     13.7510  15.4964  29.0958   H         1 RES1   0.0000
   109 H45     12.8439  16.5993  29.7443   H         1 RES1   0.0000
   110 H46     14.2270  16.9908  29.1163   H         1 RES1   0.0000
   111 C45     14.1032  15.1513  25.9729   C.3       1 RES1   0.0000
   112 C46     15.1340  14.3550  26.8569   C.3       1 RES1   0.0000
   113 H47     15.9378  14.8713  26.9525   H         1 RES1   0.0000
   114 H48     15.3392  13.5189  26.4337   H         1 RES1   0.0000
   115 H49     14.7534  14.1917  27.7238   H         1 RES1   0.0000
   116 C47     14.5496  15.5335  24.4814   C.3       1 RES1   0.0000
   117 H50     13.8438  16.0233  24.0514   H         1 RES1   0.0000
   118 H51     14.7289  14.7306  23.9866   H         1 RES1   0.0000
   119 H52     15.3418  16.0737  24.5122   H         1 RES1   0.0000
   120 C48     12.8285  14.3391  25.8466   C.3       1 RES1   0.0000
   121 H53     12.2866  14.7107  25.1333   H         1 RES1   0.0000
   122 H54     13.0581  13.4286  25.6009   H         1 RES1   0.0000
   123 N9      10.8364  13.4631  26.9095   N.pl3     1 RES1   0.0000
   124 H55     10.5384  13.4260  26.1026   H         1 RES1   0.0000
   125 N10     13.7755  16.4732  26.6081   N.3       1 RES1   0.0000
   126 O8      14.7005  17.3704  26.5463   O.3       1 RES1   0.0000
   127 C49      2.8591   9.6501  28.9593   C.3       2 RES2   0.0000
   128 H56      2.9210   9.7642  29.9218   H         2 RES2   0.0000
   129 H57      3.7300   9.8492  28.5839   H         2 RES2   0.0000
   130 Cl1      2.4591   7.9778  28.6146   Cl        2 RES2   0.0000
   131 Cl2      1.6902  10.8008  28.3245   Cl        2 RES2   0.0000
@<TRIPOS>BOND
     1     1     2    1
     2     2     3    1
     3     3    16    1
     4     4     1    1
     5     5     4    1
     6     6     1    1
     7     7     6    1
     8     8     1    1
     9     9     8    1
    10    10     1    1
    11    11    10    1
    12    12     1    1
    13    13    12    1
    14    14     5    1
    15    15    14    1
    16    16     7    1
    17    17    16    1
    18    18     2    2
    19    19    18    1
    20    20    19   ar
    21    21    20    1
    22    22    20   ar
    23    23    22    1
    24    24    22   ar
    25    25    24    1
    26    26    24   ar
    27    27    26    1
    28    28    19   ar
    29    29    28    1
    30    30     4    2
    31    31    32    1
    32    33    31   ar
    33    34    33    1
    34    35    33   ar
    35    36    35    1
    36    37    35   ar
    37    38    37    1
    38    39    37   ar
    39    40    39    1
    40    41    30    1
    41    42    10    2
    42    43    42    1
    43    44    43   ar
    44    45    44    1
    45    46    44   ar
    46    47    46    1
    47    48    46   ar
    48    49    48    1
    49    50    48   ar
    50    51    50    1
    51    52    43   ar
    52    53    52    1
    53    54    12    2
    54    55    54    1
    55    56    55   ar
    56    57    56    1
    57    58    56   ar
    58    59    58    1
    59    60    58   ar
    60    61    60    1
    61    62    60   ar
    62    63    62    1
    63    64    55   ar
    64    65    64    1
    65    66     8    2
    66    67    68    1
    67    69    67    1
    68    70    69    1
    69    71    69    1
    70    72    69    1
    71    73    72    1
    72    74    73    1
    73    75    73    1
    74    76    73    1
    75    77    72    1
    76    78    77    1
    77    79    77    1
    78    80    77    1
    79    81    82    1
    80    82    83    1
    81    84    82    1
    82    85    82    1
    83    86    81    1
    84    87    86    1
    85    88    86    1
    86    89    86    1
    87    90    67    1
    88    91    90    1
    89    92    66    1
    90    93    92    1
    91    94    72    1
    92    95    94    1
    93    96     6    2
    94    97    98    1
    95    99    97    1
    96   100    99    1
    97   101    99    1
    98   102    99    1
    99   103   102    1
   100   104   103    1
   101   105   103    1
   102   106   103    1
   103   107   102    1
   104   108   107    1
   105   109   107    1
   106   110   107    1
   107   111   112    1
   108   112   113    1
   109   114   112    1
   110   115   112    1
   111   116   111    1
   112   117   116    1
   113   118   116    1
   114   119   116    1
   115   120    97    1
   116   121   120    1
   117   122   120    1
   118   123    96    1
   119   124   123    1
   120   125   102    1
   121   126   125    1
   122     9    14    1
   123    11    14    1
   124    13    16    1
   125    18    30    1
   126    26    28   ar
   127    31    41   ar
   128    39    41   ar
   129    42    54    1
   130    50    52   ar
   131    62    64   ar
   132    66    96    1
   133    67    92    1
   134    81    90    1
   135    81    94    1
   136    97   123    1
   137   111   120    1
   138   111   125    1
   139   127   128    1
   140   129   127    1
   141   130   127    1
   142   131   127    1
@<TRIPOS>SUBSTRUCTURE
     1 RES1        1 GROUP             0 ****  ****    0  
     2 RES2      127 GROUP             0 ****  ****    0  
@<TRIPOS>CRYSIN
   12.9020   13.2720   34.1300   90.0000   90.0000   90.0000    19     1
