@<TRIPOS>MOLECULE
SEDCOT
    86    88     2     0     0
SMALL
NO_CHARGES
****
Generated from the CSD

@<TRIPOS>ATOM
     1 Fe1      9.3428  10.0395   1.7357   Fe        1 RES1   0.0000
     2 C1       7.9794   8.9704   1.2049   C.1       1 RES1   0.0000
     3 C2       9.1501   9.5073   3.4055   C.1       1 RES1   0.0000
     4 C3      10.9059  11.2062   2.1820   C.2       1 RES1   0.0000
     5 C4      11.7175  11.3752   1.1217   C.2       1 RES1   0.0000
     6 C5      11.2797  10.6256  -0.1391   C.3       1 RES1   0.0000
     7 C6      11.5300   9.1502   0.2224   C.2       1 RES1   0.0000
     8 C7      11.3150  11.5774   3.5534   C.2       1 RES1   0.0000
     9 C8      11.2325  13.1369   5.2983   C.3       1 RES1   0.0000
    10 C9      13.0839  11.9525   1.1841   C.2       1 RES1   0.0000
    11 C10     14.4278  13.6053   2.1864   C.3       1 RES1   0.0000
    12 C11     11.8876  11.0825  -1.4612   C.3       1 RES1   0.0000
    13 C12     12.6837   8.4133  -0.3845   C.3       1 RES1   0.0000
    14 C13      9.0223  10.3414  -1.2761   C.ar      1 RES1   0.0000
    15 C14      9.1780   9.0752  -1.7964   C.ar      1 RES1   0.0000
    16 C15      8.3778   8.6456  -2.8567   C.ar      1 RES1   0.0000
    17 C16      7.4230   9.4777  -3.3869   C.ar      1 RES1   0.0000
    18 C17      7.2781  10.7494  -2.8753   C.ar      1 RES1   0.0000
    19 C18      8.0757  11.1868  -1.8293   C.ar      1 RES1   0.0000
    20 C19      6.6726   7.7982  -4.9062   C.3       1 RES1   0.0000
    21 C20     10.9088   7.3740   1.6485   C.ar      1 RES1   0.0000
    22 C21     11.5552   7.2124   2.8534   C.ar      1 RES1   0.0000
    23 C22     11.7642   5.9272   3.3683   C.ar      1 RES1   0.0000
    24 C23     11.2947   4.8344   2.6935   C.ar      1 RES1   0.0000
    25 C24     10.6129   5.0012   1.4974   C.ar      1 RES1   0.0000
    26 C25     10.4103   6.2648   0.9836   C.ar      1 RES1   0.0000
    27 C26     12.0449   3.3040   4.3552   C.3       1 RES1   0.0000
    28 C27      5.6843  11.5075   0.8555   C.3       1 RES1   0.0000
    29 C28      7.6451  13.4731   4.0879   C.3       1 RES1   0.0000
    30 N1       9.7760  10.8107  -0.1117   N.pl3     1 RES1   0.0000
    31 N2      10.7397   8.7041   1.1129   N.2       1 RES1   0.0000
    32 O1       7.1188   8.2735   0.9431   O.2       1 RES1   0.0000
    33 O2       9.0046   9.1607   4.4888   O.2       1 RES1   0.0000
    34 O3      10.9131  12.7741   3.9400   O.3       1 RES1   0.0000
    35 O4      11.9224  10.8157   4.2654   O.2       1 RES1   0.0000
    36 O5      13.1286  12.9990   2.0045   O.3       1 RES1   0.0000
    37 O6      14.0414  11.5429   0.5773   O.2       1 RES1   0.0000
    38 O7       6.5978   9.1520  -4.4373   O.3       1 RES1   0.0000
    39 O8      11.4734   3.5287   3.0857   O.3       1 RES1   0.0000
    40 O9       6.4184  11.3623   2.0659   O.3       1 RES1   0.0000
    41 O10      8.2026  12.9324   1.2126   O.2       1 RES1   0.0000
    42 O11      8.0644  12.1523   3.6531   O.3       1 RES1   0.0000
    43 P1       7.9829  11.7687   2.1021   P.3       1 RES1   0.0000
    44 H1       9.7480   8.4379  -1.5226   H         1 RES1   0.0000
    45 H2       8.4963   7.8517  -3.1766   H         1 RES1   0.0000
    46 H3       6.5924  11.3430  -3.1985   H         1 RES1   0.0000
    47 H4       7.9664  12.0174  -1.4349   H         1 RES1   0.0000
    48 H5      11.8246   7.9683   3.3409   H         1 RES1   0.0000
    49 H6      12.1888   5.8258   4.2281   H         1 RES1   0.0000
    50 H7      10.2481   4.2951   1.0625   H         1 RES1   0.0000
    51 H8       9.9964   6.3649   0.1314   H         1 RES1   0.0000
    52 H9      10.7560  12.4765   5.8164   H         1 RES1   0.0000
    53 H10     11.9843  12.7662   5.6850   H         1 RES1   0.0000
    54 H11     10.7707  13.9926   5.3892   H         1 RES1   0.0000
    55 H12     15.0526  12.9539   2.6289   H         1 RES1   0.0000
    56 H13     14.8669  13.7756   1.2597   H         1 RES1   0.0000
    57 H14     14.3075  14.1645   2.7384   H         1 RES1   0.0000
    58 H15     11.6689  11.9787  -1.5992   H         1 RES1   0.0000
    59 H16     12.8058  11.0516  -1.4130   H         1 RES1   0.0000
    60 H17     11.5305  10.5964  -2.1907   H         1 RES1   0.0000
    61 H18     12.4195   8.2711  -1.1720   H         1 RES1   0.0000
    62 H19     13.4836   8.9671  -0.3177   H         1 RES1   0.0000
    63 H20     12.8929   7.6664   0.0219   H         1 RES1   0.0000
    64 H21      7.5378   7.5715  -5.2140   H         1 RES1   0.0000
    65 H22      6.2805   7.1915  -4.1624   H         1 RES1   0.0000
    66 H23      6.0362   7.8448  -5.6412   H         1 RES1   0.0000
    67 H24     12.9909   3.6616   4.3815   H         1 RES1   0.0000
    68 H25     11.5234   3.6849   5.0277   H         1 RES1   0.0000
    69 H26     12.1848   2.2834   4.3924   H         1 RES1   0.0000
    70 H27      5.8069  12.4828   0.6134   H         1 RES1   0.0000
    71 H28      6.1868  10.7754   0.3615   H         1 RES1   0.0000
    72 H29      4.7519  11.5114   1.2159   H         1 RES1   0.0000
    73 H30      8.1047  14.1007   3.5819   H         1 RES1   0.0000
    74 H31      6.6083  13.3917   3.8995   H         1 RES1   0.0000
    75 H32      7.8986  13.4933   5.1044   H         1 RES1   0.0000
    76 H39      9.6409  11.7187  -0.0767   H         1 RES1   0.0000
    77 C29      5.3876   8.5843   4.0299   C.3       2 RES2   0.0000
    78 C30      4.2419   8.1316   3.1985   C.2       2 RES2   0.0000
    79 C31      3.1290   9.0866   3.0364   C.3       2 RES2   0.0000
    80 O12      4.2329   7.0671   2.6869   O.2       2 RES2   0.0000
    81 H33      5.5186   9.5085   3.7900   H         2 RES2   0.0000
    82 H34      5.1053   8.5999   4.8854   H         2 RES2   0.0000
    83 H35      6.0387   7.9456   3.9433   H         2 RES2   0.0000
    84 H36      2.5727   8.9764   3.9324   H         2 RES2   0.0000
    85 H37      3.4860   9.9131   2.6727   H         2 RES2   0.0000
    86 H38      2.7252   8.8048   2.3550   H         2 RES2   0.0000
@<TRIPOS>BOND
     1     1     2    1
     2     2    32    3
     3     3     1    1
     4     4     1    1
     5     5     4    2
     6     6     5    1
     7     7     6    1
     8     8     4    1
     9     9    34    1
    10    10     5    1
    11    11    36    1
    12    12     6    1
    13    13     7    1
    14    14    15   ar
    15    15    16   ar
    16    16    17   ar
    17    17    18   ar
    18    18    19   ar
    19    19    14   ar
    20    20    38    1
    21    21    22   ar
    22    22    23   ar
    23    23    24   ar
    24    24    25   ar
    25    25    26   ar
    26    26    21   ar
    27    27    39    1
    28    28    40    1
    29    29    42    1
    30    30     1    1
    31    31     1    1
    32    33     3    3
    33    34     8    1
    34    35     8    2
    35    36    10    1
    36    37    10    2
    37    38    17    1
    38    39    24    1
    39    40    43    1
    40    41    43    2
    41    42    43    1
    42    43     1    1
    43    44    15    1
    44    45    16    1
    45    46    18    1
    46    47    19    1
    47    48    22    1
    48    49    23    1
    49    50    25    1
    50    51    26    1
    51    52     9    1
    52    53     9    1
    53    54     9    1
    54    55    11    1
    55    56    11    1
    56    57    11    1
    57    58    12    1
    58    59    12    1
    59    60    12    1
    60    61    13    1
    61    62    13    1
    62    63    13    1
    63    64    20    1
    64    65    20    1
    65    66    20    1
    66    67    27    1
    67    68    27    1
    68    69    27    1
    69    70    28    1
    70    71    28    1
    71    72    28    1
    72    73    29    1
    73    74    29    1
    74    75    29    1
    75    76    30    1
    76     6    30    1
    77     7    31    2
    78    14    30    1
    79    21    31    1
    80    77    78    1
    81    78    79    1
    82    79    84    1
    83    80    78    2
    84    81    77    1
    85    82    77    1
    86    83    77    1
    87    85    79    1
    88    86    79    1
@<TRIPOS>SUBSTRUCTURE
     1 RES1        1 GROUP             0 ****  ****    0  
     2 RES2       77 GROUP             0 ****  ****    0  
@<TRIPOS>CRYSIN
   11.8330   13.7400   11.6070  102.9400  106.7900   76.5400     2     1
