@<TRIPOS>MOLECULE
SEDRAV
    91    89     4     0     0
SMALL
USER_CHARGES
****
Generated from the CSD

@<TRIPOS>ATOM
     1 Fe1      2.8232   0.0321   4.5759   Fe        1 RES1  -2.0000
     2 C1       3.1737  -1.8415   4.7916   C.1       1 RES1   0.0000
     3 N1       3.3822  -2.9627   4.9782   N.1       1 RES1   0.0000
     4 C2       1.0198  -0.3228   5.0831   C.1       1 RES1   0.0000
     5 N2      -0.0726  -0.5493   5.3854   N.1       1 RES1   0.0000
     6 C3       2.3799  -0.1914   2.7069   C.1       1 RES1   0.0000
     7 N3       2.1537  -0.2707   1.5877   N.1       1 RES1   0.0000
     8 C4       3.3286   0.3160   6.4177   C.1       1 RES1   0.0000
     9 N4       3.6771   0.5142   7.4976   N.1       1 RES1   0.0000
    10 C5       5.7830  -0.2593   4.6056   C.ar      1 RES1   0.0000
    11 H1       5.5872  -0.9411   5.2061   H         1 RES1   0.0000
    12 N5       2.4089   2.0249   4.3990   N.ar      1 RES1   0.0000
    13 C6       7.1015   0.0260   4.3628   C.ar      1 RES1   0.0000
    14 H2       7.7721  -0.4621   4.7819   H         1 RES1   0.0000
    15 N6       4.7590   0.3851   4.0291   N.ar      1 RES1   0.0000
    16 C7       7.4185   1.0317   3.5003   C.ar      1 RES1   0.0000
    17 H3       8.3063   1.2639   3.3530   H         1 RES1   0.0000
    18 C8       6.4086   1.6999   2.8549   C.ar      1 RES1   0.0000
    19 H4       6.5963   2.3783   2.2472   H         1 RES1   0.0000
    20 C9       5.0944   1.3318   3.1343   C.ar      1 RES1   0.0000
    21 H5       4.4115   1.7656   2.6767   H         1 RES1   0.0000
    22 C10      3.1986   2.9661   4.9322   C.ar      1 RES1   0.0000
    23 H6       3.9499   2.6886   5.4031   H         1 RES1   0.0000
    24 C11      2.9651   4.3217   4.8243   C.ar      1 RES1   0.0000
    25 H7       3.5596   4.9333   5.1954   H         1 RES1   0.0000
    26 C12      1.8560   4.7532   4.1695   C.ar      1 RES1   0.0000
    27 H8       1.6738   5.6626   4.0949   H         1 RES1   0.0000
    28 C13      0.9974   3.8132   3.6150   C.ar      1 RES1   0.0000
    29 H9       0.2280   4.0782   3.1666   H         1 RES1   0.0000
    30 C14      1.3177   2.4655   3.7465   C.ar      1 RES1   0.0000
    31 H10      0.7480   1.8381   3.3636   H         1 RES1   0.0000
    32 O1       4.6967   1.0804  10.0815   O.3       2 RES2   0.0000
    33 H51      4.3398   0.7701   9.2478   H         2 RES2   0.0000
    34 N7       5.2906   8.6887   0.5057   N.4       3 RES3   1.0000
    35 C15      4.5528   8.3489   1.7699   C.3       3 RES3   0.0000
    36 H11      3.6988   8.8099   1.7608   H         3 RES3   0.0000
    37 H12      5.0597   8.6910   2.5223   H         3 RES3   0.0000
    38 C16      4.2977   6.8801   1.9974   C.3       3 RES3   0.0000
    39 H13      3.7057   6.5482   1.3171   H         3 RES3   0.0000
    40 H14      3.8949   6.7543   2.8595   H         3 RES3   0.0000
    41 H15      5.1275   6.4010   1.9596   H         3 RES3   0.0000
    42 C17      4.5720   8.1111  -0.7010   C.3       3 RES3   0.0000
    43 H16      5.0634   8.3637  -1.4999   H         3 RES3   0.0000
    44 H17      4.5962   7.1439  -0.6372   H         3 RES3   0.0000
    45 C18      3.1417   8.5415  -0.8662   C.3       3 RES3   0.0000
    46 H18      2.6333   8.2640  -0.0994   H         3 RES3   0.0000
    47 H19      2.7755   8.1372  -1.6561   H         3 RES3   0.0000
    48 H20      3.1013   9.4962  -0.9479   H         3 RES3   0.0000
    49 C19      5.3591  10.1859   0.4349   C.3       3 RES3   0.0000
    50 H21      5.7865  10.5143   1.2407   H         3 RES3   0.0000
    51 H22      4.4545  10.5370   0.4189   H         3 RES3   0.0000
    52 C20      6.1103  10.7295  -0.7668   C.3       3 RES3   0.0000
    53 H23      7.0076  10.3886  -0.7650   H         3 RES3   0.0000
    54 H24      6.1325  11.6887  -0.7242   H         3 RES3   0.0000
    55 H25      5.6649  10.4554  -1.5727   H         3 RES3   0.0000
    56 C21      6.6692   8.0794   0.5041   C.3       3 RES3   0.0000
    57 H26      6.5800   7.1156   0.5680   H         3 RES3   0.0000
    58 H27      7.0933   8.2787  -0.3461   H         3 RES3   0.0000
    59 C22      7.5714   8.5517   1.6117   C.3       3 RES3   0.0000
    60 H28      7.7967   9.4747   1.4697   H         3 RES3   0.0000
    61 H29      8.3718   8.0239   1.6188   H         3 RES3   0.0000
    62 H30      7.1187   8.4599   2.4531   H         3 RES3   0.0000
    63 N8      -0.9849   2.9446   7.4431   N.4       4 RES4   1.0000
    64 C23      0.5186   2.8845   7.2983   C.3       4 RES4   0.0000
    65 H31      0.7871   3.5063   6.6030   H         4 RES4   0.0000
    66 H32      0.7645   1.9932   7.0042   H         4 RES4   0.0000
    67 C24      1.2981   3.2084   8.5609   C.3       4 RES4   0.0000
    68 H33      1.0746   4.0952   8.8555   H         4 RES4   0.0000
    69 H34      2.2390   3.1586   8.3780   H         4 RES4   0.0000
    70 H35      1.0710   2.5765   9.2478   H         4 RES4   0.0000
    71 C25     -1.4362   2.0601   8.5720   C.3       4 RES4   0.0000
    72 H36     -2.4046   2.0567   8.5946   H         4 RES4   0.0000
    73 H37     -1.1243   2.4417   9.4075   H         4 RES4   0.0000
    74 C26     -0.9483   0.6297   8.4828   C.3       4 RES4   0.0000
    75 H38     -1.3079   0.2186   7.6929   H         4 RES4   0.0000
    76 H39     -1.2417   0.1438   9.2567   H         4 RES4   0.0000
    77 H40      0.0106   0.6206   8.4419   H         4 RES4   0.0000
    78 C27     -1.4655   4.3274   7.7692   C.3       4 RES4   0.0000
    79 H41     -1.0957   4.5856   8.6283   H         4 RES4   0.0000
    80 H42     -2.4310   4.3024   7.8633   H         4 RES4   0.0000
    81 C28     -1.1139   5.3863   6.7628   C.3       4 RES4   0.0000
    82 H43     -0.1591   5.4701   6.7077   H         4 RES4   0.0000
    83 H44     -1.4924   6.2255   7.0361   H         4 RES4   0.0000
    84 H45     -1.4633   5.1405   5.9037   H         4 RES4   0.0000
    85 C29     -1.5566   2.4689   6.1243   C.3       4 RES4   0.0000
    86 H46     -1.2657   3.0771   5.4262   H         4 RES4   0.0000
    87 H47     -1.1818   1.5969   5.9250   H         4 RES4   0.0000
    88 C30     -3.0505   2.3658   6.0700   C.3       4 RES4   0.0000
    89 H48     -3.3409   1.6252   6.6066   H         4 RES4   0.0000
    90 H49     -3.3298   2.2311   5.1617   H         4 RES4   0.0000
    91 H50     -3.4395   3.1767   6.4078   H         4 RES4   0.0000
@<TRIPOS>BOND
     1     1     2    1
     2     2     3    3
     3     4     1    1
     4     5     4    3
     5     6     1    1
     6     7     6    3
     7     8     1    1
     8     9     8    3
     9    10    11    1
    10    12     1    1
    11    13    10   ar
    12    14    13    1
    13    15     1    1
    14    16    13   ar
    15    17    16    1
    16    18    16   ar
    17    19    18    1
    18    20    15   ar
    19    21    20    1
    20    22    12   ar
    21    23    22    1
    22    24    22   ar
    23    25    24    1
    24    26    24   ar
    25    27    26    1
    26    28    26   ar
    27    29    28    1
    28    30    12   ar
    29    31    30    1
    30    10    15   ar
    31    18    20   ar
    32    28    30   ar
    33    32    33    1
    34    34    35    1
    35    35    36    1
    36    37    35    1
    37    38    35    1
    38    39    38    1
    39    40    38    1
    40    41    38    1
    41    42    34    1
    42    43    42    1
    43    44    42    1
    44    45    42    1
    45    46    45    1
    46    47    45    1
    47    48    45    1
    48    49    34    1
    49    50    49    1
    50    51    49    1
    51    52    49    1
    52    53    52    1
    53    54    52    1
    54    55    52    1
    55    56    34    1
    56    57    56    1
    57    58    56    1
    58    59    56    1
    59    60    59    1
    60    61    59    1
    61    62    59    1
    62    63    64    1
    63    64    65    1
    64    66    64    1
    65    67    64    1
    66    68    67    1
    67    69    67    1
    68    70    67    1
    69    71    63    1
    70    72    71    1
    71    73    71    1
    72    74    71    1
    73    75    74    1
    74    76    74    1
    75    77    74    1
    76    78    63    1
    77    79    78    1
    78    80    78    1
    79    81    78    1
    80    82    81    1
    81    83    81    1
    82    84    81    1
    83    85    63    1
    84    86    85    1
    85    87    85    1
    86    88    85    1
    87    89    88    1
    88    90    88    1
    89    91    88    1
@<TRIPOS>SUBSTRUCTURE
     1 RES1        1 GROUP             0 ****  ****    0  
     2 RES2       32 GROUP             0 ****  ****    0  
     3 RES3       34 GROUP             0 ****  ****    0  
     4 RES4       63 GROUP             0 ****  ****    0  
@<TRIPOS>CRYSIN
   16.4424   11.3252   18.4810   90.0000  106.1680   90.0000    14     1
