@<TRIPOS>MOLECULE
SEJSEJ
    84    88     2     0     0
SMALL
USER_CHARGES
****
Generated from the CSD

@<TRIPOS>ATOM
     1 Fe1      0.0000   0.0000   3.5815   Fe        1 RES1   2.0000
     2 N1       2.9230   2.2102   1.1862   N.pl3     1 RES1   0.0000
     3 N2       2.3160   0.2169   1.5587   N.2       1 RES1   0.0000
     4 N3       1.4937   1.0338   2.2750   N.2       1 RES1   0.0000
     5 C1       1.8873   2.2815   2.0221   C.2       1 RES1   0.0000
     6 C2       1.3583   3.5425   2.5629   C.3       1 RES1   0.0000
     7 H1       0.4220   3.4189   2.8235   H         1 RES1   0.0000
     8 H2       1.4174   4.2416   1.8783   H         1 RES1   0.0000
     9 H3       1.8837   3.8075   3.3464   H         1 RES1   0.0000
    10 C3       3.6970   3.2719   0.5652   C.3       1 RES1   0.0000
    11 H4       3.1123   3.8098  -0.0081   H         1 RES1   0.0000
    12 H5       4.4139   2.8793   0.0240   H         1 RES1   0.0000
    13 H6       4.0872   3.8412   1.2606   H         1 RES1   0.0000
    14 N4       3.1812   0.9223   0.8975   N.2       1 RES1   0.0000
    15 N1A     -3.3756   1.4263   1.1862   N.pl3     1 RES1   0.0000
    16 N2A     -1.3458   1.8973   1.5587   N.2       1 RES1   0.0000
    17 N3A     -1.6422   0.7767   2.2750   N.2       1 RES1   0.0000
    18 C1A     -2.9194   0.4937   2.0221   C.2       1 RES1   0.0000
    19 C2A     -3.7471  -0.5949   2.5629   C.3       1 RES1   0.0000
    20 H1A     -3.1718  -1.3440   2.8235   H         1 RES1   0.0000
    21 H2A     -4.3820  -0.8933   1.8783   H         1 RES1   0.0000
    22 H3A     -4.2393  -0.2724   3.3464   H         1 RES1   0.0000
    23 C3A     -4.6821   1.5657   0.5652   C.3       1 RES1   0.0000
    24 H4A     -4.8555   0.7904  -0.0081   H         1 RES1   0.0000
    25 H5A     -4.7005   2.3829   0.0240   H         1 RES1   0.0000
    26 H6A     -5.3702   1.6190   1.2606   H         1 RES1   0.0000
    27 N4A     -2.3893   2.2939   0.8975   N.2       1 RES1   0.0000
    28 N1B      0.4526  -3.6365   1.1862   N.pl3     1 RES1   0.0000
    29 N2B     -0.9702  -2.1142   1.5587   N.2       1 RES1   0.0000
    30 N3B      0.1485  -1.8105   2.2750   N.2       1 RES1   0.0000
    31 C1B      1.0322  -2.7751   2.0221   C.2       1 RES1   0.0000
    32 C2B      2.3887  -2.9476   2.5629   C.3       1 RES1   0.0000
    33 H1B      2.7498  -2.0749   2.8235   H         1 RES1   0.0000
    34 H2B      2.9646  -3.3483   1.8783   H         1 RES1   0.0000
    35 H3B      2.3556  -3.5351   3.3464   H         1 RES1   0.0000
    36 C3B      0.9851  -4.8377   0.5652   C.3       1 RES1   0.0000
    37 H4B      1.7432  -4.6002  -0.0081   H         1 RES1   0.0000
    38 H5B      0.2866  -5.2622   0.0240   H         1 RES1   0.0000
    39 H6B      1.2830  -5.4602   1.2606   H         1 RES1   0.0000
    40 N4B     -0.7919  -3.2162   0.8975   N.2       1 RES1   0.0000
    41 N1C     -2.9230  -2.2102   5.9768   N.pl3     1 RES1   0.0000
    42 N2C     -2.3160  -0.2169   5.6043   N.2       1 RES1   0.0000
    43 N3C     -1.4937  -1.0338   4.8880   N.2       1 RES1   0.0000
    44 C1C     -1.8873  -2.2815   5.1409   C.2       1 RES1   0.0000
    45 C2C     -1.3583  -3.5425   4.6001   C.3       1 RES1   0.0000
    46 H1C     -0.4220  -3.4189   4.3395   H         1 RES1   0.0000
    47 H2C     -1.4174  -4.2416   5.2847   H         1 RES1   0.0000
    48 H3C     -1.8837  -3.8075   3.8166   H         1 RES1   0.0000
    49 C3C     -3.6970  -3.2719   6.5978   C.3       1 RES1   0.0000
    50 H4C     -3.1123  -3.8098   7.1711   H         1 RES1   0.0000
    51 H5C     -4.4139  -2.8793   7.1390   H         1 RES1   0.0000
    52 H6C     -4.0872  -3.8412   5.9024   H         1 RES1   0.0000
    53 N4C     -3.1812  -0.9223   6.2655   N.2       1 RES1   0.0000
    54 N1D      3.3756  -1.4263   5.9768   N.pl3     1 RES1   0.0000
    55 N2D      1.3458  -1.8973   5.6043   N.2       1 RES1   0.0000
    56 N3D      1.6422  -0.7767   4.8880   N.2       1 RES1   0.0000
    57 C1D      2.9194  -0.4937   5.1409   C.2       1 RES1   0.0000
    58 C2D      3.7471   0.5949   4.6001   C.3       1 RES1   0.0000
    59 H1D      3.1718   1.3440   4.3395   H         1 RES1   0.0000
    60 H2D      4.3820   0.8933   5.2847   H         1 RES1   0.0000
    61 H3D      4.2393   0.2724   3.8166   H         1 RES1   0.0000
    62 C3D      4.6821  -1.5657   6.5978   C.3       1 RES1   0.0000
    63 H4D      4.8555  -0.7904   7.1711   H         1 RES1   0.0000
    64 H5D      4.7005  -2.3829   7.1390   H         1 RES1   0.0000
    65 H6D      5.3702  -1.6190   5.9024   H         1 RES1   0.0000
    66 N4D      2.3893  -2.2939   6.2655   N.2       1 RES1   0.0000
    67 N1E     -0.4526   3.6365   5.9768   N.pl3     1 RES1   0.0000
    68 N2E      0.9702   2.1142   5.6043   N.2       1 RES1   0.0000
    69 N3E     -0.1485   1.8105   4.8880   N.2       1 RES1   0.0000
    70 C1E     -1.0322   2.7751   5.1409   C.2       1 RES1   0.0000
    71 C2E     -2.3887   2.9476   4.6001   C.3       1 RES1   0.0000
    72 H1E     -2.7498   2.0749   4.3395   H         1 RES1   0.0000
    73 H2E     -2.9646   3.3483   5.2847   H         1 RES1   0.0000
    74 H3E     -2.3556   3.5351   3.8166   H         1 RES1   0.0000
    75 C3E     -0.9851   4.8377   6.5978   C.3       1 RES1   0.0000
    76 H4E     -1.7432   4.6002   7.1711   H         1 RES1   0.0000
    77 H5E     -0.2866   5.2622   7.1390   H         1 RES1   0.0000
    78 H6E     -1.2830   5.4602   5.9024   H         1 RES1   0.0000
    79 N4E      0.7919   3.2162   6.2655   N.2       1 RES1   0.0000
    80 Cl1      5.9629   3.4427   4.0385   Cl        2 RES2   0.0000
    81 O1       4.6344   3.6334   3.6087   O.3       2 RES2  -1.0000
    82 O2       5.9629   3.4427   5.4281   O.2       2 RES2   0.0000
    83 O1A      6.4620   2.1968   3.6087   O.2       2 RES2   0.0000
    84 O1B      6.7923   4.4979   3.6087   O.2       2 RES2   0.0000
@<TRIPOS>BOND
     1     1     4    1
     2     2     5    1
     3     3     4    1
     4     4     5    2
     5     5     6    1
     6     6     7    1
     7     8     6    1
     8     9     6    1
     9    10     2    1
    10    11    10    1
    11    12    10    1
    12    13    10    1
    13    14     2    1
    14    15    18    1
    15    16    17    1
    16    17     1    1
    17    18    17    2
    18    19    18    1
    19    20    19    1
    20    21    19    1
    21    22    19    1
    22    23    15    1
    23    24    23    1
    24    25    23    1
    25    26    23    1
    26    27    15    1
    27    28    31    1
    28    29    30    1
    29    30     1    1
    30    31    30    2
    31    32    31    1
    32    33    32    1
    33    34    32    1
    34    35    32    1
    35    36    28    1
    36    37    36    1
    37    38    36    1
    38    39    36    1
    39    40    28    1
    40    41    44    1
    41    42    43    1
    42    43     1    1
    43    44    43    2
    44    45    44    1
    45    46    45    1
    46    47    45    1
    47    48    45    1
    48    49    41    1
    49    50    49    1
    50    51    49    1
    51    52    49    1
    52    53    41    1
    53    54    57    1
    54    55    56    1
    55    56     1    1
    56    57    56    2
    57    58    57    1
    58    59    58    1
    59    60    58    1
    60    61    58    1
    61    62    54    1
    62    63    62    1
    63    64    62    1
    64    65    62    1
    65    66    54    1
    66    67    70    1
    67    68    69    1
    68    69     1    1
    69    70    69    2
    70    71    70    1
    71    72    71    1
    72    73    71    1
    73    74    71    1
    74    75    67    1
    75    76    75    1
    76    77    75    1
    77    78    75    1
    78    79    67    1
    79     3    14    2
    80    16    27    2
    81    29    40    2
    82    42    53    2
    83    55    66    2
    84    68    79    2
    85    80    81    1
    86    82    80    2
    87    83    80    2
    88    84    80    2
@<TRIPOS>SUBSTRUCTURE
     1 RES1        1 GROUP             0 ****  ****    0  
     2 RES2       80 GROUP             0 ****  ****    0  
@<TRIPOS>CRYSIN
   11.9258   11.9258    7.1630   90.0000   90.0000  120.0000   147     1
