@<TRIPOS>MOLECULE
SEKLOK
   102   110     2     0     0
SMALL
USER_CHARGES
****
Generated from the CSD

@<TRIPOS>ATOM
     1 P1       0.0000   6.5326   5.1284   P.3       1 RES1  -1.0000
     2 F1       0.0000   8.0544   5.1284   F         1 RES1   0.0000
     3 F2       0.0000   5.0059   5.1284   F         1 RES1   0.0000
     4 F3      -0.6104   6.5231   3.6689   F         1 RES1   0.0000
     5 F4       1.4128   6.5907   4.5462   F         1 RES1   0.0000
     6 F3C      0.6104   6.5231   6.5880   F         1 RES1   0.0000
     7 F4C     -1.4128   6.5907   5.7106   F         1 RES1   0.0000
     8 Fe1      0.0000   0.0000  10.2569   Fe        2 RES2   1.0000
     9 N1       1.4017   0.0251   7.7562   N.ar      2 RES2   0.0000
    10 N2       0.5319  -0.7071   8.5185   N.ar      2 RES2   0.0000
    11 N3       0.4776   2.2282   8.4978   N.ar      2 RES2   0.0000
    12 N4      -0.4002   1.7288   9.4281   N.ar      2 RES2   0.0000
    13 N5       2.4897   1.2822   9.6072   N.ar      2 RES2   0.0000
    14 N6       1.8381   0.5812  10.5896   N.ar      2 RES2   0.0000
    15 C1       1.7245  -0.7077   6.6715   C.ar      2 RES2   0.0000
    16 H1       2.3127  -0.4470   6.0003   H         2 RES2   0.0000
    17 C2       1.0488  -1.8956   6.7154   C.ar      2 RES2   0.0000
    18 H2       1.0850  -2.5811   6.0885   H         2 RES2   0.0000
    19 C3       0.3007  -1.8733   7.8799   C.ar      2 RES2   0.0000
    20 C4      -0.6043  -2.9631   8.3526   C.3       2 RES2   0.0000
    21 H3      -1.0186  -2.7003   9.1778   H         2 RES2   0.0000
    22 H4      -0.0955  -3.7656   8.4906   H         2 RES2   0.0000
    23 H5      -1.2821  -3.1249   7.6926   H         2 RES2   0.0000
    24 C5      -0.0251   3.3795   8.0221   C.ar      2 RES2   0.0000
    25 H6       0.3741   3.9146   7.3747   H         2 RES2   0.0000
    26 C6      -1.2207   3.6404   8.6424   C.ar      2 RES2   0.0000
    27 H7      -1.7758   4.3727   8.5009   H         2 RES2   0.0000
    28 C7      -1.4329   2.5929   9.5188   C.ar      2 RES2   0.0000
    29 C8      -2.6315   2.4342  10.4074   C.3       2 RES2   0.0000
    30 H8      -2.5460   1.6258  10.9174   H         2 RES2   0.0000
    31 H9      -3.4249   2.3912   9.8691   H         2 RES2   0.0000
    32 H10     -2.6888   3.1845  11.0035   H         2 RES2   0.0000
    33 C9       3.6803   1.6839  10.1067   C.ar      2 RES2   0.0000
    34 H11      4.3107   2.1882   9.6455   H         2 RES2   0.0000
    35 C10      3.8160   1.2381  11.3876   C.ar      2 RES2   0.0000
    36 H12      4.5430   1.3688  11.9513   H         2 RES2   0.0000
    37 C11      2.6456   0.5466  11.6782   C.ar      2 RES2   0.0000
    38 C12      2.3308  -0.1082  12.9784   C.3       2 RES2   0.0000
    39 H13      1.4560  -0.5010  12.9359   H         2 RES2   0.0000
    40 H14      2.3540   0.5457  13.6806   H         2 RES2   0.0000
    41 H15      2.9804  -0.7915  13.1575   H         2 RES2   0.0000
    42 C13      2.7793   2.2340   7.1195   C.3       2 RES2   0.0000
    43 C14      4.1197   1.4805   6.9121   C.3       2 RES2   0.0000
    44 H16      3.9407   0.5773   6.6382   H         2 RES2   0.0000
    45 H17      4.6134   1.4731   7.7357   H         2 RES2   0.0000
    46 H18      4.6345   1.9238   6.2341   H         2 RES2   0.0000
    47 C15      3.1423   3.6756   7.5605   C.3       2 RES2   0.0000
    48 H19      3.5576   3.6501   8.4250   H         2 RES2   0.0000
    49 H20      2.3449   4.2069   7.6044   H         2 RES2   0.0000
    50 H21      3.7507   4.0617   6.9254   H         2 RES2   0.0000
    51 C16      2.1056   2.3569   5.7237   C.3       2 RES2   0.0000
    52 H22      1.8623   1.4843   5.4074   H         2 RES2   0.0000
    53 H23      2.7200   2.7618   5.1059   H         2 RES2   0.0000
    54 H24      1.3193   2.9015   5.7951   H         2 RES2   0.0000
    55 B1       1.8251   1.4751   8.2061   B         2 RES2   0.0000
    56 N1D     -1.4017  -0.0251  12.7575   N.ar      2 RES2   0.0000
    57 N2D     -0.5319   0.7071  11.9952   N.ar      2 RES2   0.0000
    58 N3D     -0.4776  -2.2282  12.0159   N.ar      2 RES2   0.0000
    59 N4D      0.4002  -1.7288  11.0856   N.ar      2 RES2   0.0000
    60 N5D     -2.4897  -1.2822  10.9065   N.ar      2 RES2   0.0000
    61 N6D     -1.8381  -0.5812   9.9241   N.ar      2 RES2   0.0000
    62 C1D     -1.7245   0.7077  13.8422   C.ar      2 RES2   0.0000
    63 H1D     -2.3127   0.4470  14.5134   H         2 RES2   0.0000
    64 C2D     -1.0488   1.8956  13.7983   C.ar      2 RES2   0.0000
    65 H2D     -1.0850   2.5811  14.4252   H         2 RES2   0.0000
    66 C3D     -0.3007   1.8733  12.6338   C.ar      2 RES2   0.0000
    67 C4D      0.6043   2.9631  12.1611   C.3       2 RES2   0.0000
    68 H3D      1.0186   2.7003  11.3359   H         2 RES2   0.0000
    69 H4D      0.0955   3.7656  12.0231   H         2 RES2   0.0000
    70 H5D      1.2821   3.1249  12.8211   H         2 RES2   0.0000
    71 C5D      0.0251  -3.3795  12.4916   C.ar      2 RES2   0.0000
    72 H6D     -0.3741  -3.9146  13.1390   H         2 RES2   0.0000
    73 C6D      1.2207  -3.6404  11.8713   C.ar      2 RES2   0.0000
    74 H7D      1.7758  -4.3727  12.0128   H         2 RES2   0.0000
    75 C7D      1.4329  -2.5929  10.9949   C.ar      2 RES2   0.0000
    76 C8D      2.6315  -2.4342  10.1063   C.3       2 RES2   0.0000
    77 H8D      2.5460  -1.6258   9.5963   H         2 RES2   0.0000
    78 H9D      3.4249  -2.3912  10.6446   H         2 RES2   0.0000
    79 H10D     2.6888  -3.1845   9.5102   H         2 RES2   0.0000
    80 C9D     -3.6803  -1.6839  10.4070   C.ar      2 RES2   0.0000
    81 H11D    -4.3107  -2.1882  10.8682   H         2 RES2   0.0000
    82 C10D    -3.8160  -1.2381   9.1261   C.ar      2 RES2   0.0000
    83 H12D    -4.5430  -1.3688   8.5624   H         2 RES2   0.0000
    84 C11D    -2.6456  -0.5466   8.8355   C.ar      2 RES2   0.0000
    85 C12D    -2.3308   0.1082   7.5353   C.3       2 RES2   0.0000
    86 H13D    -1.4560   0.5010   7.5778   H         2 RES2   0.0000
    87 H14D    -2.3540  -0.5457   6.8331   H         2 RES2   0.0000
    88 H15D    -2.9804   0.7915   7.3562   H         2 RES2   0.0000
    89 C13D    -2.7793  -2.2340  13.3942   C.3       2 RES2   0.0000
    90 C14D    -4.1197  -1.4805  13.6016   C.3       2 RES2   0.0000
    91 H16D    -3.9407  -0.5773  13.8755   H         2 RES2   0.0000
    92 H17D    -4.6134  -1.4731  12.7780   H         2 RES2   0.0000
    93 H18D    -4.6345  -1.9238  14.2796   H         2 RES2   0.0000
    94 C15D    -3.1423  -3.6756  12.9532   C.3       2 RES2   0.0000
    95 H19D    -3.5576  -3.6501  12.0887   H         2 RES2   0.0000
    96 H20D    -2.3449  -4.2069  12.9093   H         2 RES2   0.0000
    97 H21D    -3.7507  -4.0617  13.5883   H         2 RES2   0.0000
    98 C16D    -2.1056  -2.3569  14.7900   C.3       2 RES2   0.0000
    99 H22D    -1.8623  -1.4843  15.1063   H         2 RES2   0.0000
   100 H23D    -2.7200  -2.7618  15.4078   H         2 RES2   0.0000
   101 H24D    -1.3193  -2.9015  14.7186   H         2 RES2   0.0000
   102 B1D     -1.8251  -1.4751  12.3076   B         2 RES2   0.0000
@<TRIPOS>BOND
     1     1     2    1
     2     3     1    1
     3     4     1    1
     4     5     1    1
     5     6     1    1
     6     7     1    1
     7     8    10    1
     8     9    10   ar
     9    10    19   ar
    10    11    12   ar
    11    12     8    1
    12    13    14   ar
    13    14     8    1
    14    15     9   ar
    15    16    15    1
    16    17    15   ar
    17    18    17    1
    18    19    17   ar
    19    20    19    1
    20    21    20    1
    21    22    20    1
    22    23    20    1
    23    24    11   ar
    24    25    24    1
    25    26    24   ar
    26    27    26    1
    27    28    12   ar
    28    29    28    1
    29    30    29    1
    30    31    29    1
    31    32    29    1
    32    33    13   ar
    33    34    33    1
    34    35    33   ar
    35    36    35    1
    36    37    14   ar
    37    38    37    1
    38    39    38    1
    39    40    38    1
    40    41    38    1
    41    42    43    1
    42    43    44    1
    43    45    43    1
    44    46    43    1
    45    47    42    1
    46    48    47    1
    47    49    47    1
    48    50    47    1
    49    51    42    1
    50    52    51    1
    51    53    51    1
    52    54    51    1
    53    55     9    1
    54    56    57   ar
    55    57     8    1
    56    58    59   ar
    57    59     8    1
    58    60    61   ar
    59    61     8    1
    60    62    56   ar
    61    63    62    1
    62    64    62   ar
    63    65    64    1
    64    66    57   ar
    65    67    66    1
    66    68    67    1
    67    69    67    1
    68    70    67    1
    69    71    58   ar
    70    72    71    1
    71    73    71   ar
    72    74    73    1
    73    75    59   ar
    74    76    75    1
    75    77    76    1
    76    78    76    1
    77    79    76    1
    78    80    60   ar
    79    81    80    1
    80    82    80   ar
    81    83    82    1
    82    84    61   ar
    83    85    84    1
    84    86    85    1
    85    87    85    1
    86    88    85    1
    87    89    90    1
    88    90    91    1
    89    92    90    1
    90    93    90    1
    91    94    89    1
    92    95    94    1
    93    96    94    1
    94    97    94    1
    95    98    89    1
    96    99    98    1
    97   100    98    1
    98   101    98    1
    99   102    56    1
   100    11    55    1
   101    13    55    1
   102    26    28   ar
   103    35    37   ar
   104    42    55    1
   105    58   102    1
   106    60   102    1
   107    64    66   ar
   108    73    75   ar
   109    82    84   ar
   110    89   102    1
@<TRIPOS>SUBSTRUCTURE
     1 RES1        1 GROUP             0 ****  ****    0  
     2 RES2        8 GROUP             0 ****  ****    0  
@<TRIPOS>CRYSIN
   10.0554   18.6230   20.5137   90.0000   90.0000   90.0000    60     1
