@<TRIPOS>MOLECULE
SEMJEB
   155   170     1     0     0
SMALL
NO_CHARGES
****
Generated from the CSD

@<TRIPOS>ATOM
     1 Fe1      0.0000   0.0000   0.0000   Fe        1 RES1   0.0000
     2 O1       0.7863   1.5744  -0.9571   O.co2     1 RES1   0.0000
     3 C1       1.3017   1.4790  -2.1187   C.2       1 RES1   0.0000
     4 O2       1.9747   2.3539  -2.6894   O.co2     1 RES1   0.0000
     5 C2       0.9412   0.2367  -2.9334   C.3       1 RES1   0.0000
     6 N1      -0.4694   0.0413  -3.0329   N.pl3     1 RES1   0.0000
     7 N2      -1.1653  -0.4087  -1.9232   N.2       1 RES1   0.0000
     8 C3      -2.4011  -0.6653  -2.3662   C.2       1 RES1   0.0000
     9 C4      -3.4059  -1.3467  -1.5594   C.ar      1 RES1   0.0000
    10 C5      -4.7797  -0.9744  -1.5888   C.ar      1 RES1   0.0000
    11 O3      -5.0263   0.2133  -2.2430   O.3       1 RES1   0.0000
    12 C6      -6.3864   0.6569  -2.2374   C.3       1 RES1   0.0000
    13 C7      -5.7085  -1.7348  -0.9853   C.ar      1 RES1   0.0000
    14 C8      -5.3351  -2.9150  -0.3413   C.ar      1 RES1   0.0000
    15 C9      -4.0558  -3.3005  -0.2780   C.ar      1 RES1   0.0000
    16 C10     -3.0880  -2.5266  -0.8723   C.ar      1 RES1   0.0000
    17 C11     -2.5139  -0.3269  -3.7685   C.2       1 RES1   0.0000
    18 C12     -1.2907   0.0717  -4.1459   C.2       1 RES1   0.0000
    19 C13     -0.7769   0.4631  -5.4567   C.ar      1 RES1   0.0000
    20 C14      0.0690   1.5801  -5.5867   C.ar      1 RES1   0.0000
    21 C15      0.6383   1.9041  -6.8703   C.ar      1 RES1   0.0000
    22 C16      0.2848   1.1415  -7.9404   C.ar      1 RES1   0.0000
    23 C17     -0.5276   0.0462  -7.8568   C.ar      1 RES1   0.0000
    24 C18     -1.0811  -0.2713  -6.6127   C.ar      1 RES1   0.0000
    25 O4      -1.9384  -1.3566  -6.4161   O.3       1 RES1   0.0000
    26 C19     -2.1518  -2.2380  -7.5009   C.3       1 RES1   0.0000
    27 N3       1.5742  -0.9719  -2.3990   N.pl3     1 RES1   0.0000
    28 N4       1.5154  -1.1946  -1.0678   N.2       1 RES1   0.0000
    29 C20      1.8086  -2.5031  -0.8690   C.2       1 RES1   0.0000
    30 C21      2.0069  -3.1056  -2.1334   C.2       1 RES1   0.0000
    31 C22      1.8274  -2.1147  -3.1142   C.2       1 RES1   0.0000
    32 C23      1.8267  -2.2502  -4.5482   C.ar      1 RES1   0.0000
    33 C24      2.4772  -1.4273  -5.4420   C.ar      1 RES1   0.0000
    34 O5       3.2340  -0.4164  -4.8962   O.3       1 RES1   0.0000
    35 C25      4.0658   0.3678  -5.7652   C.3       1 RES1   0.0000
    36 C26      2.3809  -1.6386  -6.8127   C.ar      1 RES1   0.0000
    37 C27      1.6933  -2.6792  -7.2963   C.ar      1 RES1   0.0000
    38 C28      1.1012  -3.5497  -6.4421   C.ar      1 RES1   0.0000
    39 C29      1.0933  -3.3554  -5.0804   C.ar      1 RES1   0.0000
    40 C30      1.8744  -3.0773   0.4644   C.ar      1 RES1   0.0000
    41 C31      2.7411  -2.5276   1.4193   C.ar      1 RES1   0.0000
    42 C32      2.8270  -3.0770   2.7074   C.ar      1 RES1   0.0000
    43 C33      1.9871  -4.1162   3.0577   C.ar      1 RES1   0.0000
    44 C34      1.0742  -4.6213   2.1436   C.ar      1 RES1   0.0000
    45 C35      1.0084  -4.0970   0.8769   C.ar      1 RES1   0.0000
    46 O6       0.1642  -4.5496  -0.0972   O.3       1 RES1   0.0000
    47 C36     -0.9596  -5.2909   0.3661   C.3       1 RES1   0.0000
    48 H1       1.2988   0.3679  -3.8408   H         1 RES1   0.0000
    49 H2      -6.4340   1.4501  -2.7764   H         1 RES1   0.0000
    50 H3      -6.9661  -0.0144  -2.6137   H         1 RES1   0.0000
    51 H4      -6.6739   0.8606  -1.3469   H         1 RES1   0.0000
    52 H5      -6.6014  -1.4670  -1.0147   H         1 RES1   0.0000
    53 H6      -5.9969  -3.4444   0.0554   H         1 RES1   0.0000
    54 H7      -3.8036  -4.0789   0.1706   H         1 RES1   0.0000
    55 H8      -2.2002  -2.7956  -0.8260   H         1 RES1   0.0000
    56 H9      -3.2907  -0.3811  -4.2928   H         1 RES1   0.0000
    57 H10      0.2710   2.1031  -4.8341   H         1 RES1   0.0000
    58 H11      1.2294   2.6158  -6.9551   H         1 RES1   0.0000
    59 H12      0.6420   1.3675  -8.7755   H         1 RES1   0.0000
    60 H13     -0.7445  -0.4674  -8.6161   H         1 RES1   0.0000
    61 H14     -2.6934  -2.9739  -7.2127   H         1 RES1   0.0000
    62 H15     -2.5901  -1.7740  -8.2229   H         1 RES1   0.0000
    63 H16     -1.3072  -2.5752  -7.8105   H         1 RES1   0.0000
    64 H17      2.2148  -4.0102  -2.2792   H         1 RES1   0.0000
    65 H18      4.6673   0.8993  -5.2330   H         1 RES1   0.0000
    66 H19      4.5716  -0.2048  -6.3550   H         1 RES1   0.0000
    67 H20      3.4996   0.9510  -6.2850   H         1 RES1   0.0000
    68 H21      2.8188  -1.0595  -7.3992   H         1 RES1   0.0000
    69 H22      1.5982  -2.7951  -8.2161   H         1 RES1   0.0000
    70 H23      0.6839  -4.3156  -6.7777   H         1 RES1   0.0000
    71 H24      0.6384  -3.9417  -4.5086   H         1 RES1   0.0000
    72 H25      3.2674  -1.7892   1.1842   H         1 RES1   0.0000
    73 H26      3.4515  -2.7414   3.3154   H         1 RES1   0.0000
    74 H27      2.0278  -4.4898   3.9120   H         1 RES1   0.0000
    75 H28      0.4869  -5.2998   2.3933   H         1 RES1   0.0000
    76 H29     -1.5469  -5.4333  -0.3842   H         1 RES1   0.0000
    77 H30     -0.6502  -6.1379   0.7209   H         1 RES1   0.0000
    78 H31     -1.4172  -4.7935   1.0543   H         1 RES1   0.0000
    79 O1A     -0.7863  -1.5744   0.9571   O.co2     1 RES1   0.0000
    80 C1A     -1.3017  -1.4790   2.1187   C.2       1 RES1   0.0000
    81 O2A     -1.9747  -2.3539   2.6894   O.co2     1 RES1   0.0000
    82 C2A     -0.9412  -0.2367   2.9334   C.3       1 RES1   0.0000
    83 N1A      0.4694  -0.0413   3.0329   N.pl3     1 RES1   0.0000
    84 N2A      1.1653   0.4087   1.9232   N.2       1 RES1   0.0000
    85 C3A      2.4011   0.6653   2.3662   C.2       1 RES1   0.0000
    86 C4A      3.4059   1.3467   1.5594   C.ar      1 RES1   0.0000
    87 C5A      4.7797   0.9744   1.5888   C.ar      1 RES1   0.0000
    88 O3A      5.0263  -0.2133   2.2430   O.3       1 RES1   0.0000
    89 C6A      6.3864  -0.6569   2.2374   C.3       1 RES1   0.0000
    90 C7A      5.7085   1.7348   0.9853   C.ar      1 RES1   0.0000
    91 C8A      5.3351   2.9150   0.3413   C.ar      1 RES1   0.0000
    92 C9A      4.0558   3.3005   0.2780   C.ar      1 RES1   0.0000
    93 C10A     3.0880   2.5266   0.8723   C.ar      1 RES1   0.0000
    94 C11A     2.5139   0.3269   3.7685   C.2       1 RES1   0.0000
    95 C12A     1.2907  -0.0717   4.1459   C.2       1 RES1   0.0000
    96 C13A     0.7769  -0.4631   5.4567   C.ar      1 RES1   0.0000
    97 C14A    -0.0690  -1.5801   5.5867   C.ar      1 RES1   0.0000
    98 C15A    -0.6383  -1.9041   6.8703   C.ar      1 RES1   0.0000
    99 C16A    -0.2848  -1.1415   7.9404   C.ar      1 RES1   0.0000
   100 C17A     0.5276  -0.0462   7.8568   C.ar      1 RES1   0.0000
   101 C18A     1.0811   0.2713   6.6127   C.ar      1 RES1   0.0000
   102 O4A      1.9384   1.3566   6.4161   O.3       1 RES1   0.0000
   103 C19A     2.1518   2.2380   7.5009   C.3       1 RES1   0.0000
   104 N3A     -1.5742   0.9719   2.3990   N.pl3     1 RES1   0.0000
   105 N4A     -1.5154   1.1946   1.0678   N.2       1 RES1   0.0000
   106 C20A    -1.8086   2.5031   0.8690   C.2       1 RES1   0.0000
   107 C21A    -2.0069   3.1056   2.1334   C.2       1 RES1   0.0000
   108 C22A    -1.8274   2.1147   3.1142   C.2       1 RES1   0.0000
   109 C23A    -1.8267   2.2502   4.5482   C.ar      1 RES1   0.0000
   110 C24A    -2.4772   1.4273   5.4420   C.ar      1 RES1   0.0000
   111 O5A     -3.2340   0.4164   4.8962   O.3       1 RES1   0.0000
   112 C25A    -4.0658  -0.3678   5.7652   C.3       1 RES1   0.0000
   113 C26A    -2.3809   1.6386   6.8127   C.ar      1 RES1   0.0000
   114 C27A    -1.6933   2.6792   7.2963   C.ar      1 RES1   0.0000
   115 C28A    -1.1012   3.5497   6.4421   C.ar      1 RES1   0.0000
   116 C29A    -1.0933   3.3554   5.0804   C.ar      1 RES1   0.0000
   117 C30A    -1.8744   3.0773  -0.4644   C.ar      1 RES1   0.0000
   118 C31A    -2.7411   2.5276  -1.4193   C.ar      1 RES1   0.0000
   119 C32A    -2.8270   3.0770  -2.7074   C.ar      1 RES1   0.0000
   120 C33A    -1.9871   4.1162  -3.0577   C.ar      1 RES1   0.0000
   121 C34A    -1.0742   4.6213  -2.1436   C.ar      1 RES1   0.0000
   122 C35A    -1.0084   4.0970  -0.8769   C.ar      1 RES1   0.0000
   123 O6A     -0.1642   4.5496   0.0972   O.3       1 RES1   0.0000
   124 C36A     0.9596   5.2909  -0.3661   C.3       1 RES1   0.0000
   125 H1A     -1.2988  -0.3679   3.8408   H         1 RES1   0.0000
   126 H2A      6.4340  -1.4501   2.7764   H         1 RES1   0.0000
   127 H3A      6.9661   0.0144   2.6137   H         1 RES1   0.0000
   128 H4A      6.6739  -0.8606   1.3469   H         1 RES1   0.0000
   129 H5A      6.6014   1.4670   1.0147   H         1 RES1   0.0000
   130 H6A      5.9969   3.4444  -0.0554   H         1 RES1   0.0000
   131 H7A      3.8036   4.0789  -0.1706   H         1 RES1   0.0000
   132 H8A      2.2002   2.7956   0.8260   H         1 RES1   0.0000
   133 H9A      3.2907   0.3811   4.2928   H         1 RES1   0.0000
   134 H10A    -0.2710  -2.1031   4.8341   H         1 RES1   0.0000
   135 H11A    -1.2294  -2.6158   6.9551   H         1 RES1   0.0000
   136 H12A    -0.6420  -1.3675   8.7755   H         1 RES1   0.0000
   137 H13A     0.7445   0.4674   8.6161   H         1 RES1   0.0000
   138 H14A     2.6934   2.9739   7.2127   H         1 RES1   0.0000
   139 H15A     2.5901   1.7740   8.2229   H         1 RES1   0.0000
   140 H16A     1.3072   2.5752   7.8105   H         1 RES1   0.0000
   141 H17A    -2.2148   4.0102   2.2792   H         1 RES1   0.0000
   142 H18A    -4.6673  -0.8993   5.2330   H         1 RES1   0.0000
   143 H19A    -4.5716   0.2048   6.3550   H         1 RES1   0.0000
   144 H20A    -3.4996  -0.9510   6.2850   H         1 RES1   0.0000
   145 H21A    -2.8188   1.0595   7.3992   H         1 RES1   0.0000
   146 H22A    -1.5982   2.7951   8.2161   H         1 RES1   0.0000
   147 H23A    -0.6839   4.3156   6.7777   H         1 RES1   0.0000
   148 H24A    -0.6384   3.9417   4.5086   H         1 RES1   0.0000
   149 H25A    -3.2674   1.7892  -1.1842   H         1 RES1   0.0000
   150 H26A    -3.4515   2.7414  -3.3154   H         1 RES1   0.0000
   151 H27A    -2.0278   4.4898  -3.9120   H         1 RES1   0.0000
   152 H28A    -0.4869   5.2998  -2.3933   H         1 RES1   0.0000
   153 H29A     1.5469   5.4333   0.3842   H         1 RES1   0.0000
   154 H30A     0.6502   6.1379  -0.7209   H         1 RES1   0.0000
   155 H31A     1.4172   4.7935  -1.0543   H         1 RES1   0.0000
@<TRIPOS>BOND
     1     1     2    1
     2     2     3    1
     3     3     4    2
     4     5     3    1
     5     6     5    1
     6     7     1    1
     7     8     7    2
     8     9     8    1
     9    10     9   ar
    10    11    10    1
    11    12    11    1
    12    13    10   ar
    13    14    13   ar
    14    15    14   ar
    15    16     9   ar
    16    17     8    1
    17    18     6    1
    18    19    18    1
    19    20    19   ar
    20    21    20   ar
    21    22    21   ar
    22    23    22   ar
    23    24    19   ar
    24    25    24    1
    25    26    25    1
    26    27     5    1
    27    28     1    1
    28    29    28    2
    29    30    29    1
    30    31    27    1
    31    32    31    1
    32    33    32   ar
    33    34    33    1
    34    35    34    1
    35    36    33   ar
    36    37    36   ar
    37    38    37   ar
    38    39    32   ar
    39    40    29    1
    40    41    40   ar
    41    42    41   ar
    42    43    42   ar
    43    44    43   ar
    44    45    40   ar
    45    46    45    1
    46    47    46    1
    47    48     5    1
    48    49    12    1
    49    50    12    1
    50    51    12    1
    51    52    13    1
    52    53    14    1
    53    54    15    1
    54    55    16    1
    55    56    17    1
    56    57    20    1
    57    58    21    1
    58    59    22    1
    59    60    23    1
    60    61    26    1
    61    62    26    1
    62    63    26    1
    63    64    30    1
    64    65    35    1
    65    66    35    1
    66    67    35    1
    67    68    36    1
    68    69    37    1
    69    70    38    1
    70    71    39    1
    71    72    41    1
    72    73    42    1
    73    74    43    1
    74    75    44    1
    75    76    47    1
    76    77    47    1
    77    78    47    1
    78    79     1    1
    79    80    79    1
    80    81    80    2
    81    82    80    1
    82    83    82    1
    83    84     1    1
    84    85    84    2
    85    86    85    1
    86    87    86   ar
    87    88    87    1
    88    89    88    1
    89    90    87   ar
    90    91    90   ar
    91    92    91   ar
    92    93    86   ar
    93    94    85    1
    94    95    83    1
    95    96    95    1
    96    97    96   ar
    97    98    97   ar
    98    99    98   ar
    99   100    99   ar
   100   101    96   ar
   101   102   101    1
   102   103   102    1
   103   104    82    1
   104   105     1    1
   105   106   105    2
   106   107   106    1
   107   108   104    1
   108   109   108    1
   109   110   109   ar
   110   111   110    1
   111   112   111    1
   112   113   110   ar
   113   114   113   ar
   114   115   114   ar
   115   116   109   ar
   116   117   106    1
   117   118   117   ar
   118   119   118   ar
   119   120   119   ar
   120   121   120   ar
   121   122   117   ar
   122   123   122    1
   123   124   123    1
   124   125    82    1
   125   126    89    1
   126   127    89    1
   127   128    89    1
   128   129    90    1
   129   130    91    1
   130   131    92    1
   131   132    93    1
   132   133    94    1
   133   134    97    1
   134   135    98    1
   135   136    99    1
   136   137   100    1
   137   138   103    1
   138   139   103    1
   139   140   103    1
   140   141   107    1
   141   142   112    1
   142   143   112    1
   143   144   112    1
   144   145   113    1
   145   146   114    1
   146   147   115    1
   147   148   116    1
   148   149   118    1
   149   150   119    1
   150   151   120    1
   151   152   121    1
   152   153   124    1
   153   154   124    1
   154   155   124    1
   155     6     7    1
   156    15    16   ar
   157    17    18    2
   158    23    24   ar
   159    27    28    1
   160    30    31    2
   161    38    39   ar
   162    44    45   ar
   163    83    84    1
   164    92    93   ar
   165    94    95    2
   166   100   101   ar
   167   104   105    1
   168   107   108    2
   169   115   116   ar
   170   121   122   ar
@<TRIPOS>SUBSTRUCTURE
     1 RES1        1 GROUP             0 ****  ****    0  
@<TRIPOS>CRYSIN
   11.1670   12.1680   13.5140  110.5060  111.0120   99.4830     2     1
