@<TRIPOS>MOLECULE
SEMQOT
    87    94     2     0     0
SMALL
NO_CHARGES
****
Generated from the CSD

@<TRIPOS>ATOM
     1 C1       4.8175   0.3862   4.1840   C.ar      1 RES1   0.0000
     2 H1       4.2086   0.1987   3.4795   H         1 RES1   0.0000
     3 C2       4.5867  -0.1831   5.4211   C.ar      1 RES1   0.0000
     4 H2       3.8268  -0.7350   5.5654   H         1 RES1   0.0000
     5 C3       5.4690   0.0607   6.4340   C.ar      1 RES1   0.0000
     6 H3       5.3348  -0.3203   7.2933   H         1 RES1   0.0000
     7 C4       6.5625   0.8718   6.1874   C.ar      1 RES1   0.0000
     8 H4       7.1997   1.0447   6.8704   H         1 RES1   0.0000
     9 C5       6.7119   1.4268   4.9280   C.ar      1 RES1   0.0000
    10 C6       7.8472   2.3533   4.6131   C.2       1 RES1   0.0000
    11 C7       9.7517   3.3942   5.4253   C.2       1 RES1   0.0000
    12 C8      10.6479   3.5793   6.6142   C.ar      1 RES1   0.0000
    13 C9      10.4106   2.9454   7.8215   C.ar      1 RES1   0.0000
    14 H5       9.7105   2.3094   7.9112   H         1 RES1   0.0000
    15 C10     11.2267   3.2683   8.8996   C.ar      1 RES1   0.0000
    16 H6      11.0730   2.8742   9.7498   H         1 RES1   0.0000
    17 C11     12.2494   4.1519   8.7288   C.ar      1 RES1   0.0000
    18 H7      12.8211   4.3804   9.4521   H         1 RES1   0.0000
    19 C12     12.4326   4.7008   7.4939   C.ar      1 RES1   0.0000
    20 H8      13.1539   5.3076   7.3760   H         1 RES1   0.0000
    21 C13     13.0617   7.9753   0.2978   C.ar      1 RES1   0.0000
    22 H9      13.7781   7.5741  -0.1807   H         1 RES1   0.0000
    23 C14     13.0063   9.3460   0.3448   C.ar      1 RES1   0.0000
    24 H10     13.6762   9.8769  -0.0691   H         1 RES1   0.0000
    25 C15     11.9800   9.9138   0.9926   C.ar      1 RES1   0.0000
    26 H11     11.9030  10.8599   1.0308   H         1 RES1   0.0000
    27 C16     11.0357   9.1154   1.6042   C.ar      1 RES1   0.0000
    28 H12     10.3098   9.5033   2.0788   H         1 RES1   0.0000
    29 C17     11.1620   7.7457   1.5156   C.ar      1 RES1   0.0000
    30 C18     10.1247   6.8432   2.1120   C.2       1 RES1   0.0000
    31 N1       5.8547   1.1875   3.9317   N.ar      1 RES1   0.0000
    32 N2       8.7015   2.5833   5.6259   N.2       1 RES1   0.0000
    33 N3      11.6553   4.4338   6.4404   N.ar      1 RES1   0.0000
    34 N4       7.9102   2.8544   3.4117   N.2       1 RES1   0.0000
    35 N5      10.0526   4.0470   4.3392   N.2       1 RES1   0.0000
    36 N6      12.1731   7.1745   0.8806   N.ar      1 RES1   0.0000
    37 N7       9.1083   7.4934   2.6684   N.2       1 RES1   0.0000
    38 N8      10.2825   5.5515   2.0386   N.2       1 RES1   0.0000
    39 Fe1      9.1083   4.1678   2.6684   Fe        1 RES1   0.0000
    40 H13      7.3109   2.5721   2.9566   H         1 RES1   0.0000
    41 H14     10.7453   4.4549   4.4188   H         1 RES1   0.0000
    42 H15     10.9804   5.3517   1.6010   H         1 RES1   0.0000
    43 C13A     5.1550   7.9753   5.0390   C.ar      1 RES1   0.0000
    44 H9A      4.4386   7.5741   5.5175   H         1 RES1   0.0000
    45 C14A     5.2103   9.3460   4.9920   C.ar      1 RES1   0.0000
    46 H10A     4.5405   9.8769   5.4058   H         1 RES1   0.0000
    47 C15A     6.2367   9.9138   4.3441   C.ar      1 RES1   0.0000
    48 H11A     6.3137  10.8599   4.3060   H         1 RES1   0.0000
    49 C16A     7.1810   9.1154   3.7325   C.ar      1 RES1   0.0000
    50 H12A     7.9068   9.5033   3.2579   H         1 RES1   0.0000
    51 C17A     7.0547   7.7457   3.8211   C.ar      1 RES1   0.0000
    52 C18A     8.0920   6.8432   3.2248   C.2       1 RES1   0.0000
    53 N6A      6.0436   7.1745   4.4562   N.ar      1 RES1   0.0000
    54 N8A      7.9342   5.5515   3.2981   N.2       1 RES1   0.0000
    55 H15A     7.2362   5.3517   3.7357   H         1 RES1   0.0000
    56 C1A     13.3992   0.3862   1.1527   C.ar      1 RES1   0.0000
    57 H1A     14.0081   0.1987   1.8572   H         1 RES1   0.0000
    58 C2A     13.6300  -0.1831  -0.0843   C.ar      1 RES1   0.0000
    59 H2A     14.3899  -0.7350  -0.2287   H         1 RES1   0.0000
    60 C3A     12.7477   0.0607  -1.0972   C.ar      1 RES1   0.0000
    61 H3A     12.8819  -0.3203  -1.9565   H         1 RES1   0.0000
    62 C4A     11.6541   0.8718  -0.8507   C.ar      1 RES1   0.0000
    63 H4A     11.0170   1.0447  -1.5337   H         1 RES1   0.0000
    64 C5A     11.5048   1.4268   0.4088   C.ar      1 RES1   0.0000
    65 C6A     10.3695   2.3533   0.7237   C.2       1 RES1   0.0000
    66 C7A      8.4650   3.3942  -0.0886   C.2       1 RES1   0.0000
    67 C8A      7.5688   3.5793  -1.2774   C.ar      1 RES1   0.0000
    68 C9A      7.8061   2.9454  -2.4848   C.ar      1 RES1   0.0000
    69 H5A      8.5062   2.3094  -2.5744   H         1 RES1   0.0000
    70 C10A     6.9900   3.2683  -3.5628   C.ar      1 RES1   0.0000
    71 H6A      7.1437   2.8742  -4.4130   H         1 RES1   0.0000
    72 C11A     5.9672   4.1519  -3.3920   C.ar      1 RES1   0.0000
    73 H7A      5.3956   4.3804  -4.1154   H         1 RES1   0.0000
    74 C12A     5.7841   4.7008  -2.1571   C.ar      1 RES1   0.0000
    75 H8A      5.0628   5.3076  -2.0392   H         1 RES1   0.0000
    76 N1A     12.3620   1.1875   1.4051   N.ar      1 RES1   0.0000
    77 N2A      9.5152   2.5833  -0.2891   N.2       1 RES1   0.0000
    78 N3A      6.5613   4.4338  -1.1036   N.ar      1 RES1   0.0000
    79 N4A     10.3064   2.8544   1.9251   N.2       1 RES1   0.0000
    80 N5A      8.1641   4.0470   0.9975   N.2       1 RES1   0.0000
    81 H13A    10.9058   2.5721   2.3802   H         1 RES1   0.0000
    82 H14A     7.4714   4.4549   0.9179   H         1 RES1   0.0000
    83 C19      6.9201   4.0639   8.0051   C.3       2 RES2   0.0000
    84 H16      6.1948   3.4821   8.3450   H         2 RES2   0.0000
    85 Cl1      7.5330   5.0527   9.3131   Cl        2 RES2   0.0000
    86 H16A     7.6454   3.4821   7.6652   H         2 RES2   0.0000
    87 Cl1A     6.3072   5.0527   6.6972   Cl        2 RES2   0.0000
@<TRIPOS>BOND
     1     1     2    1
     2     3     1   ar
     3     4     3    1
     4     5     3   ar
     5     6     5    1
     6     7     5   ar
     7     8     7    1
     8     9     7   ar
     9    10     9    1
    10    11    12    1
    11    12    13   ar
    12    13    14    1
    13    15    13   ar
    14    16    15    1
    15    17    15   ar
    16    18    17    1
    17    19    17   ar
    18    20    19    1
    19    21    22    1
    20    23    21   ar
    21    24    23    1
    22    25    23   ar
    23    26    25    1
    24    27    25   ar
    25    28    27    1
    26    29    27   ar
    27    30    29    1
    28    31     1   ar
    29    32    10   un
    30    33    12   ar
    31    34    10   un
    32    35    11   un
    33    36    21   ar
    34    37    30   un
    35    38    30   un
    36    39    34    1
    37    40    34    1
    38    41    35    1
    39    42    38    1
    40    43    44    1
    41    45    43   ar
    42    46    45    1
    43    47    45   ar
    44    48    47    1
    45    49    47   ar
    46    50    49    1
    47    51    49   ar
    48    52    37   un
    49    53    43   ar
    50    54    39    1
    51    55    54    1
    52    56    57    1
    53    58    56   ar
    54    59    58    1
    55    60    58   ar
    56    61    60    1
    57    62    60   ar
    58    63    62    1
    59    64    62   ar
    60    65    64    1
    61    66    67    1
    62    67    68   ar
    63    68    69    1
    64    70    68   ar
    65    71    70    1
    66    72    70   ar
    67    73    72    1
    68    74    72   ar
    69    75    74    1
    70    76    56   ar
    71    77    65   un
    72    78    67   ar
    73    79    39    1
    74    80    39    1
    75    81    79    1
    76    82    80    1
    77     9    31   ar
    78    11    32   un
    79    19    33   ar
    80    29    36   ar
    81    35    39    1
    82    38    39    1
    83    51    52    1
    84    51    53   ar
    85    52    54   un
    86    64    76   ar
    87    65    79   un
    88    66    77   un
    89    66    80   un
    90    74    78   ar
    91    83    84    1
    92    85    83    1
    93    86    83    1
    94    87    83    1
@<TRIPOS>SUBSTRUCTURE
     1 RES1        1 GROUP             0 ****  ****    0  
     2 RES2       83 GROUP             0 ****  ****    0  
@<TRIPOS>CRYSIN
   20.4049   17.1474   11.5359   90.0000  112.2950   90.0000    15     1
