@<TRIPOS>MOLECULE
SENDAT
    93    99     4     0     0
SMALL
USER_CHARGES
****
Generated from the CSD

@<TRIPOS>ATOM
     1 Fe1      2.8982   3.0074   7.9361   Fe        1 RES1   2.0000
     2 N1       4.2729   3.1077   9.3476   N.2       1 RES1   0.0000
     3 C1       3.9143   3.9548  10.2956   C.cat     1 RES1   0.0000
     4 N2       4.8229   4.0888  11.2768   N.pl3     1 RES1   0.0000
     5 H1       4.7461   4.6001  11.9694   H         1 RES1   0.0000
     6 C2       5.8759   3.2329  10.9591   C.ar      1 RES1   0.0000
     7 C3       7.0480   2.9446  11.6197   C.ar      1 RES1   0.0000
     8 H2       7.2748   3.3659  12.4415   H         1 RES1   0.0000
     9 C4       7.8754   2.0134  11.0308   C.ar      1 RES1   0.0000
    10 H3       8.6937   1.7866  11.4560   H         1 RES1   0.0000
    11 C5       7.5408   1.3995   9.8273   C.ar      1 RES1   0.0000
    12 H4       8.1395   0.7661   9.4486   H         1 RES1   0.0000
    13 C6       6.3541   1.6878   9.1667   C.ar      1 RES1   0.0000
    14 H5       6.1269   1.2618   8.3492   H         1 RES1   0.0000
    15 C7       5.5158   2.6234   9.7477   C.ar      1 RES1   0.0000
    16 N3       2.6971   4.5859  10.2600   N.pl3     1 RES1   0.0000
    17 C8       2.4872   5.8603  10.9482   C.3       1 RES1   0.0000
    18 H6       1.8843   5.7259  11.7078   H         1 RES1   0.0000
    19 H7       2.0901   6.5050  10.3276   H         1 RES1   0.0000
    20 H8       3.3466   6.2037  11.2695   H         1 RES1   0.0000
    21 N4       1.9899   4.1821   9.1413   N.2       1 RES1   0.0000
    22 C9       0.7347   4.4576   8.9415   C.2       1 RES1   0.0000
    23 C10     -0.2321   5.1265   9.8675   C.3       1 RES1   0.0000
    24 H9       0.0626   5.0018  10.7949   H         1 RES1   0.0000
    25 H10     -1.1218   4.7329   9.7513   H         1 RES1   0.0000
    26 H11     -0.2702   6.0838   9.6641   H         1 RES1   0.0000
    27 C11      0.3140   4.0236   7.6088   C.ar      1 RES1   0.0000
    28 N5       1.2731   3.3548   6.9065   N.ar      1 RES1   0.0000
    29 C12      1.0416   3.0908   5.6038   C.ar      1 RES1   0.0000
    30 H12      1.7103   2.6370   5.1045   H         1 RES1   0.0000
    31 C13     -0.1224   3.4532   4.9694   C.ar      1 RES1   0.0000
    32 H13     -0.2395   3.2833   4.0414   H         1 RES1   0.0000
    33 C14     -1.1174   4.0672   5.7014   C.ar      1 RES1   0.0000
    34 H14     -1.9449   4.2924   5.2909   H         1 RES1   0.0000
    35 C15     -0.9012   4.3531   7.0417   C.ar      1 RES1   0.0000
    36 H15     -1.5787   4.7686   7.5623   H         1 RES1   0.0000
    37 N6       3.8338   4.2846   6.7884   N.2       1 RES1   0.0000
    38 C16      4.4725   3.6918   5.7960   C.cat     1 RES1   0.0000
    39 N7       5.0696   4.5463   4.9536   N.pl3     1 RES1   0.0000
    40 H16      5.4016   4.3734   4.2836   H         1 RES1   0.0000
    41 C17      4.7782   5.8264   5.4120   C.ar      1 RES1   0.0000
    42 C18      5.1214   7.0777   4.9420   C.ar      1 RES1   0.0000
    43 H17      5.6704   7.1885   4.1746   H         1 RES1   0.0000
    44 C19      4.6297   8.1582   5.6401   C.ar      1 RES1   0.0000
    45 H18      4.8385   9.0350   5.3418   H         1 RES1   0.0000
    46 C20      3.8307   7.9984   6.7796   C.ar      1 RES1   0.0000
    47 H19      3.5057   8.7678   7.2329   H         1 RES1   0.0000
    48 C21      3.5053   6.7419   7.2576   C.ar      1 RES1   0.0000
    49 H20      2.9690   6.6329   8.0345   H         1 RES1   0.0000
    50 C22      3.9900   5.6497   6.5610   C.ar      1 RES1   0.0000
    51 N8       4.4553   2.3138   5.6587   N.3       1 RES1   0.0000
    52 C23      5.6861   1.6635   5.2146   C.3       1 RES1   0.0000
    53 H21      6.2862   2.3308   4.8212   H         1 RES1   0.0000
    54 H22      5.4724   0.9816   4.5427   H         1 RES1   0.0000
    55 H23      6.1268   1.2391   5.9810   H         1 RES1   0.0000
    56 N9       3.6794   1.7811   6.6997   N.2       1 RES1   0.0000
    57 C24      3.3272   0.5246   6.7332   C.2       1 RES1   0.0000
    58 C25      3.6298  -0.5174   5.7079   C.3       1 RES1   0.0000
    59 H24      3.6223  -0.1101   4.8163   H         1 RES1   0.0000
    60 H25      2.9510  -1.2229   5.7510   H         1 RES1   0.0000
    61 H26      4.5138  -0.9022   5.8842   H         1 RES1   0.0000
    62 C26      2.5073   0.2370   7.9180   C.ar      1 RES1   0.0000
    63 N10      2.2144   1.3250   8.6788   N.ar      1 RES1   0.0000
    64 C27      1.5314   1.1371   9.8184   C.ar      1 RES1   0.0000
    65 H27      1.3340   1.8903  10.3639   H         1 RES1   0.0000
    66 C28      1.1021  -0.1101  10.2303   C.ar      1 RES1   0.0000
    67 H28      0.6330  -0.2106  11.0492   H         1 RES1   0.0000
    68 C29      1.3628  -1.2051   9.4392   C.ar      1 RES1   0.0000
    69 H29      1.0502  -2.0652   9.6907   H         1 RES1   0.0000
    70 C30      2.0831  -1.0366   8.2764   C.ar      1 RES1   0.0000
    71 H30      2.2869  -1.7834   7.7245   H         1 RES1   0.0000
    72 C31      8.2530   5.9235   2.0391   C.3       2 RES2   0.0000
    73 F1       8.3394   6.9144   1.1744   F         2 RES2   0.0000
    74 F2       9.3517   5.1824   1.9265   F         2 RES2   0.0000
    75 F3       8.2535   6.4554   3.2598   F         2 RES2   0.0000
    76 S1       6.7688   4.9161   1.7694   S.o2      2 RES2   0.0000
    77 O1       5.6910   5.8392   1.9871   O.2       2 RES2   0.0000
    78 O2       6.9309   4.4637   0.4259   O.2       2 RES2   0.0000
    79 O3       6.8695   3.9206   2.8058   O.3       2 RES2  -1.0000
    80 C32      7.4387   6.7463  13.3491   C.3       3 RES3   0.0000
    81 F4       8.4403   6.7933  14.1320   F         3 RES3   0.0000
    82 F5       7.3413   8.0060  12.9193   F         3 RES3   0.0000
    83 F6       7.7085   6.0399  12.2895   F         3 RES3   0.0000
    84 S2       5.9124   6.2618  14.1499   S.o2      3 RES3   0.0000
    85 O4       6.2363   4.9095  14.5991   O.3       3 RES3  -1.0000
    86 O5       4.9756   6.2798  13.1389   O.2       3 RES3   0.0000
    87 O6       5.7304   7.1731  15.2110   O.2       3 RES3   0.0000
    88 N11      0.6856   9.5096  15.5844   N.1       4 RES4   0.0000
    89 C33      1.2535   8.7337  14.9766   C.1       4 RES4   0.0000
    90 C34      1.9507   7.7230  14.2303   C.3       4 RES4   0.0000
    91 H31      2.8772   7.6663  14.5434   H         4 RES4   0.0000
    92 H32      1.9410   7.9546  13.2794   H         4 RES4   0.0000
    93 H33      1.5094   6.8581  14.3594   H         4 RES4   0.0000
@<TRIPOS>BOND
     1     1     2    1
     2     2     3    2
     3     3     4    1
     4     4     5    1
     5     6     4    1
     6     7     6   ar
     7     8     7    1
     8     9     7   ar
     9    10     9    1
    10    11     9   ar
    11    12    11    1
    12    13    11   ar
    13    14    13    1
    14    15     2    1
    15    16     3    1
    16    17    16    1
    17    18    17    1
    18    19    17    1
    19    20    17    1
    20    21     1    1
    21    22    21    2
    22    23    22    1
    23    24    23    1
    24    25    23    1
    25    26    23    1
    26    27    22    1
    27    28     1    1
    28    29    28   ar
    29    30    29    1
    30    31    29   ar
    31    32    31    1
    32    33    31   ar
    33    34    33    1
    34    35    27   ar
    35    36    35    1
    36    37     1    1
    37    38    37    2
    38    39    38    1
    39    40    39    1
    40    41    39    1
    41    42    41   ar
    42    43    42    1
    43    44    42   ar
    44    45    44    1
    45    46    44   ar
    46    47    46    1
    47    48    46   ar
    48    49    48    1
    49    50    37    1
    50    51    38    1
    51    52    51    1
    52    53    52    1
    53    54    52    1
    54    55    52    1
    55    56     1    1
    56    57    56    2
    57    58    57    1
    58    59    58    1
    59    60    58    1
    60    61    58    1
    61    62    57    1
    62    63     1    1
    63    64    63   ar
    64    65    64    1
    65    66    64   ar
    66    67    66    1
    67    68    66   ar
    68    69    68    1
    69    70    62   ar
    70    71    70    1
    71     6    15   ar
    72    13    15   ar
    73    16    21    1
    74    27    28   ar
    75    33    35   ar
    76    41    50   ar
    77    48    50   ar
    78    51    56    1
    79    62    63   ar
    80    68    70   ar
    81    72    73    1
    82    74    72    1
    83    75    72    1
    84    76    72    1
    85    77    76    2
    86    78    76    2
    87    79    76    1
    88    80    81    1
    89    82    80    1
    90    83    80    1
    91    84    80    1
    92    85    84    1
    93    86    84    2
    94    87    84    2
    95    88    89    3
    96    89    90    1
    97    90    91    1
    98    92    90    1
    99    93    90    1
@<TRIPOS>SUBSTRUCTURE
     1 RES1        1 GROUP             0 ****  ****    0  
     2 RES2       72 GROUP             0 ****  ****    0  
     3 RES3       80 GROUP             0 ****  ****    0  
     4 RES4       88 GROUP             0 ****  ****    0  
@<TRIPOS>CRYSIN
    9.7491   16.1976   24.3248   90.0000   95.4520   90.0000   231     1
