@<TRIPOS>MOLECULE
SEVYAT
    99   103     2     0     0
SMALL
NO_CHARGES
****
Generated from the CSD

@<TRIPOS>ATOM
     1 Fe1     -0.7863   0.0000   8.1507   Fe        1 RES1   0.0000
     2 S1       1.6705  -0.6587   8.3402   S.2       1 RES1   0.0000
     3 S2       0.1621   2.2001   9.0872   S.2       1 RES1   0.0000
     4 P1       1.8398   1.1209   9.2458   P.3       1 RES1   0.0000
     5 O1      -0.4825   0.6303   6.1586   O.2       1 RES1   0.0000
     6 N1       0.1147   1.9950   4.4519   N.am      1 RES1   0.0000
     7 C1       2.3232   0.9260  10.9822   C.ar      1 RES1   0.0000
     8 C2       2.1956   2.0216  11.8299   C.ar      1 RES1   0.0000
     9 C3       2.6469   1.9462  13.1389   C.ar      1 RES1   0.0000
    10 C4       3.2247   0.7865  13.6247   C.ar      1 RES1   0.0000
    11 C5       3.3645  -0.3046  12.7672   C.ar      1 RES1   0.0000
    12 C6       2.9077  -0.2393  11.4631   C.ar      1 RES1   0.0000
    13 C7       3.7216   0.7001  15.0396   C.3       1 RES1   0.0000
    14 C8       3.2747   2.0282   8.5843   C.ar      1 RES1   0.0000
    15 C9       4.5434   1.4677   8.7440   C.ar      1 RES1   0.0000
    16 C10      5.6717   2.1013   8.2778   C.ar      1 RES1   0.0000
    17 C11      5.5717   3.3408   7.6437   C.ar      1 RES1   0.0000
    18 C12      4.3191   3.9024   7.4839   C.ar      1 RES1   0.0000
    19 C13      3.1648   3.2633   7.9632   C.ar      1 RES1   0.0000
    20 C14      6.8219   4.0088   7.1221   C.3       1 RES1   0.0000
    21 C15      0.0326   1.6726   5.7267   C.2       1 RES1   0.0000
    22 C16      0.6858   3.2622   4.0183   C.3       1 RES1   0.0000
    23 C17     -0.3521   1.1276   3.4184   C.3       1 RES1   0.0000
    24 H1       1.8290   2.8246  11.4924   H         1 RES1   0.0000
    25 H2       2.6115   2.6806  13.6605   H         1 RES1   0.0000
    26 H3       3.8037  -1.0745  13.1226   H         1 RES1   0.0000
    27 H4       2.9795  -0.9859  10.8730   H         1 RES1   0.0000
    28 H5       3.5385   1.5065  15.4863   H         1 RES1   0.0000
    29 H6       4.6546   0.6092  15.0950   H         1 RES1   0.0000
    30 H7       3.1790   0.0554  15.4863   H         1 RES1   0.0000
    31 H8       4.6381   0.5982   9.2266   H         1 RES1   0.0000
    32 H9       6.5898   1.7723   8.5256   H         1 RES1   0.0000
    33 H10      4.1827   4.7410   7.0096   H         1 RES1   0.0000
    34 H11      2.3192   3.6333   7.8246   H         1 RES1   0.0000
    35 H12      6.7547   4.9403   6.9444   H         1 RES1   0.0000
    36 H13      7.0098   3.7883   6.2271   H         1 RES1   0.0000
    37 H14      7.6305   3.8991   7.7594   H         1 RES1   0.0000
    38 H15      0.5054   2.3040   6.3249   H         1 RES1   0.0000
    39 H16     -0.0205   3.7662   3.5537   H         1 RES1   0.0000
    40 H17      1.4826   3.1680   3.3907   H         1 RES1   0.0000
    41 H18      1.1599   3.7108   4.8089   H         1 RES1   0.0000
    42 H19     -1.1212   1.5951   2.8853   H         1 RES1   0.0000
    43 H20      0.3662   0.6979   2.8853   H         1 RES1   0.0000
    44 H21     -0.9195   0.4431   3.7493   H         1 RES1   0.0000
    45 S1B     -3.2430   0.6587   7.9611   S.2       1 RES1   0.0000
    46 S2B     -1.7346  -2.2001   7.2142   S.2       1 RES1   0.0000
    47 O1B     -1.0900  -0.6303  10.1427   O.2       1 RES1   0.0000
    48 P1B     -3.4123  -1.1209   7.0555   P.3       1 RES1   0.0000
    49 C15B    -1.6051  -1.6726  10.5747   C.2       1 RES1   0.0000
    50 C1B     -3.8957  -0.9260   5.3191   C.ar      1 RES1   0.0000
    51 C8B     -4.8472  -2.0282   7.7170   C.ar      1 RES1   0.0000
    52 N1B     -1.6872  -1.9950  11.8494   N.am      1 RES1   0.0000
    53 H15B    -2.0779  -2.3040   9.9764   H         1 RES1   0.0000
    54 C2B     -3.7681  -2.0216   4.4715   C.ar      1 RES1   0.0000
    55 C6B     -4.4802   0.2393   4.8382   C.ar      1 RES1   0.0000
    56 C9B     -6.1159  -1.4677   7.5573   C.ar      1 RES1   0.0000
    57 C13B    -4.7373  -3.2633   8.3381   C.ar      1 RES1   0.0000
    58 C16B    -2.2583  -3.2622  12.2831   C.3       1 RES1   0.0000
    59 C17B    -1.2204  -1.1276  12.8829   C.3       1 RES1   0.0000
    60 C3B     -4.2194  -1.9462   3.1625   C.ar      1 RES1   0.0000
    61 H1B     -3.4015  -2.8246   4.8089   H         1 RES1   0.0000
    62 C5B     -4.9370   0.3046   3.5341   C.ar      1 RES1   0.0000
    63 H4B     -4.5520   0.9859   5.4283   H         1 RES1   0.0000
    64 C10B    -7.2442  -2.1013   8.0235   C.ar      1 RES1   0.0000
    65 H8B     -6.2106  -0.5982   7.0748   H         1 RES1   0.0000
    66 C12B    -5.8916  -3.9024   8.8174   C.ar      1 RES1   0.0000
    67 H11B    -3.8917  -3.6333   8.4767   H         1 RES1   0.0000
    68 H16B    -1.5520  -3.7662  12.7476   H         1 RES1   0.0000
    69 H17B    -3.0551  -3.1680  12.9107   H         1 RES1   0.0000
    70 H18B    -2.7324  -3.7108  11.4924   H         1 RES1   0.0000
    71 H19B    -0.4513  -1.5951  13.4160   H         1 RES1   0.0000
    72 H20B    -1.9387  -0.6979  13.4160   H         1 RES1   0.0000
    73 H21B    -0.6531  -0.4431  12.5520   H         1 RES1   0.0000
    74 C4B     -4.7973  -0.7865   2.6767   C.ar      1 RES1   0.0000
    75 H2B     -4.1840  -2.6806   2.6408   H         1 RES1   0.0000
    76 H3B     -5.3762   1.0745   3.1788   H         1 RES1   0.0000
    77 C11B    -7.1442  -3.3408   8.6576   C.ar      1 RES1   0.0000
    78 H9B     -8.1623  -1.7723   7.7757   H         1 RES1   0.0000
    79 H10B    -5.7552  -4.7410   9.2918   H         1 RES1   0.0000
    80 C7B     -5.2941  -0.7001   1.2617   C.3       1 RES1   0.0000
    81 C14B    -8.3944  -4.0088   9.1793   C.3       1 RES1   0.0000
    82 H5B     -5.1110  -1.5065   0.8151   H         1 RES1   0.0000
    83 H6B     -6.2271  -0.6092   1.2063   H         1 RES1   0.0000
    84 H7B     -4.7515  -0.0554   0.8151   H         1 RES1   0.0000
    85 H12B    -8.3272  -4.9403   9.3570   H         1 RES1   0.0000
    86 H13B    -8.5823  -3.7883  10.0742   H         1 RES1   0.0000
    87 H14B    -9.2030  -3.8991   8.5419   H         1 RES1   0.0000
    88 O2       3.3136   0.3456   2.1925   O.2       2 RES2   0.0000
    89 N2       4.0299   1.9861   3.5944   N.am      2 RES2   0.0000
    90 C18      3.7614   1.4566   2.3947   C.2       2 RES2   0.0000
    91 C19      4.5787   3.3231   3.7395   C.3       2 RES2   0.0000
    92 C20      3.7944   1.2185   4.8024   C.3       2 RES2   0.0000
    93 H22      3.9750   2.1157   1.5812   H         2 RES2   0.0000
    94 H23      4.0099   3.9213   4.3036   H         2 RES2   0.0000
    95 H24      4.7509   3.7994   2.9179   H         2 RES2   0.0000
    96 H25      5.4323   3.2566   4.2057   H         2 RES2   0.0000
    97 H26      3.2181   1.7391   5.4446   H         2 RES2   0.0000
    98 H27      3.2579   0.4320   4.6459   H         2 RES2   0.0000
    99 H28      4.6407   0.9526   5.2164   H         2 RES2   0.0000
@<TRIPOS>BOND
     1     1     2    1
     2     2     4   un
     3     3     1    1
     4     4     3   un
     5     5     1    1
     6     6    21   am
     7     7     4    1
     8     8     7   ar
     9     9     8   ar
    10    10     9   ar
    11    11    10   ar
    12    12     7   ar
    13    13    10    1
    14    14     4    1
    15    15    14   ar
    16    16    15   ar
    17    17    16   ar
    18    18    17   ar
    19    19    14   ar
    20    20    17    1
    21    21     5    2
    22    22     6    1
    23    23     6    1
    24    24     8    1
    25    25     9    1
    26    26    11    1
    27    27    12    1
    28    28    13    1
    29    29    13    1
    30    30    13    1
    31    31    15    1
    32    32    16    1
    33    33    18    1
    34    34    19    1
    35    35    20    1
    36    36    20    1
    37    37    20    1
    38    38    21    1
    39    39    22    1
    40    40    22    1
    41    41    22    1
    42    42    23    1
    43    43    23    1
    44    44    23    1
    45    45     1    1
    46    46     1    1
    47    47     1    1
    48    48    45   un
    49    49    47    2
    50    50    48    1
    51    51    48    1
    52    52    49   am
    53    53    49    1
    54    54    50   ar
    55    55    50   ar
    56    56    51   ar
    57    57    51   ar
    58    58    52    1
    59    59    52    1
    60    60    54   ar
    61    61    54    1
    62    62    55   ar
    63    63    55    1
    64    64    56   ar
    65    65    56    1
    66    66    57   ar
    67    67    57    1
    68    68    58    1
    69    69    58    1
    70    70    58    1
    71    71    59    1
    72    72    59    1
    73    73    59    1
    74    74    60   ar
    75    75    60    1
    76    76    62    1
    77    77    64   ar
    78    78    64    1
    79    79    66    1
    80    80    74    1
    81    81    77    1
    82    82    80    1
    83    83    80    1
    84    84    80    1
    85    85    81    1
    86    86    81    1
    87    87    81    1
    88    11    12   ar
    89    18    19   ar
    90    46    48   un
    91    62    74   ar
    92    66    77   ar
    93    88    90    2
    94    89    90   am
    95    90    93    1
    96    91    89    1
    97    92    89    1
    98    94    91    1
    99    95    91    1
   100    96    91    1
   101    97    92    1
   102    98    92    1
   103    99    92    1
@<TRIPOS>SUBSTRUCTURE
     1 RES1        1 GROUP             0 ****  ****    0  
     2 RES2       88 GROUP             0 ****  ****    0  
@<TRIPOS>CRYSIN
   12.3950   11.0770   16.3770   90.0000   95.5100   90.0000   231     1
