@<TRIPOS>MOLECULE
SEYDAD
   115   125     2     0     0
SMALL
NO_CHARGES
****
Generated from the CSD

@<TRIPOS>ATOM
     1 Fe1      1.8464   4.6915   7.7427   Fe        1 RES1   0.0000
     2 S1      -0.0044   6.4353  11.8411   S.2       1 RES1   0.0000
     3 F1       0.2708   6.0060  15.0336   F         1 RES1   0.0000
     4 F2      -0.2556   6.7457  17.5569   F         1 RES1   0.0000
     5 F3       1.1255   5.6800  19.6022   F         1 RES1   0.0000
     6 F4       3.0736   3.8925  19.1163   F         1 RES1   0.0000
     7 F5       3.6303   3.1442  16.5714   F         1 RES1   0.0000
     8 F6       6.7253   8.5818  13.3438   F         1 RES1   0.0000
     9 F7       7.9706   9.9780  11.4008   F         1 RES1   0.0000
    10 F8       6.5647  10.8172   9.2425   F         1 RES1   0.0000
    11 F9       3.9459  10.2334   9.0072   F         1 RES1   0.0000
    12 F10      2.7122   8.8367  10.9487   F         1 RES1   0.0000
    13 O1       2.1826   4.0692  14.4855   O.3       1 RES1   0.0000
    14 O2       4.0794   7.9771  13.1945   O.3       1 RES1   0.0000
    15 N1       1.0466   5.3881   9.5045   N.2       1 RES1   0.0000
    16 N2       3.7780   5.6294   8.1941   N.ar      1 RES1   0.0000
    17 N3       2.7818   2.9923   8.7956   N.ar      1 RES1   0.0000
    18 N4       3.8215   4.4881  10.2636   N.pl3     1 RES1   0.0000
    19 N5       2.9647   4.2386  12.4075   N.ar      1 RES1   0.0000
    20 N6       3.9642   6.2600  11.6964   N.ar      1 RES1   0.0000
    21 N7       3.1345   6.0723  13.9124   N.ar      1 RES1   0.0000
    22 C1       0.6056   5.8239  10.4770   C.1       1 RES1   0.0000
    23 C2       4.3792   6.3956   7.2720   C.ar      1 RES1   0.0000
    24 H1       3.9171   6.5910   6.4884   H         1 RES1   0.0000
    25 C3       5.6439   6.9064   7.4307   C.ar      1 RES1   0.0000
    26 H2       6.0151   7.4672   6.7873   H         1 RES1   0.0000
    27 C4       6.3480   6.5692   8.5600   C.ar      1 RES1   0.0000
    28 H3       7.2112   6.8921   8.6873   H         1 RES1   0.0000
    29 C5       5.7695   5.7528   9.5031   C.ar      1 RES1   0.0000
    30 H4       6.2351   5.4977  10.2668   H         1 RES1   0.0000
    31 C6       4.4741   5.3229   9.2820   C.ar      1 RES1   0.0000
    32 C7       2.5634   1.7397   8.3590   C.ar      1 RES1   0.0000
    33 H5       2.1188   1.6153   7.5522   H         1 RES1   0.0000
    34 C8       2.9745   0.6371   9.0683   C.ar      1 RES1   0.0000
    35 H6       2.7977  -0.2187   8.7508   H         1 RES1   0.0000
    36 C9       3.6486   0.8111  10.2529   C.ar      1 RES1   0.0000
    37 H7       3.9141   0.0768  10.7562   H         1 RES1   0.0000
    38 C10      3.9258   2.0900  10.6812   C.ar      1 RES1   0.0000
    39 H8       4.3996   2.2359  11.4685   H         1 RES1   0.0000
    40 C11      3.4829   3.1500   9.9138   C.ar      1 RES1   0.0000
    41 C12      3.5735   5.0039  11.5041   C.ar      1 RES1   0.0000
    42 C13      2.7939   4.8523  13.5575   C.ar      1 RES1   0.0000
    43 C14      3.7080   6.7011  12.9003   C.ar      1 RES1   0.0000
    44 C15      1.9752   4.5730  15.7508   C.ar      1 RES1   0.0000
    45 C16      0.9914   5.4917  16.0248   C.ar      1 RES1   0.0000
    46 C17      0.7098   5.8523  17.3158   C.ar      1 RES1   0.0000
    47 C18      1.4011   5.3120  18.3440   C.ar      1 RES1   0.0000
    48 C19      2.3788   4.4019  18.1009   C.ar      1 RES1   0.0000
    49 C20      2.6722   4.0333  16.8017   C.ar      1 RES1   0.0000
    50 C21      4.7062   8.6617  12.1686   C.ar      1 RES1   0.0000
    51 C22      6.0418   8.9629  12.2799   C.ar      1 RES1   0.0000
    52 C23      6.6733   9.6893  11.2889   C.ar      1 RES1   0.0000
    53 C24      5.9559  10.1016  10.2002   C.ar      1 RES1   0.0000
    54 C25      4.6486   9.8099  10.0764   C.ar      1 RES1   0.0000
    55 C26      4.0050   9.1042  11.0736   C.ar      1 RES1   0.0000
    56 S1A      3.6972   2.9477   3.6443   S.2       1 RES1   0.0000
    57 F1A      3.4219   3.3770   0.4519   F         1 RES1   0.0000
    58 F2A      3.9484   2.6373  -2.0715   F         1 RES1   0.0000
    59 F3A      2.5672   3.7030  -4.1168   F         1 RES1   0.0000
    60 F4A      0.6192   5.4905  -3.6309   F         1 RES1   0.0000
    61 F5A      0.0625   6.2388  -1.0860   F         1 RES1   0.0000
    62 F6A     -3.0325   0.8012   2.1416   F         1 RES1   0.0000
    63 F7A     -4.2779  -0.5950   4.0846   F         1 RES1   0.0000
    64 F8A     -2.8719  -1.4342   6.2429   F         1 RES1   0.0000
    65 F9A     -0.2531  -0.8504   6.4782   F         1 RES1   0.0000
    66 F10A     0.9806   0.5463   4.5368   F         1 RES1   0.0000
    67 O1A      1.5101   5.3138   0.9999   O.3       1 RES1   0.0000
    68 O2A     -0.3866   1.4060   2.2909   O.3       1 RES1   0.0000
    69 N1A      2.6462   3.9949   5.9809   N.2       1 RES1   0.0000
    70 N2A     -0.0852   3.7536   7.2913   N.ar      1 RES1   0.0000
    71 N3A      0.9110   6.3907   6.6899   N.ar      1 RES1   0.0000
    72 N4A     -0.1287   4.8949   5.2218   N.pl3     1 RES1   0.0000
    73 N5A      0.7281   5.1444   3.0779   N.ar      1 RES1   0.0000
    74 N6A     -0.2715   3.1230   3.7890   N.ar      1 RES1   0.0000
    75 N7A      0.5583   3.3107   1.5730   N.ar      1 RES1   0.0000
    76 C1A      3.0872   3.5591   5.0084   C.1       1 RES1   0.0000
    77 C2A     -0.6865   2.9875   8.2135   C.ar      1 RES1   0.0000
    78 H1A     -0.2244   2.7920   8.9970   H         1 RES1   0.0000
    79 C3A     -1.9511   2.4766   8.0547   C.ar      1 RES1   0.0000
    80 H2A     -2.3224   1.9158   8.6982   H         1 RES1   0.0000
    81 C4A     -2.6552   2.8138   6.9254   C.ar      1 RES1   0.0000
    82 H3A     -3.5184   2.4909   6.7981   H         1 RES1   0.0000
    83 C5A     -2.0768   3.6303   5.9823   C.ar      1 RES1   0.0000
    84 H4A     -2.5424   3.8854   5.2186   H         1 RES1   0.0000
    85 C6A     -0.7814   4.0601   6.2035   C.ar      1 RES1   0.0000
    86 C7A      1.1294   7.6433   7.1264   C.ar      1 RES1   0.0000
    87 H5A      1.5740   7.7677   7.9332   H         1 RES1   0.0000
    88 C8A      0.7182   8.7459   6.4172   C.ar      1 RES1   0.0000
    89 H6A      0.8951   9.6017   6.7346   H         1 RES1   0.0000
    90 C9A      0.0441   8.5720   5.2325   C.ar      1 RES1   0.0000
    91 H7A     -0.2213   9.3062   4.7292   H         1 RES1   0.0000
    92 C10A    -0.2331   7.2931   4.8042   C.ar      1 RES1   0.0000
    93 H8A     -0.7068   7.1471   4.0169   H         1 RES1   0.0000
    94 C11A     0.2099   6.2330   5.5717   C.ar      1 RES1   0.0000
    95 C12A     0.1192   4.3791   3.9813   C.ar      1 RES1   0.0000
    96 C13A     0.8989   4.5307   1.9279   C.ar      1 RES1   0.0000
    97 C14A    -0.0152   2.6819   2.5851   C.ar      1 RES1   0.0000
    98 C15A     1.7175   4.8100  -0.2654   C.ar      1 RES1   0.0000
    99 C16A     2.7014   3.8913  -0.5394   C.ar      1 RES1   0.0000
   100 C17A     2.9830   3.5307  -1.8304   C.ar      1 RES1   0.0000
   101 C18A     2.2917   4.0710  -2.8586   C.ar      1 RES1   0.0000
   102 C19A     1.3140   4.9811  -2.6155   C.ar      1 RES1   0.0000
   103 C20A     1.0205   5.3497  -1.3163   C.ar      1 RES1   0.0000
   104 C21A    -1.0134   0.7213   3.3168   C.ar      1 RES1   0.0000
   105 C22A    -2.3490   0.4201   3.2055   C.ar      1 RES1   0.0000
   106 C23A    -2.9805  -0.3063   4.1965   C.ar      1 RES1   0.0000
   107 C24A    -2.2632  -0.7186   5.2852   C.ar      1 RES1   0.0000
   108 C25A    -0.9559  -0.4269   5.4091   C.ar      1 RES1   0.0000
   109 C26A    -0.3122   0.2789   4.4118   C.ar      1 RES1   0.0000
   110 N8       5.4323   0.2158  13.2462   N.1       2 RES2   0.0000
   111 C27      4.6994  -0.4193  13.7960   C.1       2 RES2   0.0000
   112 C28      3.7955  -1.3718  14.4959   C.3       2 RES2   0.0000
   113 H9       3.4347  -1.9957  13.8610   H         2 RES2   0.0000
   114 H10      3.0782  -0.8854  14.9094   H         2 RES2   0.0000
   115 H11      4.2888  -1.8480  15.1680   H         2 RES2   0.0000
@<TRIPOS>BOND
     1     1    15    1
     2     2    22    2
     3     3    45    1
     4     4    46    1
     5     5    47    1
     6     6    48    1
     7     7    49    1
     8     8    51    1
     9     9    52    1
    10    10    53    1
    11    11    54    1
    12    12    55    1
    13    13    42    1
    14    14    43    1
    15    15    22    2
    16    16     1    1
    17    17     1    1
    18    18    31    1
    19    19    41   ar
    20    20    41   ar
    21    21    42   ar
    22    23    16   ar
    23    24    23    1
    24    25    23   ar
    25    26    25    1
    26    27    25   ar
    27    28    27    1
    28    29    27   ar
    29    30    29    1
    30    31    16   ar
    31    32    17   ar
    32    33    32    1
    33    34    32   ar
    34    35    34    1
    35    36    34   ar
    36    37    36    1
    37    38    36   ar
    38    39    38    1
    39    40    17   ar
    40    41    18    1
    41    42    19   ar
    42    43    20   ar
    43    44    13    1
    44    45    44   ar
    45    46    45   ar
    46    47    46   ar
    47    48    47   ar
    48    49    44   ar
    49    50    14    1
    50    51    50   ar
    51    52    51   ar
    52    53    52   ar
    53    54    53   ar
    54    55    50   ar
    55    56    76    2
    56    57    99    1
    57    58   100    1
    58    59   101    1
    59    60   102    1
    60    61   103    1
    61    62   105    1
    62    63   106    1
    63    64   107    1
    64    65   108    1
    65    66   109    1
    66    67    96    1
    67    68    97    1
    68    69     1    1
    69    70     1    1
    70    71     1    1
    71    72    85    1
    72    73    95   ar
    73    74    95   ar
    74    75    96   ar
    75    76    69    2
    76    77    70   ar
    77    78    77    1
    78    79    77   ar
    79    80    79    1
    80    81    79   ar
    81    82    81    1
    82    83    81   ar
    83    84    83    1
    84    85    70   ar
    85    86    71   ar
    86    87    86    1
    87    88    86   ar
    88    89    88    1
    89    90    88   ar
    90    91    90    1
    91    92    90   ar
    92    93    92    1
    93    94    71   ar
    94    95    72    1
    95    96    73   ar
    96    97    74   ar
    97    98    67    1
    98    99    98   ar
    99   100    99   ar
   100   101   100   ar
   101   102   101   ar
   102   103    98   ar
   103   104    68    1
   104   105   104   ar
   105   106   105   ar
   106   107   106   ar
   107   108   107   ar
   108   109   104   ar
   109    18    40    1
   110    21    43   ar
   111    29    31   ar
   112    38    40   ar
   113    48    49   ar
   114    54    55   ar
   115    72    94    1
   116    75    97   ar
   117    83    85   ar
   118    92    94   ar
   119   102   103   ar
   120   108   109   ar
   121   110   111    3
   122   111   112    1
   123   112   113    1
   124   114   112    1
   125   115   112    1
@<TRIPOS>SUBSTRUCTURE
     1 RES1        1 GROUP             0 ****  ****    0  
     2 RES2      110 GROUP             0 ****  ****    0  
@<TRIPOS>CRYSIN
    8.6430   11.4940   15.8440   94.8510  100.0350  100.9810     2     1
