@<TRIPOS>MOLECULE
SEYRAP
    45    36     9     0     0
SMALL
USER_CHARGES
****
Generated from the CSD

@<TRIPOS>ATOM
     1 Fe1     -4.6550   4.7273   9.5992   Fe        1 RES1  -3.0000
     2 C1      -5.8361   4.8309   8.0704   C.1       1 RES1   0.0000
     3 C2      -3.4317   4.6407  11.1275   C.1       1 RES1   0.0000
     4 C3      -6.1247   4.1736  10.7490   C.1       1 RES1   0.0000
     5 C4      -3.1837   5.2511   8.4075   C.1       1 RES1   0.0000
     6 C5      -5.0765   6.5912  10.0086   C.1       1 RES1   0.0000
     7 C6      -4.2353   2.8605   9.1742   C.1       1 RES1   0.0000
     8 N1      -6.5400   4.8706   7.1531   N.1       1 RES1   0.0000
     9 N2      -2.7411   4.6151  12.0282   N.1       1 RES1   0.0000
    10 N3      -6.9790   3.8372  11.4245   N.1       1 RES1   0.0000
    11 N4      -2.3156   5.5350   7.7347   N.1       1 RES1   0.0000
    12 N5      -5.3451   7.6573  10.2710   N.1       1 RES1   0.0000
    13 N6      -3.9971   1.7688   8.9435   N.1       1 RES1   0.0000
    14 O1       2.0792   4.9076   4.9539   O.3       2 RES2   0.0000
    15 O2       2.2054   3.0308   2.8665   O.3       3 RES3   0.0000
    16 O3       3.5262   3.5788   0.3882   O.3       4 RES4   0.0000
    17 O4      -4.2870  -0.9100   8.0027   O.3       5 RES5   0.0000
    18 O5       3.9829  10.5207  -0.0484   O.3       6 RES6   0.0000
    19 N7       0.4644   1.5048   8.4779   N.4       7 RES7   1.0000
    20 C7       1.8135   2.1578   8.3992   C.3       7 RES7   0.0000
    21 C8       2.8524   1.5048   7.5952   C.3       7 RES7   0.0000
    22 C9      -0.2163   1.3202   7.0868   C.3       7 RES7   0.0000
    23 C10     -0.4046   2.5127   6.2994   C.3       7 RES7   0.0000
    24 C11      0.5843   0.0994   9.0208   C.2       7 RES7   0.0000
    25 C12     -0.5501  -0.6672   9.3247   C.2       7 RES7   0.0000
    26 C13     -0.4229   2.3565   9.3192   C.3       7 RES7   0.0000
    27 C14     -0.0978   2.5127  10.7656   C.3       7 RES7   0.0000
    28 N8       0.1365   0.0014  -1.0872   N.4       8 RES8   1.0000
    29 C15      0.2572   1.5530  -1.1646   C.3       8 RES8   0.0000
    30 C16     -0.3323   2.2689  -0.0055   C.3       8 RES8   0.0000
    31 C17     -1.2796  -0.4600  -0.9573   C.3       8 RES8   0.0000
    32 C18     -2.2199   0.0142  -2.0943   C.3       8 RES8   0.0000
    33 C19      0.8516  -0.5494   0.1340   C.3       8 RES8   0.0000
    34 C20      2.2862  -0.2002   0.2224   C.3       8 RES8   0.0000
    35 C21      0.7382  -0.5167  -2.3871   C.3       8 RES8   0.0000
    36 C22      0.8224  -2.0116  -2.4838   C.3       8 RES8   0.0000
    37 N9      -0.0569   7.9980  10.3235   N.4       9 RES9   1.0000
    38 C23      0.4607   9.1706   9.6149   C.3       9 RES9   0.0000
    39 C24     -0.1523   9.3836   8.1864   C.3       9 RES9   0.0000
    40 C25      0.3709   6.7289   9.6024   C.2       9 RES9   0.0000
    41 C26      1.6584   6.4166   9.4353   C.2       9 RES9   0.0000
    42 C27      0.4846   8.0491  11.7188   C.3       9 RES9   0.0000
    43 C28      0.0717   6.7857  12.5242   C.3       9 RES9   0.0000
    44 C29     -1.5726   7.9696  10.3346   C.3       9 RES9   0.0000
    45 C30     -2.2024   9.1848  10.8775   C.3       9 RES9   0.0000
@<TRIPOS>BOND
     1     1     2    1
     2     2     8    3
     3     3     1    1
     4     4     1    1
     5     5     1    1
     6     6     1    1
     7     7     1    1
     8     9     3    3
     9    10     4    3
    10    11     5    3
    11    12     6    3
    12    13     7    3
    13    19    20    1
    14    20    21    1
    15    22    19    1
    16    23    22    1
    17    24    19    1
    18    25    24    1
    19    26    19    1
    20    27    26    1
    21    28    29    1
    22    29    30    1
    23    31    28    1
    24    32    31    1
    25    33    28    1
    26    34    33    1
    27    35    28    1
    28    36    35    1
    29    37    38    1
    30    38    39    1
    31    40    37    1
    32    41    40    1
    33    42    37    1
    34    43    42    1
    35    44    37    1
    36    45    44    1
@<TRIPOS>SUBSTRUCTURE
     1 RES1        1 GROUP             0 ****  ****    0  
     2 RES2       14 GROUP             0 ****  ****    0  
     3 RES3       15 GROUP             0 ****  ****    0  
     4 RES4       16 GROUP             0 ****  ****    0  
     5 RES5       17 GROUP             0 ****  ****    0  
     6 RES6       18 GROUP             0 ****  ****    0  
     7 RES7       19 GROUP             0 ****  ****    0  
     8 RES8       28 GROUP             0 ****  ****    0  
     9 RES9       37 GROUP             0 ****  ****    0  
@<TRIPOS>CRYSIN
   10.4420   14.1960   14.5520   90.0000  108.3200   90.0000     4     1
