@<TRIPOS>MOLECULE
SEZJOZ
    84    94     2     0     0
SMALL
USER_CHARGES
****
Generated from the CSD

@<TRIPOS>ATOM
     1 Fe1      1.9070   2.9687   3.9263   Fe        1 RES1   2.0000
     2 N1       2.6434   4.5671   3.0570   N.ar      1 RES1   0.0000
     3 N2       0.7841   2.5146   2.3663   N.ar      1 RES1   0.0000
     4 N3       3.3791   1.7954   3.3032   N.ar      1 RES1   0.0000
     5 C1       1.8713   5.6899   3.2653   C.ar      1 RES1   0.0000
     6 N4       0.5399   4.2424   4.5708   N.ar      1 RES1   0.0000
     7 N5       0.9734   1.4309   4.7340   N.ar      1 RES1   0.0000
     8 C2      -0.0233   1.4403   2.5914   C.ar      1 RES1   0.0000
     9 C3       0.7170   5.5045   4.0756   C.ar      1 RES1   0.0000
    10 C4       0.0747   0.8557   3.8800   C.ar      1 RES1   0.0000
    11 N6       3.1232   3.2783   5.4416   N.ar      1 RES1   0.0000
    12 C5       3.4776   1.0185   2.2256   C.ar      1 RES1   0.0000
    13 H1       2.7686   1.0031   1.6249   H         1 RES1   0.0000
    14 C6       4.4428   1.8156   4.1417   C.ar      1 RES1   0.0000
    15 C7       4.3238   2.6505   5.2813   C.ar      1 RES1   0.0000
    16 C8       5.3974   2.7901   6.1746   C.ar      1 RES1   0.0000
    17 C9       3.7331   4.7164   2.3086   C.ar      1 RES1   0.0000
    18 H2       4.2628   3.9711   2.1384   H         1 RES1   0.0000
    19 C10      1.0623   0.9235   5.9593   C.ar      1 RES1   0.0000
    20 H3       1.6710   1.2905   6.5601   H         1 RES1   0.0000
    21 C11     -0.8988   0.9050   1.6235   C.ar      1 RES1   0.0000
    22 C12      5.6130   1.0536   3.9293   C.ar      1 RES1   0.0000
    23 C13      3.3388   7.0449   1.9541   C.ar      1 RES1   0.0000
    24 H4       3.5815   7.8586   1.5742   H         1 RES1   0.0000
    25 C14      4.5878   0.2326   1.9597   C.ar      1 RES1   0.0000
    26 H5       4.6064  -0.2977   1.1958   H         1 RES1   0.0000
    27 C15      2.1739   6.9384   2.7222   C.ar      1 RES1   0.0000
    28 C16      5.6384   0.2354   2.8010   C.ar      1 RES1   0.0000
    29 H6       6.3758  -0.3057   2.6308   H         1 RES1   0.0000
    30 C17     -0.5189   4.0544   5.3516   C.ar      1 RES1   0.0000
    31 H7      -0.6555   3.2121   5.7202   H         1 RES1   0.0000
    32 C18     -0.1320   6.5784   4.3387   C.ar      1 RES1   0.0000
    33 C19     -1.4303   5.0634   5.6414   C.ar      1 RES1   0.0000
    34 H8      -2.1702   4.8791   6.1746   H         1 RES1   0.0000
    35 C20      2.9714   4.0510   6.5221   C.ar      1 RES1   0.0000
    36 H9       2.1615   4.4877   6.6557   H         1 RES1   0.0000
    37 C21      0.7192   3.0781   1.1606   C.ar      1 RES1   0.0000
    38 H10      1.2602   3.8135   0.9792   H         1 RES1   0.0000
    39 C22     -0.7396  -0.2355   4.2092   C.ar      1 RES1   0.0000
    40 C23      0.1691   7.8589   3.7351   C.ar      1 RES1   0.0000
    41 H11     -0.4013   8.5792   3.8730   H         1 RES1   0.0000
    42 C24     -1.2462   6.3256   5.1434   C.ar      1 RES1   0.0000
    43 H12     -1.8525   7.0034   5.3389   H         1 RES1   0.0000
    44 C25     -0.6128  -0.7287   5.5007   C.ar      1 RES1   0.0000
    45 H13     -1.1258  -1.4550   5.7708   H         1 RES1   0.0000
    46 C26      4.1115   5.9407   1.7712   C.ar      1 RES1   0.0000
    47 H14      4.9003   6.0062   1.2816   H         1 RES1   0.0000
    48 C27     -1.6026  -0.7663   3.2034   C.ar      1 RES1   0.0000
    49 H15     -2.1258  -1.5092   3.4017   H         1 RES1   0.0000
    50 C28      6.6792   1.1994   4.8606   C.ar      1 RES1   0.0000
    51 H16      7.4567   0.7051   4.7396   H         1 RES1   0.0000
    52 C29      5.1990   3.6081   7.2790   C.ar      1 RES1   0.0000
    53 H17      5.8851   3.7357   7.8937   H         1 RES1   0.0000
    54 C30     -1.6799  -0.2248   1.9850   C.ar      1 RES1   0.0000
    55 H18     -2.2576  -0.5959   1.3590   H         1 RES1   0.0000
    56 C31     -0.1290   2.6038   0.1632   C.ar      1 RES1   0.0000
    57 H19     -0.1463   3.0288  -0.6640   H         1 RES1   0.0000
    58 C32      1.2597   8.0123   2.9839   C.ar      1 RES1   0.0000
    59 H20      1.4342   8.8480   2.6153   H         1 RES1   0.0000
    60 C33      0.2515  -0.1596   6.3716   C.ar      1 RES1   0.0000
    61 H21      0.3136  -0.4805   7.2424   H         1 RES1   0.0000
    62 C34      6.5904   2.0309   5.9059   C.ar      1 RES1   0.0000
    63 H22      7.3202   2.1208   6.4742   H         1 RES1   0.0000
    64 C35     -0.9232   1.5406   0.3784   C.ar      1 RES1   0.0000
    65 H23     -1.4832   1.2302  -0.2954   H         1 RES1   0.0000
    66 C36      4.0028   4.2230   7.4590   C.ar      1 RES1   0.0000
    67 H24      3.8659   4.7595   8.2061   H         1 RES1   0.0000
    68 N7       7.9134   4.5028   1.4364   N.am      2 RES2   0.0000
    69 O1       7.5019   4.9210  -0.7386   O.2       2 RES2   0.0000
    70 C37      7.4386   4.2133   0.2617   C.2       2 RES2   0.0000
    71 H25      7.0115   3.3926   0.1716   H         2 RES2   0.0000
    72 C38      8.5942   5.7500   1.6530   C.3       2 RES2   0.0000
    73 H26      9.5325   5.6357   1.4884   H         2 RES2   0.0000
    74 H27      8.4603   6.0348   2.5604   H         2 RES2   0.0000
    75 H28      8.2441   6.4148   1.0537   H         2 RES2   0.0000
    76 C39      7.7832   3.6038   2.5576   C.3       2 RES2   0.0000
    77 H29      7.3458   2.7975   2.2734   H         2 RES2   0.0000
    78 H30      7.2624   4.0250   3.2456   H         2 RES2   0.0000
    79 H31      8.6546   3.3927   2.9009   H         2 RES2   0.0000
    80 Pb1      6.4568   4.1164  -3.1956   Pb        2 RES2   0.0000
    81 I1       4.1164   3.0526  -1.0264   I         2 RES2  -1.0000
    82 I2       4.8104   2.7896  -5.4284   I         2 RES2  -1.0000
    83 I3       7.3441   6.5605  -4.9294   I         2 RES2   0.0000
    84 I4       8.9069   2.4293  -3.4652   I         2 RES2   0.0000
@<TRIPOS>BOND
     1     1     2    1
     2     2     5   ar
     3     3     1    1
     4     4     1    1
     5     5     9   ar
     6     6     1    1
     7     7     1    1
     8     8     3   ar
     9     9     6   ar
    10    10     7   ar
    11    11     1    1
    12    12     4   ar
    13    13    12    1
    14    14     4   ar
    15    15    11   ar
    16    16    15   ar
    17    17     2   ar
    18    18    17    1
    19    19     7   ar
    20    20    19    1
    21    21     8   ar
    22    22    14   ar
    23    23    24    1
    24    25    12   ar
    25    26    25    1
    26    27     5   ar
    27    28    22   ar
    28    29    28    1
    29    30     6   ar
    30    31    30    1
    31    32     9   ar
    32    33    30   ar
    33    34    33    1
    34    35    11   ar
    35    36    35    1
    36    37     3   ar
    37    38    37    1
    38    39    10   ar
    39    40    32   ar
    40    41    40    1
    41    42    32   ar
    42    43    42    1
    43    44    39   ar
    44    45    44    1
    45    46    17   ar
    46    47    46    1
    47    48    39   ar
    48    49    48    1
    49    50    22   ar
    50    51    50    1
    51    52    16   ar
    52    53    52    1
    53    54    21   ar
    54    55    54    1
    55    56    37   ar
    56    57    56    1
    57    58    27   ar
    58    59    58    1
    59    60    19   ar
    60    61    60    1
    61    62    16   ar
    62    63    62    1
    63    64    21   ar
    64    65    64    1
    65    66    35   ar
    66    67    66    1
    67     8    10   ar
    68    14    15   ar
    69    23    27   ar
    70    23    46   ar
    71    25    28   ar
    72    33    42   ar
    73    40    58   ar
    74    44    60   ar
    75    48    54   ar
    76    50    62   ar
    77    52    66   ar
    78    56    64   ar
    79    68    70   am
    80    69    70    2
    81    70    71    1
    82    72    68    1
    83    73    72    1
    84    74    72    1
    85    75    72    1
    86    76    68    1
    87    77    76    1
    88    78    76    1
    89    79    76    1
    90    80    69    1
    91    81    80    1
    92    82    80    1
    93    83    80    1
    94    84    80    1
@<TRIPOS>SUBSTRUCTURE
     1 RES1        1 GROUP             0 ****  ****    0  
     2 RES2       68 GROUP             0 ****  ****    0  
@<TRIPOS>CRYSIN
   11.1452   13.4564   14.8175   89.5204   71.8960   80.2800     2     1
