@<TRIPOS>MOLECULE
SIBZEI
    92    98     2     0     0
SMALL
USER_CHARGES
****
Generated from the CSD

@<TRIPOS>ATOM
     1 Fe1      9.6811   3.4768   3.3173   Fe        1 RES1   1.0000
     2 O1       9.2719   4.5301   4.8848   O.2       1 RES1   0.0000
     3 C1       9.9709   4.7542   5.9484   C.2       1 RES1   0.0000
     4 C2      11.1940   4.2497   6.1990   C.2       1 RES1   0.0000
     5 C3      11.9070   3.3318   5.3779   C.2       1 RES1   0.0000
     6 C4       9.2962   5.6761   6.9335   C.3       1 RES1   0.0000
     7 C5      13.2862   2.9418   5.8598   C.3       1 RES1   0.0000
     8 N1      11.4178   2.8311   4.2848   N.2       1 RES1   0.0000
     9 C6      12.2291   1.9055   3.4769   C.3       1 RES1   0.0000
    10 C7      11.3215   1.0636   2.6456   C.3       1 RES1   0.0000
    11 N2      10.3744   1.9332   1.9356   N.3       1 RES1   0.0000
    12 O2      10.6288   4.8095   2.2779   O.2       1 RES1   0.0000
    13 C8      10.3641   5.2251   1.0768   C.2       1 RES1   0.0000
    14 C9       9.1745   5.0584   0.4513   C.2       1 RES1   0.0000
    15 C10      8.0106   4.4656   0.9882   C.2       1 RES1   0.0000
    16 C11     11.5051   5.9561   0.4105   C.3       1 RES1   0.0000
    17 C12      6.7825   4.5154   0.1090   C.3       1 RES1   0.0000
    18 N3       7.9981   3.9135   2.1679   N.2       1 RES1   0.0000
    19 C13      6.7560   3.3573   2.7455   C.3       1 RES1   0.0000
    20 C14      6.9580   2.0680   3.3802   C.3       1 RES1   0.0000
    21 N4       8.2462   2.0299   4.0963   N.3       1 RES1   0.0000
    22 H1      11.6305   4.5437   7.0191   H         1 RES1   0.0000
    23 H2       9.8736   5.8060   7.7016   H         1 RES1   0.0000
    24 H3       8.4530   5.2888   7.2126   H         1 RES1   0.0000
    25 H4       9.1321   6.5345   6.5097   H         1 RES1   0.0000
    26 H5      13.4828   3.4120   6.6829   H         1 RES1   0.0000
    27 H6      13.9405   3.1733   5.1854   H         1 RES1   0.0000
    28 H7      13.3123   1.9843   6.0207   H         1 RES1   0.0000
    29 H8      12.8178   2.4088   2.8932   H         1 RES1   0.0000
    30 H9      12.7583   1.3399   4.0647   H         1 RES1   0.0000
    31 H10     10.8288   0.4553   3.2192   H         1 RES1   0.0000
    32 H11     11.8401   0.5666   1.9967   H         1 RES1   0.0000
    33 H12     10.8158   2.3490   1.1817   H         1 RES1   0.0000
    34 H13      9.6196   1.4161   1.6198   H         1 RES1   0.0000
    35 H14      9.1116   5.3709  -0.4584   H         1 RES1   0.0000
    36 H15     11.2399   6.2417  -0.4788   H         1 RES1   0.0000
    37 H16     12.2705   5.3616   0.3464   H         1 RES1   0.0000
    38 H17     11.7367   6.7424   0.9372   H         1 RES1   0.0000
    39 H18      6.9994   4.9649  -0.7233   H         1 RES1   0.0000
    40 H19      6.0722   4.9935   0.5705   H         1 RES1   0.0000
    41 H20      6.4832   3.6163  -0.0815   H         1 RES1   0.0000
    42 H21      6.0999   3.2827   2.0375   H         1 RES1   0.0000
    43 H22      6.4236   3.9662   3.4229   H         1 RES1   0.0000
    44 H23      6.2305   1.8787   3.9934   H         1 RES1   0.0000
    45 H24      6.9698   1.3773   2.7241   H         1 RES1   0.0000
    46 H25      8.0728   2.2467   5.0224   H         1 RES1   0.0000
    47 H26      8.6311   1.1486   4.0342   H         1 RES1   0.0000
    48 B1       4.6926  10.8989   3.0735   B         2 RES2  -1.0000
    49 C15      4.2384  11.4188   4.6128   C.ar      2 RES2   0.0000
    50 C16      2.9441  11.8864   4.8380   C.ar      2 RES2   0.0000
    51 C17      2.5739  12.3302   6.1083   C.ar      2 RES2   0.0000
    52 C18      3.4978  12.3040   7.1525   C.ar      2 RES2   0.0000
    53 C19      4.7937  11.8367   6.9264   C.ar      2 RES2   0.0000
    54 C20      5.1626  11.3940   5.6570   C.ar      2 RES2   0.0000
    55 C21      5.6706   9.5200   3.2131   C.ar      2 RES2   0.0000
    56 C22      5.1967   8.2217   3.0317   C.ar      2 RES2   0.0000
    57 C23      6.0498   7.1346   3.2233   C.ar      2 RES2   0.0000
    58 C24      7.3771   7.3461   3.5951   C.ar      2 RES2   0.0000
    59 C25      7.8512   8.6457   3.7764   C.ar      2 RES2   0.0000
    60 C26      6.9981   9.7328   3.5849   C.ar      2 RES2   0.0000
    61 C27      5.6014  12.1043   2.3380   C.ar      2 RES2   0.0000
    62 C28      6.3569  11.7779   1.2113   C.ar      2 RES2   0.0000
    63 C29      7.0558  12.7719   0.5277   C.ar      2 RES2   0.0000
    64 C30      6.9996  14.0937   0.9709   C.ar      2 RES2   0.0000
    65 C31      6.2445  14.4204   2.0966   C.ar      2 RES2   0.0000
    66 C32      5.5455  13.4264   2.7801   C.ar      2 RES2   0.0000
    67 C33      3.2953  10.6211   2.1516   C.ar      2 RES2   0.0000
    68 C34      3.0428  11.3810   1.0096   C.ar      2 RES2   0.0000
    69 C35      1.8936  11.1463   0.2547   C.ar      2 RES2   0.0000
    70 C36      0.9954  10.1513   0.6428   C.ar      2 RES2   0.0000
    71 C37      1.2467   9.3913   1.7848   C.ar      2 RES2   0.0000
    72 C38      2.3971   9.6261   2.5397   C.ar      2 RES2   0.0000
    73 H27      2.2966  11.9075   4.1157   H         2 RES2   0.0000
    74 H28      1.6685  12.6582   6.2652   H         2 RES2   0.0000
    75 H29      3.2364  12.6079   8.0378   H         2 RES2   0.0000
    76 H30      5.4383  11.8230   7.6507   H         2 RES2   0.0000
    77 H31      6.0664  11.0723   5.5012   H         2 RES2   0.0000
    78 H32      4.2735   8.0728   2.7710   H         2 RES2   0.0000
    79 H33      5.7142   6.2258   3.0969   H         2 RES2   0.0000
    80 H34      7.9709   6.5838   3.7286   H         2 RES2   0.0000
    81 H35      8.7742   8.7888   4.0342   H         2 RES2   0.0000
    82 H36      7.3334  10.6358   3.7082   H         2 RES2   0.0000
    83 H37      6.3913  10.8637   0.9067   H         2 RES2   0.0000
    84 H38      7.5751  12.5421  -0.2547   H         2 RES2   0.0000
    85 H39      7.4823  14.7830   0.4992   H         2 RES2   0.0000
    86 H40      6.2067  15.3351   2.4042   H         2 RES2   0.0000
    87 H41      5.0229  13.6567   3.5656   H         2 RES2   0.0000
    88 H42      3.6696  12.0667   0.7437   H         2 RES2   0.0000
    89 H43      1.7147  11.6759  -0.5399   H         2 RES2   0.0000
    90 H44      0.1951   9.9889   0.1222   H         2 RES2   0.0000
    91 H45      0.6210   8.6957   2.0578   H         2 RES2   0.0000
    92 H46      2.5691   9.1027   3.3313   H         2 RES2   0.0000
@<TRIPOS>BOND
     1     1     2    1
     2     2     3    2
     3     3     4    1
     4     4     5    2
     5     5     7    1
     6     6     3    1
     7     7    26    1
     8     8     1    1
     9     9     8    1
    10    10     9    1
    11    11     1    1
    12    12     1    1
    13    13    12    2
    14    14    13    1
    15    15    14    2
    16    16    13    1
    17    17    15    1
    18    18     1    1
    19    19    18    1
    20    20    19    1
    21    21     1    1
    22    22     4    1
    23    23     6    1
    24    24     6    1
    25    25     6    1
    26    27     7    1
    27    28     7    1
    28    29     9    1
    29    30     9    1
    30    31    10    1
    31    32    10    1
    32    33    11    1
    33    34    11    1
    34    35    14    1
    35    36    16    1
    36    37    16    1
    37    38    16    1
    38    39    17    1
    39    40    17    1
    40    41    17    1
    41    42    19    1
    42    43    19    1
    43    44    20    1
    44    45    20    1
    45    46    21    1
    46    47    21    1
    47     5     8    1
    48    10    11    1
    49    15    18    1
    50    20    21    1
    51    48    49    1
    52    49    50   ar
    53    50    51   ar
    54    51    52   ar
    55    52    53   ar
    56    53    54   ar
    57    54    49   ar
    58    55    48    1
    59    56    55   ar
    60    57    56   ar
    61    58    57   ar
    62    59    58   ar
    63    60    55   ar
    64    61    48    1
    65    62    61   ar
    66    63    62   ar
    67    64    63   ar
    68    65    64   ar
    69    66    61   ar
    70    67    48    1
    71    68    67   ar
    72    69    68   ar
    73    70    69   ar
    74    71    70   ar
    75    72    67   ar
    76    73    50    1
    77    74    51    1
    78    75    52    1
    79    76    53    1
    80    77    54    1
    81    78    56    1
    82    79    57    1
    83    80    58    1
    84    81    59    1
    85    82    60    1
    86    83    62    1
    87    84    63    1
    88    85    64    1
    89    86    65    1
    90    87    66    1
    91    88    68    1
    92    89    69    1
    93    90    70    1
    94    91    71    1
    95    92    72    1
    96    59    60   ar
    97    65    66   ar
    98    71    72   ar
@<TRIPOS>SUBSTRUCTURE
     1 RES1        1 GROUP             0 ****  ****    0  
     2 RES2       48 GROUP             0 ****  ****    0  
@<TRIPOS>CRYSIN
   12.7680   13.5590   11.0920  107.8700  107.6700   79.0100     2     1
