@<TRIPOS>MOLECULE
SICCEM
    61    64     2     0     0
SMALL
USER_CHARGES
****
Generated from the CSD

@<TRIPOS>ATOM
     1 Fe1     11.3353   6.1995   1.2582   Fe        1 RES1  -1.0000
     2 B1      10.7615   6.1995  -1.9693   B         1 RES1   0.0000
     3 N1      10.7122   4.7581   2.5186   N.2       1 RES1   0.0000
     4 N2      10.0346   3.8222   2.4253   N.1       1 RES1   1.0000
     5 N3       9.3698   2.8789   2.3311   N.3       1 RES1  -1.0000
     6 N4      13.2186   6.1995   2.0219   N.2       1 RES1   0.0000
     7 N5      13.4309   6.1995   3.1918   N.1       1 RES1   1.0000
     8 N6      13.6904   6.1995   4.2857   N.3       1 RES1  -1.0000
     9 N7       9.4310   6.1995  -1.2321   N.ar      1 RES1   0.0000
    10 N8       9.4109   6.1995   0.1436   N.ar      1 RES1   0.0000
    11 N9      11.5559   7.4597  -1.5677   N.ar      1 RES1   0.0000
    12 N10     11.9250   7.6356  -0.2475   N.ar      1 RES1   0.0000
    13 C1       7.8294   6.1995  -3.1617   C.3       1 RES1   0.0000
    14 C2       8.1636   6.1995  -1.7074   C.ar      1 RES1   0.0000
    15 C3       7.2997   6.1995  -0.6166   C.ar      1 RES1   0.0000
    16 C4       8.1319   6.1995   0.5171   C.ar      1 RES1   0.0000
    17 C5       7.6873   6.1995   1.9482   C.3       1 RES1   0.0000
    18 C6      11.7519   8.6161  -3.7913   C.3       1 RES1   0.0000
    19 C7      11.9985   8.4977  -2.3167   C.ar      1 RES1   0.0000
    20 C8      12.6839   9.3599  -1.4757   C.ar      1 RES1   0.0000
    21 C9      12.6173   8.7884  -0.1987   C.ar      1 RES1   0.0000
    22 C10     13.2023   9.3172   1.0549   C.3       1 RES1   0.0000
    23 H1      10.7093   6.1995  -2.9834   H         1 RES1   0.0000
    24 H2       7.0016   6.1995  -3.5515   H         1 RES1   0.0000
    25 H3       8.2613   5.4261  -3.5157   H         1 RES1   0.0000
    26 H4       6.3553   6.1995  -0.6340   H         1 RES1   0.0000
    27 H5       7.0271   6.1995   1.6727   H         1 RES1   0.0000
    28 H6       7.9300   6.9729   2.4549   H         1 RES1   0.0000
    29 H7      12.3325   8.8807  -4.2627   H         1 RES1   0.0000
    30 H8      11.5765   9.4596  -4.0635   H         1 RES1   0.0000
    31 H9      10.9767   8.6066  -3.9792   H         1 RES1   0.0000
    32 H10     13.7444   9.7743   0.9523   H         1 RES1   0.0000
    33 H11     13.5099   8.5784   1.5758   H         1 RES1   0.0000
    34 H12     12.5112   9.7594   1.5464   H         1 RES1   0.0000
    35 N1B     10.7122   7.6409   2.5186   N.2       1 RES1   0.0000
    36 N10B    11.9250   4.7634  -0.2475   N.ar      1 RES1   0.0000
    37 N9B     11.5559   4.9393  -1.5677   N.ar      1 RES1   0.0000
    38 H3B      8.2613   6.9729  -3.5157   H         1 RES1   0.0000
    39 H6B      7.9300   5.4261   2.4549   H         1 RES1   0.0000
    40 N2B     10.0346   8.5768   2.4253   N.1       1 RES1   1.0000
    41 C9B     12.6173   3.6106  -0.1987   C.ar      1 RES1   0.0000
    42 C7B     11.9985   3.9013  -2.3167   C.ar      1 RES1   0.0000
    43 N3B      9.3698   9.5201   2.3311   N.3       1 RES1  -1.0000
    44 C8B     12.6839   3.0391  -1.4757   C.ar      1 RES1   0.0000
    45 C10B    13.2023   3.0818   1.0549   C.3       1 RES1   0.0000
    46 C6B     11.7519   3.7829  -3.7913   C.3       1 RES1   0.0000
    47 H10B    13.7444   2.6247   0.9523   H         1 RES1   0.0000
    48 H11B    13.5099   3.8206   1.5758   H         1 RES1   0.0000
    49 H12B    12.5112   2.6396   1.5464   H         1 RES1   0.0000
    50 H7B     12.3325   3.5183  -4.2627   H         1 RES1   0.0000
    51 H8B     11.5765   2.9394  -4.0635   H         1 RES1   0.0000
    52 H9B     10.9767   3.7924  -3.9792   H         1 RES1   0.0000
    53 N11     10.5332   6.1995   7.1179   N.4       2 RES2   1.0000
    54 C11     11.0947   7.4348   6.3078   C.3       2 RES2   0.0000
    55 C12      8.6519   6.1995   5.3944   C.3       2 RES2   0.0000
    56 C13      8.9681   6.1995   6.7768   C.3       2 RES2   0.0000
    57 C14     10.5391   8.7430   7.0236   C.3       2 RES2   0.0000
    58 C15     10.7101   6.1995   8.4921   C.3       2 RES2   0.0000
    59 C16     12.2835   6.1995   8.9160   C.3       2 RES2   0.0000
    60 C11B    11.0947   4.9642   6.3078   C.3       2 RES2   0.0000
    61 C14B    10.5391   3.6560   7.0236   C.3       2 RES2   0.0000
@<TRIPOS>BOND
     1     1     3    1
     2     2     9    1
     3     3     4    2
     4     4     5    2
     5     6     1    1
     6     7     6    2
     7     8     7    2
     8     9    10   ar
     9    10     1    1
    10    11     2    1
    11    12     1    1
    12    13    14    1
    13    14     9   ar
    14    15    14   ar
    15    16    10   ar
    16    17    16    1
    17    18    19    1
    18    19    11   ar
    19    20    19   ar
    20    21    12   ar
    21    22    21    1
    22    23     2    1
    23    24    13    1
    24    25    13    1
    25    26    15    1
    26    27    17    1
    27    28    17    1
    28    29    18    1
    29    30    18    1
    30    31    18    1
    31    32    22    1
    32    33    22    1
    33    34    22    1
    34    35     1    1
    35    36     1    1
    36    37     2    1
    37    38    13    1
    38    39    17    1
    39    40    35    2
    40    41    36   ar
    41    42    37   ar
    42    43    40    2
    43    44    41   ar
    44    45    41    1
    45    46    42    1
    46    47    45    1
    47    48    45    1
    48    49    45    1
    49    50    46    1
    50    51    46    1
    51    52    46    1
    52    11    12   ar
    53    15    16   ar
    54    20    21   ar
    55    36    37   ar
    56    42    44   ar
    57    53    54    1
    58    54    57    1
    59    55    56    1
    60    56    53    1
    61    58    53    1
    62    59    58    1
    63    60    53    1
    64    61    60    1
@<TRIPOS>SUBSTRUCTURE
     1 RES1        1 GROUP             0 ****  ****    0  
     2 RES2       53 GROUP             0 ****  ****    0  
@<TRIPOS>CRYSIN
   15.4430   12.3990   10.1830   90.0000  126.3700   90.0000     8     1
