@<TRIPOS>MOLECULE
SICPOM
    74    71     6     0     0
SMALL
USER_CHARGES
****
Generated from the CSD

@<TRIPOS>ATOM
     1 Fe1     -0.0698   7.0211  10.1766   Fe        1 RES1  -3.0000
     2 O1       1.4167   8.3586  10.0006   O.co2     1 RES1   0.0000
     3 O2      -1.1598   8.6465   9.7406   O.co2     1 RES1   0.0000
     4 O3       1.7941  10.4945   9.4812   O.co2     1 RES1   0.0000
     5 O4      -0.9605  10.8287   9.3227   O.co2     1 RES1   0.0000
     6 O5       1.1859   5.4676  10.3342   O.co2     1 RES1   0.0000
     7 O6      -0.0432   6.4396   8.2675   O.co2     1 RES1   0.0000
     8 O7       1.9238   3.7079   9.1755   O.co2     1 RES1   0.0000
     9 O8       0.7326   4.8379   6.9276   O.co2     1 RES1   0.0000
    10 O9      -1.6991   5.9291  10.5712   O.co2     1 RES1   0.0000
    11 O10     -0.1358   7.2407  12.1684   O.co2     1 RES1   0.0000
    12 O11     -2.7829   4.9645  12.2594   O.co2     1 RES1   0.0000
    13 O12     -1.2758   6.5948  13.9738   O.co2     1 RES1   0.0000
    14 C1       1.0511   9.5514   9.6743   C.2       1 RES1   0.0000
    15 C2      -0.4931   9.7261   9.5554   C.2       1 RES1   0.0000
    16 C3       1.3130   4.7606   9.2685   C.2       1 RES1   0.0000
    17 C4       0.6089   5.3653   8.0184   C.2       1 RES1   0.0000
    18 C5      -1.9439   5.7355  11.8123   C.2       1 RES1   0.0000
    19 C6      -1.0645   6.5824  12.7739   C.2       1 RES1   0.0000
    20 O13      1.7854   1.6168  10.9775   O.3       2 RES2   0.0000
    21 H1       1.8911   2.4994  10.6006   H         2 RES2   0.0000
    22 H2       1.2243   1.2206  10.4064   H         2 RES2   0.0000
    23 O14     -3.2018   2.7595  14.1207   O.3       3 RES3   0.0000
    24 N1       2.8787   2.2309  -0.0148   N.4       4 RES4   1.0000
    25 C7       3.1116   3.6045   0.5051   C.3       4 RES4   0.0000
    26 H3       3.9062   3.6056   1.0795   H         4 RES4   0.0000
    27 H4       3.2509   4.2189  -0.2456   H         4 RES4   0.0000
    28 H5       2.3333   3.8943   1.0240   H         4 RES4   0.0000
    29 C8       2.6746   1.2950   1.1297   C.3       4 RES4   0.0000
    30 H6       2.5206   0.3895   0.7881   H         4 RES4   0.0000
    31 H7       3.4713   1.2982   1.6997   H         4 RES4   0.0000
    32 H8       1.8978   1.5829   1.6525   H         4 RES4   0.0000
    33 C9       4.0587   1.7885  -0.8177   C.3       4 RES4   0.0000
    34 H9       3.9012   0.8828  -1.1586   H         4 RES4   0.0000
    35 H10      4.1912   2.4023  -1.5707   H         4 RES4   0.0000
    36 H11      4.8581   1.7890  -0.2511   H         4 RES4   0.0000
    37 C10      1.6710   2.2128  -0.8918   C.3       4 RES4   0.0000
    38 H12      1.5259   1.3041  -1.2293   H         4 RES4   0.0000
    39 H13      0.8881   2.4986  -0.3760   H         4 RES4   0.0000
    40 H14      1.8059   2.8236  -1.6470   H         4 RES4   0.0000
    41 N2      -2.7526   1.7071   9.9990   N.4       5 RES5   1.0000
    42 C11     -2.6240   0.9291  11.2513   C.3       5 RES5   0.0000
    43 H15     -3.4077   0.3512  11.3596   H         5 RES5   0.0000
    44 H16     -1.8149   0.3778  11.2125   H         5 RES5   0.0000
    45 H17     -2.5635   1.5433  12.0131   H         5 RES5   0.0000
    46 C12     -1.6000   2.6049   9.7709   C.3       5 RES5   0.0000
    47 H18     -1.7298   3.0971   8.9342   H         5 RES5   0.0000
    48 H19     -1.5281   3.2387  10.5146   H         5 RES5   0.0000
    49 H20     -0.7785   2.0732   9.7140   H         5 RES5   0.0000
    50 C13     -2.8148   0.7568   8.8343   C.3       5 RES5   0.0000
    51 H21     -3.5711   0.1440   8.9522   H         5 RES5   0.0000
    52 H22     -2.9322   1.2646   8.0046   H         5 RES5   0.0000
    53 H23     -1.9815   0.2425   8.7871   H         5 RES5   0.0000
    54 C14     -4.0081   2.5043  10.0414   C.3       5 RES5   0.0000
    55 H24     -4.7696   1.9063  10.1927   H         5 RES5   0.0000
    56 H25     -3.9565   3.1582  10.7699   H         5 RES5   0.0000
    57 H26     -4.1260   2.9746   9.1895   H         5 RES5   0.0000
    58 N3       1.6013   1.2220   6.0213   N.4       6 RES6   1.0000
    59 C15      1.7953   2.1610   4.8832   C.3       6 RES6   0.0000
    60 H27      1.8681   3.0769   5.2240   H         6 RES6   0.0000
    61 H28      2.6159   1.9248   4.4026   H         6 RES6   0.0000
    62 H29      1.0308   2.0989   4.2735   H         6 RES6   0.0000
    63 C16      1.4873  -0.1801   5.5348   C.3       6 RES6   0.0000
    64 H30      1.3600  -0.7812   6.2979   H         6 RES6   0.0000
    65 H31      0.7203  -0.2543   4.9284   H         6 RES6   0.0000
    66 H32      2.3063  -0.4269   5.0561   H         6 RES6   0.0000
    67 C17      2.7692   1.3345   6.9423   C.3       6 RES6   0.0000
    68 H33      2.6509   0.7204   7.6965   H         6 RES6   0.0000
    69 H34      3.5902   1.1045   6.4589   H         6 RES6   0.0000
    70 H35      2.8333   2.2538   7.2775   H         6 RES6   0.0000
    71 C18      0.3428   1.5903   6.7519   C.3       6 RES6   0.0000
    72 H36      0.2100   0.9748   7.5023   H         6 RES6   0.0000
    73 H37      0.4177   2.5068   7.0902   H         6 RES6   0.0000
    74 H38     -0.4196   1.5287   6.1397   H         6 RES6   0.0000
@<TRIPOS>BOND
     1     1     2    1
     2     2    14    1
     3     3     1    1
     4     4    14    2
     5     5    15    2
     6     6     1    1
     7     7     1    1
     8     8    16    2
     9     9    17    2
    10    10     1    1
    11    11     1    1
    12    12    18    2
    13    13    19    2
    14    14    15    1
    15    15     3    1
    16    16     6    1
    17    17     7    1
    18    18    10    1
    19    19    11    1
    20    16    17    1
    21    18    19    1
    22    20    21    1
    23    22    20    1
    24    24    25    1
    25    25    26    1
    26    27    25    1
    27    28    25    1
    28    29    24    1
    29    30    29    1
    30    31    29    1
    31    32    29    1
    32    33    24    1
    33    34    33    1
    34    35    33    1
    35    36    33    1
    36    37    24    1
    37    38    37    1
    38    39    37    1
    39    40    37    1
    40    41    42    1
    41    42    43    1
    42    44    42    1
    43    45    42    1
    44    46    41    1
    45    47    46    1
    46    48    46    1
    47    49    46    1
    48    50    41    1
    49    51    50    1
    50    52    50    1
    51    53    50    1
    52    54    41    1
    53    55    54    1
    54    56    54    1
    55    57    54    1
    56    58    59    1
    57    59    60    1
    58    61    59    1
    59    62    59    1
    60    63    58    1
    61    64    63    1
    62    65    63    1
    63    66    63    1
    64    67    58    1
    65    68    67    1
    66    69    67    1
    67    70    67    1
    68    71    58    1
    69    72    71    1
    70    73    71    1
    71    74    71    1
@<TRIPOS>SUBSTRUCTURE
     1 RES1        1 GROUP             0 ****  ****    0  
     2 RES2       20 GROUP             0 ****  ****    0  
     3 RES3       23 GROUP             0 ****  ****    0  
     4 RES4       24 GROUP             0 ****  ****    0  
     5 RES5       41 GROUP             0 ****  ****    0  
     6 RES6       58 GROUP             0 ****  ****    0  
@<TRIPOS>CRYSIN
    8.9790   11.4560   14.2290  100.6530   95.6300   97.2050     2     1
