@<TRIPOS>MOLECULE
SICYUB
    84    89     1     0     0
SMALL
NO_CHARGES
****
Generated from the CSD

@<TRIPOS>ATOM
     1 C1       5.7317   8.6251   5.1721   C.2       1 RES1   0.0000
     2 C2       6.1536   8.8530   3.8364   C.2       1 RES1   0.0000
     3 C3       4.8947   9.6330   5.9106   C.3       1 RES1   0.0000
     4 C4       5.7572  10.0822   3.0757   C.3       1 RES1   0.0000
     5 C5       5.5887   7.0064   6.9466   C.ar      1 RES1   0.0000
     6 C6       6.2159   7.3715   8.1476   C.ar      1 RES1   0.0000
     7 C7       5.6747   6.9056   9.3477   C.ar      1 RES1   0.0000
     8 H1       6.0817   7.1518  10.1700   H         1 RES1   0.0000
     9 C8       4.5597   6.0920   9.3621   C.ar      1 RES1   0.0000
    10 H2       4.2042   5.7864  10.1877   H         1 RES1   0.0000
    11 C9       3.9607   5.7247   8.1715   C.ar      1 RES1   0.0000
    12 H3       3.1997   5.1557   8.1896   H         1 RES1   0.0000
    13 C10      4.4523   6.1721   6.9413   C.ar      1 RES1   0.0000
    14 C11      7.4417   8.2708   8.1731   C.3       1 RES1   0.0000
    15 H4       7.6901   8.4757   7.2258   H         1 RES1   0.0000
    16 C12      8.6400   7.5807   8.8320   C.3       1 RES1   0.0000
    17 H5       9.4082   8.1886   8.8296   H         1 RES1   0.0000
    18 H6       8.4131   7.3445   9.7551   H         1 RES1   0.0000
    19 H7       8.8647   6.7685   8.3323   H         1 RES1   0.0000
    20 C13      7.1457   9.5965   8.8767   C.3       1 RES1   0.0000
    21 H8       7.9518  10.1527   8.8767   H         1 RES1   0.0000
    22 H9       6.4262  10.0639   8.4029   H         1 RES1   0.0000
    23 H10      6.8685   9.4218   9.8007   H         1 RES1   0.0000
    24 C14      3.7445   5.7978   5.6494   C.3       1 RES1   0.0000
    25 H11      4.3767   5.9715   4.8937   H         1 RES1   0.0000
    26 C15      3.3510   4.3232   5.5961   C.3       1 RES1   0.0000
    27 H12      2.9003   4.1359   4.7466   H         1 RES1   0.0000
    28 H13      4.1547   3.7676   5.6691   H         1 RES1   0.0000
    29 H14      2.7456   4.1189   6.3386   H         1 RES1   0.0000
    30 C16      2.5096   6.6816   5.4380   C.3       1 RES1   0.0000
    31 H15      2.0649   6.4285   4.6024   H         1 RES1   0.0000
    32 H16      1.8895   6.5607   6.1870   H         1 RES1   0.0000
    33 H17      2.7842   7.6202   5.3896   H         1 RES1   0.0000
    34 C17      7.1177   7.7384   1.9038   C.ar      1 RES1   0.0000
    35 C18      8.4155   7.9354   1.4081   C.ar      1 RES1   0.0000
    36 C19      8.6589   7.6402   0.0628   C.ar      1 RES1   0.0000
    37 H18      9.5294   7.7731  -0.2943   H         1 RES1   0.0000
    38 C20      7.6561   7.1581  -0.7561   C.ar      1 RES1   0.0000
    39 H19      7.8471   6.9309  -1.6582   H         1 RES1   0.0000
    40 C21      6.3738   7.0053  -0.2607   C.ar      1 RES1   0.0000
    41 H20      5.6861   6.6948  -0.8372   H         1 RES1   0.0000
    42 C22      6.0704   7.2986   1.0691   C.ar      1 RES1   0.0000
    43 C23      9.5052   8.5225   2.2900   C.3       1 RES1   0.0000
    44 H21      9.2844   8.2982   3.2399   H         1 RES1   0.0000
    45 C24      9.5109  10.0518   2.1566   C.3       1 RES1   0.0000
    46 H22     10.2149  10.4265   2.7264   H         1 RES1   0.0000
    47 H23      9.6813  10.2981   1.2227   H         1 RES1   0.0000
    48 H24      8.6412  10.4076   2.4351   H         1 RES1   0.0000
    49 C25     10.8983   7.9671   1.9894   C.3       1 RES1   0.0000
    50 H25     11.5518   8.3831   2.5896   H         1 RES1   0.0000
    51 H26     10.9005   6.9970   2.1276   H         1 RES1   0.0000
    52 H27     11.1355   8.1660   1.0594   H         1 RES1   0.0000
    53 C26      4.6402   7.1399   1.5711   C.3       1 RES1   0.0000
    54 H28      4.5857   7.5635   2.4748   H         1 RES1   0.0000
    55 C27      3.6501   7.8685   0.6528   C.3       1 RES1   0.0000
    56 H29      2.7399   7.7524   0.9961   H         1 RES1   0.0000
    57 H30      3.8704   8.8232   0.6268   H         1 RES1   0.0000
    58 H31      3.7084   7.4955  -0.2516   H         1 RES1   0.0000
    59 C28      4.2416   5.6712   1.7190   C.3       1 RES1   0.0000
    60 H32      3.3192   5.6146   2.0422   H         1 RES1   0.0000
    61 H33      4.3119   5.2255   0.8490   H         1 RES1   0.0000
    62 H34      4.8404   5.2331   2.3601   H         1 RES1   0.0000
    63 C29      9.0651   5.8157   5.6273   C.2       1 RES1   0.0000
    64 C30      9.0611   5.3139   4.3161   C.2       1 RES1   0.0000
    65 C31      7.9565   4.5634   3.7765   C.2       1 RES1   0.0000
    66 C32      6.8363   4.2898   4.5768   C.2       1 RES1   0.0000
    67 C33      7.9474   4.2749   2.2988   C.3       1 RES1   0.0000
    68 Fe1      7.3110   6.3934   4.5543   Fe        1 RES1   0.0000
    69 N1       6.1099   7.4436   5.6878   N.2       1 RES1   0.0000
    70 N2       6.8809   7.8566   3.3139   N.2       1 RES1   0.0000
    71 H35      8.6436   5.3313   6.3386   H         1 RES1   0.0000
    72 H36      9.7487   6.4285   5.8869   H         1 RES1   0.0000
    73 H37      9.7177   5.6032   3.6769   H         1 RES1   0.0000
    74 H38      6.0511   3.9092   4.1301   H         1 RES1   0.0000
    75 H39      6.9170   4.1717   5.5279   H         1 RES1   0.0000
    76 H40      8.4051   4.9819   1.7715   H         1 RES1   0.0000
    77 H41      8.4128   3.4579   2.1040   H         1 RES1   0.0000
    78 H42      7.0460   4.1887   1.9628   H         1 RES1   0.0000
    79 H43      4.8032  10.1867   3.1472   H         1 RES1   0.0000
    80 H44      4.5402   9.2500   6.7285   H         1 RES1   0.0000
    81 H45      5.4295  10.4379   6.0752   H         1 RES1   0.0000
    82 H46      4.1804   9.9110   5.4175   H         1 RES1   0.0000
    83 H47      6.0674  10.0224   2.1938   H         1 RES1   0.0000
    84 H48      6.1343  10.8722   3.4209   H         1 RES1   0.0000
@<TRIPOS>BOND
     1     1     2    1
     2     2     4    1
     3     3     1    1
     4     4    79    1
     5     5     6   ar
     6     6     7   ar
     7     7     8    1
     8     9     7   ar
     9    10     9    1
    10    11     9   ar
    11    12    11    1
    12    13     5   ar
    13    14     6    1
    14    15    14    1
    15    16    14    1
    16    17    16    1
    17    18    16    1
    18    19    16    1
    19    20    14    1
    20    21    20    1
    21    22    20    1
    22    23    20    1
    23    24    13    1
    24    25    24    1
    25    26    24    1
    26    27    26    1
    27    28    26    1
    28    29    26    1
    29    30    24    1
    30    31    30    1
    31    32    30    1
    32    33    30    1
    33    34    35   ar
    34    35    36   ar
    35    36    37    1
    36    38    36   ar
    37    39    38    1
    38    40    38   ar
    39    41    40    1
    40    42    34   ar
    41    43    35    1
    42    44    43    1
    43    45    43    1
    44    46    45    1
    45    47    45    1
    46    48    45    1
    47    49    43    1
    48    50    49    1
    49    51    49    1
    50    52    49    1
    51    53    42    1
    52    54    53    1
    53    55    53    1
    54    56    55    1
    55    57    55    1
    56    58    55    1
    57    59    53    1
    58    60    59    1
    59    61    59    1
    60    62    59    1
    61    63    64    2
    62    64    65    1
    63    65    66    2
    64    66    68   un
    65    67    65    1
    66    68    63   un
    67    69     1    2
    68    70     2    2
    69    71    63    1
    70    72    63    1
    71    73    64    1
    72    74    66    1
    73    75    66    1
    74    76    67    1
    75    77    67    1
    76    78    67    1
    77    80     3    1
    78    81     3    1
    79    82     3    1
    80    83     4    1
    81    84     4    1
    82     5    69    1
    83    11    13   ar
    84    34    70    1
    85    40    42   ar
    86    64    68   un
    87    65    68   un
    88    68    69    1
    89    68    70    1
@<TRIPOS>SUBSTRUCTURE
     1 RES1        1 GROUP             0 ****  ****    0  
@<TRIPOS>CRYSIN
   10.8062   18.8852   15.2388   90.0000  105.0870   90.0000   231     1
