@<TRIPOS>MOLECULE
SIDCOB
   103   110     2     0     0
SMALL
NO_CHARGES
****
Generated from the CSD

@<TRIPOS>ATOM
     1 Fe1      0.1053   5.2258  10.5994   Fe        1 RES1   0.0000
     2 S1      -2.0074   5.0421  11.4936   S.3       1 RES1   0.0000
     3 S2       0.9082   5.6589  12.7414   S.3       1 RES1   0.0000
     4 S3       2.2740   5.4669   9.8689   S.3       1 RES1   0.0000
     5 P1       0.7066   3.0594  10.9612   P.3       1 RES1   0.0000
     6 P2      -0.1247   7.4350  10.5464   P.3       1 RES1   0.0000
     7 Si1      5.5351   5.8174  10.2136   Si        1 RES1   0.0000
     8 O1      -1.0458   4.9439   8.0643   O.2       1 RES1   0.0000
     9 N1      -0.5368   5.0235   9.0935   N.2       1 RES1   0.0000
    10 C1      -2.6145   6.6810  11.4052   C.ar      1 RES1   0.0000
    11 C2      -3.9530   6.9237  11.7854   C.ar      1 RES1   0.0000
    12 H1      -4.5019   6.1998  12.0625   H         1 RES1   0.0000
    13 C3      -4.4701   8.1974  11.7586   C.ar      1 RES1   0.0000
    14 H2      -5.3689   8.3448  12.0286   H         1 RES1   0.0000
    15 C4      -3.6950   9.2725  11.3417   C.ar      1 RES1   0.0000
    16 H3      -4.0644  10.1476  11.3237   H         1 RES1   0.0000
    17 C5      -2.3831   9.0653  10.9526   C.ar      1 RES1   0.0000
    18 H4      -1.8524   9.7979  10.6638   H         1 RES1   0.0000
    19 C6      -1.8363   7.7745  10.9840   C.ar      1 RES1   0.0000
    20 C7       1.3896   7.3344  12.7537   C.ar      1 RES1   0.0000
    21 C8       2.1894   7.8309  13.7926   C.ar      1 RES1   0.0000
    22 H5       2.4928   7.2485  14.4789   H         1 RES1   0.0000
    23 C9       2.5390   9.1781  13.8186   C.ar      1 RES1   0.0000
    24 H6       3.0771   9.5112  14.5271   H         1 RES1   0.0000
    25 C10      2.1090  10.0374  12.8216   C.ar      1 RES1   0.0000
    26 H7       2.3530  10.9558  12.8476   H         1 RES1   0.0000
    27 C11      1.3226   9.5581  11.7811   C.ar      1 RES1   0.0000
    28 H8       1.0314  10.1441  11.0921   H         1 RES1   0.0000
    29 C12      0.9636   8.2121  11.7566   C.ar      1 RES1   0.0000
    30 C13      0.1902   8.2427   8.9595   C.ar      1 RES1   0.0000
    31 C14     -0.8285   8.3286   8.0078   C.ar      1 RES1   0.0000
    32 H9      -1.7010   8.0170   8.2185   H         1 RES1   0.0000
    33 C15     -0.5680   8.8679   6.7493   C.ar      1 RES1   0.0000
    34 H10     -1.2622   8.9251   6.1034   H         1 RES1   0.0000
    35 C16      0.6973   9.3178   6.4437   C.ar      1 RES1   0.0000
    36 H11      0.8686   9.7008   5.5911   H         1 RES1   0.0000
    37 C17      1.7189   9.2185   7.3678   C.ar      1 RES1   0.0000
    38 H12      2.5909   9.5224   7.1456   H         1 RES1   0.0000
    39 C18      1.4732   8.6718   8.6230   C.ar      1 RES1   0.0000
    40 H13      2.1804   8.5921   9.2522   H         1 RES1   0.0000
    41 C19      3.1736   4.1851  10.6679   C.ar      1 RES1   0.0000
    42 C20      4.5853   4.2758  10.7498   C.ar      1 RES1   0.0000
    43 C21      5.2487   3.2032  11.3488   C.ar      1 RES1   0.0000
    44 H14      6.1972   3.2256  11.3979   H         1 RES1   0.0000
    45 C22      4.5820   2.1048  11.8764   C.ar      1 RES1   0.0000
    46 H15      5.0720   1.3981  12.2790   H         1 RES1   0.0000
    47 C23      3.1964   2.0448  11.8112   C.ar      1 RES1   0.0000
    48 H16      2.7303   1.3050  12.1820   H         1 RES1   0.0000
    49 C24      2.4971   3.0806  11.1967   C.ar      1 RES1   0.0000
    50 C25      7.3641   5.4416  10.3658   C.3       1 RES1   0.0000
    51 H17      7.5922   4.6869   9.7846   H         1 RES1   0.0000
    52 H18      7.5745   5.2143  11.2955   H         1 RES1   0.0000
    53 H19      7.8825   6.2293  10.0972   H         1 RES1   0.0000
    54 C26      5.0814   7.2130  11.3751   C.3       1 RES1   0.0000
    55 H20      5.5944   8.0136  11.1385   H         1 RES1   0.0000
    56 H21      5.2892   6.9513  12.2959   H         1 RES1   0.0000
    57 H22      4.1234   7.4035  11.2971   H         1 RES1   0.0000
    58 C27      5.2261   6.3059   8.4376   C.3       1 RES1   0.0000
    59 H23      5.8914   6.9706   8.1616   H         1 RES1   0.0000
    60 H24      4.3279   6.6898   8.3563   H         1 RES1   0.0000
    61 H25      5.2967   5.5149   7.8642   H         1 RES1   0.0000
    62 C28      0.4107   2.0558   9.4729   C.ar      1 RES1   0.0000
    63 C29      1.4551   1.4894   8.7417   C.ar      1 RES1   0.0000
    64 H26      2.3554   1.6216   9.0147   H         1 RES1   0.0000
    65 C30      1.1719   0.7294   7.6108   C.ar      1 RES1   0.0000
    66 H27      1.8827   0.3540   7.1048   H         1 RES1   0.0000
    67 C31     -0.1285   0.5198   7.2196   C.ar      1 RES1   0.0000
    68 H28     -0.3131  -0.0094   6.4520   H         1 RES1   0.0000
    69 C32     -1.1632   1.0751   7.9379   C.ar      1 RES1   0.0000
    70 H29     -2.0605   0.9229   7.6651   H         1 RES1   0.0000
    71 C33     -0.9052   1.8547   9.0575   C.ar      1 RES1   0.0000
    72 H30     -1.6227   2.2498   9.5388   H         1 RES1   0.0000
    73 C34      0.0057   2.0313  12.2905   C.ar      1 RES1   0.0000
    74 C35     -0.2447   0.6767  12.0992   C.ar      1 RES1   0.0000
    75 H31     -0.0857   0.2875  11.2473   H         1 RES1   0.0000
    76 C36     -0.7219  -0.1128  13.1310   C.ar      1 RES1   0.0000
    77 H32     -0.8925  -1.0349  12.9816   H         1 RES1   0.0000
    78 C37     -0.9496   0.4352  14.3720   C.ar      1 RES1   0.0000
    79 H33     -1.2591  -0.1108  15.0854   H         1 RES1   0.0000
    80 C38     -0.7249   1.7885  14.5757   C.ar      1 RES1   0.0000
    81 H34     -0.8874   2.1702  15.4302   H         1 RES1   0.0000
    82 C39     -0.2659   2.5841  13.5429   C.ar      1 RES1   0.0000
    83 H35     -0.1346   3.5142  13.6867   H         1 RES1   0.0000
    84 C40      2.3791   3.9093  15.8298   C.3       2 RES2   0.0000
    85 H36      2.1972   4.8213  16.1399   H         2 RES2   0.0000
    86 H37      1.8670   3.2723  16.3698   H         2 RES2   0.0000
    87 H38      2.1145   3.8266  14.8890   H         2 RES2   0.0000
    88 C41      3.8057   3.6249  15.9613   C.3       2 RES2   0.0000
    89 H39      3.9701   2.6905  15.6791   H         2 RES2   0.0000
    90 H40      4.0566   3.6979  16.9161   H         2 RES2   0.0000
    91 C42      4.6939   4.5296  15.1624   C.3       2 RES2   0.0000
    92 H41      4.4913   4.4074  14.2012   H         2 RES2   0.0000
    93 H42      4.4853   5.4686  15.3963   H         2 RES2   0.0000
    94 C43      6.1491   4.2942  15.3794   C.3       2 RES2   0.0000
    95 H43      6.3437   4.4196  16.3415   H         2 RES2   0.0000
    96 H44      6.3464   3.3492  15.1586   H         2 RES2   0.0000
    97 C44      7.0818   5.1560  14.6002   C.3       2 RES2   0.0000
    98 H45      6.8764   6.1031  14.8058   H         2 RES2   0.0000
    99 H46      6.9054   5.0164  13.6365   H         2 RES2   0.0000
   100 C45      8.5827   4.9121  14.8649   C.3       2 RES2   0.0000
   101 H47      8.7820   5.0948  15.8064   H         2 RES2   0.0000
   102 H48      9.1144   5.5077  14.2964   H         2 RES2   0.0000
   103 H49      8.8027   3.9802  14.6581   H         2 RES2   0.0000
@<TRIPOS>BOND
     1     1     2    1
     2     2    10    1
     3     3     1    1
     4     4     1    1
     5     5     1    1
     6     6     1    1
     7     7    42    1
     8     8     9    2
     9     9     1    1
    10    10    11   ar
    11    11    12    1
    12    13    11   ar
    13    14    13    1
    14    15    13   ar
    15    16    15    1
    16    17    15   ar
    17    18    17    1
    18    19     6    1
    19    20     3    1
    20    21    20   ar
    21    22    21    1
    22    23    21   ar
    23    24    23    1
    24    25    23   ar
    25    26    25    1
    26    27    25   ar
    27    28    27    1
    28    29     6    1
    29    30     6    1
    30    31    30   ar
    31    32    31    1
    32    33    31   ar
    33    34    33    1
    34    35    33   ar
    35    36    35    1
    36    37    35   ar
    37    38    37    1
    38    39    30   ar
    39    40    39    1
    40    41     4    1
    41    42    41   ar
    42    43    42   ar
    43    44    43    1
    44    45    43   ar
    45    46    45    1
    46    47    45   ar
    47    48    47    1
    48    49     5    1
    49    50     7    1
    50    51    50    1
    51    52    50    1
    52    53    50    1
    53    54     7    1
    54    55    54    1
    55    56    54    1
    56    57    54    1
    57    58     7    1
    58    59    58    1
    59    60    58    1
    60    61    58    1
    61    62     5    1
    62    63    62   ar
    63    64    63    1
    64    65    63   ar
    65    66    65    1
    66    67    65   ar
    67    68    67    1
    68    69    67   ar
    69    70    69    1
    70    71    62   ar
    71    72    71    1
    72    73     5    1
    73    74    73   ar
    74    75    74    1
    75    76    74   ar
    76    77    76    1
    77    78    76   ar
    78    79    78    1
    79    80    78   ar
    80    81    80    1
    81    82    73   ar
    82    83    82    1
    83    10    19   ar
    84    17    19   ar
    85    20    29   ar
    86    27    29   ar
    87    37    39   ar
    88    41    49   ar
    89    47    49   ar
    90    69    71   ar
    91    80    82   ar
    92    84    85    1
    93    86    84    1
    94    87    84    1
    95    88    84    1
    96    89    88    1
    97    90    88    1
    98    91    88    1
    99    92    91    1
   100    93    91    1
   101    94    91    1
   102    95    94    1
   103    96    94    1
   104    97    94    1
   105    98    97    1
   106    99    97    1
   107   100    97    1
   108   101   100    1
   109   102   100    1
   110   103   100    1
@<TRIPOS>SUBSTRUCTURE
     1 RES1        1 GROUP             0 ****  ****    0  
     2 RES2       84 GROUP             0 ****  ****    0  
@<TRIPOS>CRYSIN
   21.3185   12.2587   17.3510   90.0000  108.6699   90.0000    14     1
