@<TRIPOS>MOLECULE
SIDMEA
    83    86     5     0     0
SMALL
USER_CHARGES
****
Generated from the CSD

@<TRIPOS>ATOM
     1 Fe1      2.5919   6.2895   4.8227   Fe        1 RES1   2.0000
     2 N1       0.0824   2.8089   5.6856   N.2       1 RES1   0.0000
     3 N2       0.3714   3.2967   6.8808   N.pl3     1 RES1   0.0000
     4 N3       1.1251   4.3623   6.8953   N.2       1 RES1   0.0000
     5 N4       1.3723   4.6074   5.6021   N.2       1 RES1   0.0000
     6 N5      -0.0883   2.6700   8.0391   N.3       1 RES1   0.0000
     7 N6      -1.1988   7.7309   3.2581   N.2       1 RES1   0.0000
     8 N7      -0.3840   7.5496   2.2271   N.pl3     1 RES1   0.0000
     9 N8       0.8195   7.1649   2.5140   N.2       1 RES1   0.0000
    10 N9       0.8328   7.0821   3.8475   N.2       1 RES1   0.0000
    11 N10     -0.7950   7.8181   0.9276   N.3       1 RES1   0.0000
    12 N11      3.1048   4.9503   3.1366   N.2       1 RES1   0.0000
    13 C1       3.0782   5.0125   1.7915   C.2       1 RES1   0.0000
    14 N12      3.4164   3.8611   1.2327   N.2       1 RES1   0.0000
    15 N13      3.6393   3.1040   2.3013   N.pl3     1 RES1   0.0000
    16 N14      4.0666   1.7820   2.1811   N.3       1 RES1   0.0000
    17 N15      4.7759   9.7701   3.3398   N.2       1 RES1   0.0000
    18 N16      4.4925   9.0100   2.2988   N.pl3     1 RES1   0.0000
    19 N17      3.9011   7.8802   2.5579   N.2       1 RES1   0.0000
    20 N18      3.7742   7.8779   3.8946   N.2       1 RES1   0.0000
    21 N19      4.7024   9.4542   0.9986   N.3       1 RES1   0.0000
    22 N20      1.8874   8.3172   8.6511   N.2       1 RES1   0.0000
    23 N21      1.7341   9.2620   7.7216   N.pl3     1 RES1   0.0000
    24 N22      1.8674   8.8368   6.4855   N.2       1 RES1   0.0000
    25 N23      2.1272   7.5426   6.5899   N.2       1 RES1   0.0000
    26 N24      1.4446  10.5704   8.0805   N.3       1 RES1   0.0000
    27 N25      6.5344   5.0842   6.1342   N.2       1 RES1   0.0000
    28 N26      5.8313   5.2554   7.2479   N.pl3     1 RES1   0.0000
    29 N27      4.5792   5.5601   7.0834   N.2       1 RES1   0.0000
    30 N28      4.4157   5.6020   5.7603   N.2       1 RES1   0.0000
    31 N29      6.3996   5.0158   8.4908   N.3       1 RES1   0.0000
    32 C2       0.7241   3.6685   4.9105   C.2       1 RES1   0.0000
    33 C3      -0.3901   7.4228   4.2612   C.2       1 RES1   0.0000
    34 N30      3.4675   3.7068   3.4509   N.2       1 RES1   0.0000
    35 C4       4.3195   9.0155   4.3322   C.2       1 RES1   0.0000
    36 C5       2.1255   7.2555   7.9097   C.2       1 RES1   0.0000
    37 C6       5.6104   5.3205   5.2199   C.2       1 RES1   0.0000
    38 H1       0.6900   3.6183   3.9607   H         1 RES1   0.0000
    39 H2       5.7843   5.2513   4.3240   H         1 RES1   0.0000
    40 H3       2.3019   6.4071   8.2563   H         1 RES1   0.0000
    41 H4       2.8415   5.7826   1.3095   H         1 RES1   0.0000
    42 H5       4.3648   9.2730   5.2399   H         1 RES1   0.0000
    43 H6       5.7672   5.0992   9.0549   H         1 RES1   0.0000
    44 H7      -0.6714   7.4855   5.1623   H         1 RES1   0.0000
    45 H8       2.0110  11.0842   7.6678   H         1 RES1   0.0000
    46 H9       3.3949   1.3113   2.2424   H         1 RES1   0.0000
    47 H10      6.9920   5.6404   8.6026   H         1 RES1   0.0000
    48 H11      0.2502   3.0965   8.6972   H         1 RES1   0.0000
    49 H12      4.6309   8.7657   0.5090   H         1 RES1   0.0000
    50 H13      5.5381   9.7842   0.9783   H         1 RES1   0.0000
    51 H14      0.6704  10.7360   7.8268   H         1 RES1   0.0000
    52 H15     -1.4454   7.2118   0.7513   H         1 RES1   0.0000
    53 H16     -0.9285   2.8301   8.0330   H         1 RES1   0.0000
    54 H17     -0.1407   7.6448   0.4693   H         1 RES1   0.0000
    55 H18      4.6134   1.6201   2.9596   H         1 RES1   0.0000
    56 N31      8.4527  10.7761   3.2798   N.2       2 RES2   0.0000
    57 N32      8.5036  11.0533   1.9926   N.pl3     2 RES2   0.0000
    58 N33      9.6996  11.3547   1.5481   N.2       2 RES2   0.0000
    59 N34     10.5110  11.2603   2.5903   N.2       2 RES2   0.0000
    60 N35      7.3694  11.0392   1.1823   N.3       2 RES2   0.0000
    61 C7       9.7268  10.9209   3.6169   C.2       2 RES2   0.0000
    62 H19      7.0710  11.8292   1.1600   H         2 RES2   0.0000
    63 H20     10.0449  10.8169   4.4887   H         2 RES2   0.0000
    64 H21      7.6692  10.8045   0.3728   H         2 RES2   0.0000
    65 N36      5.1313   2.2754   7.0869   N.2       3 RES3   0.0000
    66 N37      4.8127   1.6050   5.9963   N.pl3     3 RES3   0.0000
    67 N38      3.5911   1.1351   5.9615   N.2       3 RES3   0.0000
    68 N39      3.0526   1.5044   7.1245   N.2       3 RES3   0.0000
    69 N40      5.6578   1.4407   4.8989   N.3       3 RES3   0.0000
    70 C8       3.9904   2.1953   7.7632   C.2       3 RES3   0.0000
    71 H22      6.2610   1.9768   5.0128   H         3 RES3   0.0000
    72 H23      5.9169   0.6286   4.9144   H         3 RES3   0.0000
    73 H24      3.8751   2.6102   8.5837   H         3 RES3   0.0000
    74 Cl1      3.8815   5.3077  11.2926   Cl        4 RES4   0.0000
    75 O1       3.4224   4.5509  12.4019   O.2       4 RES4   0.0000
    76 O2       5.2916   5.4993  11.3492   O.3       4 RES4  -1.0000
    77 O3       3.5611   4.6428  10.0751   O.2       4 RES4   0.0000
    78 O4       3.2001   6.5570  11.3076   O.2       4 RES4   0.0000
    79 Cl2      7.1699   3.9377   1.6365   Cl        5 RES5   0.0000
    80 O5       6.3970   5.1379   1.7699   O.2       5 RES5   0.0000
    81 O6       6.8207   3.2634   0.4150   O.3       5 RES5  -1.0000
    82 O7       8.5675   4.2541   1.6174   O.2       5 RES5   0.0000
    83 O8       6.8912   3.0770   2.7498   O.2       5 RES5   0.0000
@<TRIPOS>BOND
     1     1     5    1
     2     2     3    1
     3     3     4    1
     4     4     5    2
     5     5    32    1
     6     6     3    1
     7     7     8    1
     8     8     9    1
     9     9    10    2
    10    10     1    1
    11    11     8    1
    12    12     1    1
    13    13    12    1
    14    14    13    2
    15    15    14    1
    16    16    15    1
    17    17    18    1
    18    18    19    1
    19    19    20    2
    20    20     1    1
    21    21    18    1
    22    22    23    1
    23    23    24    1
    24    24    25    2
    25    25     1    1
    26    26    23    1
    27    27    28    1
    28    28    29    1
    29    29    30    2
    30    30     1    1
    31    31    28    1
    32    32     2    2
    33    33     7    2
    34    34    12    2
    35    35    17    2
    36    36    22    2
    37    37    27    2
    38    38    32    1
    39    39    37    1
    40    40    36    1
    41    41    13    1
    42    42    35    1
    43    43    31    1
    44    44    33    1
    45    45    26    1
    46    46    16    1
    47    47    31    1
    48    48     6    1
    49    49    21    1
    50    50    21    1
    51    51    26    1
    52    52    11    1
    53    53     6    1
    54    54    11    1
    55    55    16    1
    56    10    33    1
    57    15    34    1
    58    20    35    1
    59    25    36    1
    60    30    37    1
    61    56    57    1
    62    57    58    1
    63    58    59    2
    64    59    61    1
    65    60    57    1
    66    61    56    2
    67    62    60    1
    68    63    61    1
    69    64    60    1
    70    65    66    1
    71    66    67    1
    72    67    68    2
    73    68    70    1
    74    69    66    1
    75    70    65    2
    76    71    69    1
    77    72    69    1
    78    73    70    1
    79    74    75    2
    80    76    74    1
    81    77    74    2
    82    78    74    2
    83    79    80    2
    84    81    79    1
    85    82    79    2
    86    83    79    2
@<TRIPOS>SUBSTRUCTURE
     1 RES1        1 GROUP             0 ****  ****    0  
     2 RES2       56 GROUP             0 ****  ****    0  
     3 RES3       65 GROUP             0 ****  ****    0  
     4 RES4       74 GROUP             0 ****  ****    0  
     5 RES5       79 GROUP             0 ****  ****    0  
@<TRIPOS>CRYSIN
    8.5150   10.8300   19.3050   79.0720   86.0980   86.4760     2     1
