@<TRIPOS>MOLECULE
SIGFOD
    94    99     1     0     0
SMALL
NO_CHARGES
****
Generated from the CSD

@<TRIPOS>ATOM
     1 Fe1      7.7493   0.6873   5.9379   Fe        1 RES1   0.0000
     2 P1       7.9477  -1.1053   7.2099   P.3       1 RES1   0.0000
     3 P2       7.2417  -0.0575   3.9167   P.3       1 RES1   0.0000
     4 P3       7.9210   2.3610   7.3167   P.3       1 RES1   0.0000
     5 C1       9.6235  -1.8830   7.2743   C.ar      1 RES1   0.0000
     6 C2      10.3770  -2.0211   8.4229   C.ar      1 RES1   0.0000
     7 C3      11.6546  -2.5493   8.3721   C.ar      1 RES1   0.0000
     8 C4      12.1915  -2.9443   7.1693   C.ar      1 RES1   0.0000
     9 C5      11.4600  -2.8281   6.0139   C.ar      1 RES1   0.0000
    10 C6      10.1870  -2.2962   6.0766   C.ar      1 RES1   0.0000
    11 C7       6.8661  -2.5273   6.7475   C.ar      1 RES1   0.0000
    12 C8       7.3130  -3.8540   6.8101   C.ar      1 RES1   0.0000
    13 C9       6.5011  -4.9018   6.4120   C.ar      1 RES1   0.0000
    14 C10      5.2496  -4.6414   5.9513   C.ar      1 RES1   0.0000
    15 C11      4.7614  -3.3502   5.9038   C.ar      1 RES1   0.0000
    16 C12      5.5779  -2.3036   6.3104   C.ar      1 RES1   0.0000
    17 C13      7.5361  -1.0038   9.0107   C.3       1 RES1   0.0000
    18 C14      6.1180  -0.5588   9.2970   C.3       1 RES1   0.0000
    19 C15      8.0856  -1.5785   3.2916   C.ar      1 RES1   0.0000
    20 C16      9.3553  -1.4856   2.7342   C.ar      1 RES1   0.0000
    21 C17     10.0806  -2.6288   2.4293   C.ar      1 RES1   0.0000
    22 C18      9.5352  -3.8747   2.6732   C.ar      1 RES1   0.0000
    23 C19      8.2821  -3.9909   3.2204   C.ar      1 RES1   0.0000
    24 C20      7.5559  -2.8477   3.5304   C.ar      1 RES1   0.0000
    25 C21      5.4892  -0.3045   3.4017   C.ar      1 RES1   0.0000
    26 C22      5.1156  -1.1127   2.3378   C.ar      1 RES1   0.0000
    27 C23      3.7971  -0.1192   1.9194   C.ar      1 RES1   0.0000
    28 C24      2.8321  -0.4548   2.5614   C.ar      1 RES1   0.0000
    29 C25      3.1846   0.3668   3.6304   C.ar      1 RES1   0.0000
    30 C26      4.5049   0.4267   4.0387   C.ar      1 RES1   0.0000
    31 C27      7.7649   1.1824   2.6478   C.3       1 RES1   0.0000
    32 C28      7.5770   0.8632   1.1706   C.3       1 RES1   0.0000
    33 C29      8.8918   2.1251   8.8803   C.ar      1 RES1   0.0000
    34 C30      8.3897   2.3354  10.1475   C.ar      1 RES1   0.0000
    35 C31      9.1386   2.0456  11.2808   C.ar      1 RES1   0.0000
    36 C32     10.4208   1.5614  11.1503   C.ar      1 RES1   0.0000
    37 C33     10.9440   1.3670   9.8849   C.ar      1 RES1   0.0000
    38 C34     10.1822   1.6445   8.7685   C.ar      1 RES1   0.0000
    39 C35      8.7962   3.8454   6.6373   C.ar      1 RES1   0.0000
    40 C36      9.2654   4.8394   7.4844   C.ar      1 RES1   0.0000
    41 C37      9.8890   5.9704   6.9846   C.ar      1 RES1   0.0000
    42 C38     10.0524   6.1196   5.6107   C.ar      1 RES1   0.0000
    43 C39      9.5731   5.1451   4.7552   C.ar      1 RES1   0.0000
    44 C40      8.9514   4.0264   5.2652   C.ar      1 RES1   0.0000
    45 C41      6.3907   3.1766   7.9316   C.3       1 RES1   0.0000
    46 C42      5.4270   3.6143   6.8423   C.3       1 RES1   0.0000
    47 N1       9.4597   0.7948   5.4346   N.2       1 RES1   0.0000
    48 N2      10.5466   0.8510   5.1127   N.3       1 RES1   0.0000
    49 H1       7.1086   1.7607   5.2685   H         1 RES1   0.0000
    50 H2       6.4010   0.5258   6.4036   H         1 RES1   0.0000
    51 H3      10.0056  -1.7485   9.2327   H         1 RES1   0.0000
    52 H4      12.1165  -2.6777   9.1988   H         1 RES1   0.0000
    53 H5      12.9991  -3.2646   7.1320   H         1 RES1   0.0000
    54 H6      11.8167  -3.0934   5.2177   H         1 RES1   0.0000
    55 H7       9.7516  -2.2253   5.4379   H         1 RES1   0.0000
    56 H8       8.2452  -4.0471   7.0643   H         1 RES1   0.0000
    57 H9       6.8690  -5.7467   6.4544   H         1 RES1   0.0000
    58 H10      4.6762  -5.2943   5.6921   H         1 RES1   0.0000
    59 H11      3.8962  -3.1546   5.6074   H         1 RES1   0.0000
    60 H12      5.2264  -1.4672   6.2342   H         1 RES1   0.0000
    61 H13      7.7570  -1.8463   9.4190   H         1 RES1   0.0000
    62 H14      8.1792  -0.4279   9.3512   H         1 RES1   0.0000
    63 H15      5.9759  -0.4035  10.2999   H         1 RES1   0.0000
    64 H16      5.8853   0.2079   8.8091   H         1 RES1   0.0000
    65 H17      5.4630  -1.2105   8.9785   H         1 RES1   0.0000
    66 H18      9.7629  -0.6480   2.6427   H         1 RES1   0.0000
    67 H19     10.9288  -2.5310   2.0498   H         1 RES1   0.0000
    68 H20      9.9649  -4.5851   2.4395   H         1 RES1   0.0000
    69 H21      7.9267  -4.8174   3.4559   H         1 RES1   0.0000
    70 H22      6.7242  -2.9467   3.8794   H         1 RES1   0.0000
    71 H23      5.7895  -1.5651   1.9143   H         1 RES1   0.0000
    72 H25      1.9439  -0.5502   2.3039   H         1 RES1   0.0000
    73 H26      2.4840   0.8070   4.0827   H         1 RES1   0.0000
    74 H27      4.7412   0.9415   4.7603   H         1 RES1   0.0000
    75 H28      7.3398   1.9685   2.8460   H         1 RES1   0.0000
    76 H29      8.6430   1.3450   2.8460   H         1 RES1   0.0000
    77 H30      6.6162   0.7581   1.0673   H         1 RES1   0.0000
    78 H31      7.8555   1.6017   0.5760   H         1 RES1   0.0000
    79 H32      8.0572   0.1712   0.9148   H         1 RES1   0.0000
    80 H33      7.5636   2.6777  10.2830   H         1 RES1   0.0000
    81 H34      8.8196   2.1642  12.0617   H         1 RES1   0.0000
    82 H35     10.9214   1.3450  11.9093   H         1 RES1   0.0000
    83 H36     11.7673   1.0515   9.8086   H         1 RES1   0.0000
    84 H37     10.5206   1.4917   7.9452   H         1 RES1   0.0000
    85 H38      9.0977   4.7563   8.4364   H         1 RES1   0.0000
    86 H39     10.1721   6.7126   7.5386   H         1 RES1   0.0000
    87 H40     10.5776   6.8349   5.3363   H         1 RES1   0.0000
    88 H41      9.7344   5.2454   3.8455   H         1 RES1   0.0000
    89 H42      8.6508   3.4113   4.7603   H         1 RES1   0.0000
    90 H43      5.9497   2.5799   8.5211   H         1 RES1   0.0000
    91 H44      6.6931   3.9738   8.5042   H         1 RES1   0.0000
    92 H45      4.6566   4.0227   7.2845   H         1 RES1   0.0000
    93 H46      5.8873   4.2183   6.1664   H         1 RES1   0.0000
    94 H47      5.1070   2.8733   6.4205   H         1 RES1   0.0000
@<TRIPOS>BOND
     1     1     2    1
     2     2     5    1
     3     3     1    1
     4     4     1    1
     5     5     6   ar
     6     6     7   ar
     7     7     8   ar
     8     8     9   ar
     9     9    10   ar
    10    10     5   ar
    11    11     2    1
    12    12    11   ar
    13    13    12   ar
    14    14    13   ar
    15    15    14   ar
    16    16    11   ar
    17    17     2    1
    18    18    17    1
    19    19     3    1
    20    20    19   ar
    21    21    20   ar
    22    22    21   ar
    23    23    22   ar
    24    24    19   ar
    25    25     3    1
    26    26    25   ar
    27    27    26   ar
    28    28    27   ar
    29    29    28   ar
    30    30    25   ar
    31    31     3    1
    32    32    31    1
    33    33     4    1
    34    34    33   ar
    35    35    34   ar
    36    36    35   ar
    37    37    36   ar
    38    38    33   ar
    39    39     4    1
    40    40    39   ar
    41    41    40   ar
    42    42    41   ar
    43    43    42   ar
    44    44    39   ar
    45    45     4    1
    46    46    45    1
    47    47     1    1
    48    48    47    2
    49    49     1    1
    50    50     1    1
    51    51     6    1
    52    52     7    1
    53    53     8    1
    54    54     9    1
    55    55    10    1
    56    56    12    1
    57    57    13    1
    58    58    14    1
    59    59    15    1
    60    60    16    1
    61    61    17    1
    62    62    17    1
    63    63    18    1
    64    64    18    1
    65    65    18    1
    66    66    20    1
    67    67    21    1
    68    68    22    1
    69    69    23    1
    70    70    24    1
    71    71    26    1
    72    72    28    1
    73    73    29    1
    74    74    30    1
    75    75    31    1
    76    76    31    1
    77    77    32    1
    78    78    32    1
    79    79    32    1
    80    80    34    1
    81    81    35    1
    82    82    36    1
    83    83    37    1
    84    84    38    1
    85    85    40    1
    86    86    41    1
    87    87    42    1
    88    88    43    1
    89    89    44    1
    90    90    45    1
    91    91    45    1
    92    92    46    1
    93    93    46    1
    94    94    46    1
    95    15    16   ar
    96    23    24   ar
    97    29    30   ar
    98    37    38   ar
    99    43    44   ar
@<TRIPOS>SUBSTRUCTURE
     1 RES1        1 GROUP             0 ****  ****    0  
@<TRIPOS>CRYSIN
   18.3550   12.2270   19.2730   90.0000  118.4800   90.0000   231     1
