@<TRIPOS>MOLECULE
SIGRUX
   112   117     1     0     0
SMALL
NO_CHARGES
****
Generated from the CSD

@<TRIPOS>ATOM
     1 Fe1     24.3764   2.7895   0.1289   Fe        1 RES1   0.0000
     2 P1      25.8668   3.8938   1.4192   P.3       1 RES1   0.0000
     3 P2      22.3010   3.0068  -0.6306   P.3       1 RES1   0.0000
     4 P3      24.4902   0.5835   0.6108   P.3       1 RES1   0.0000
     5 C1      24.4162   0.3983   2.4281   C.ar      1 RES1   0.0000
     6 C2      23.6783   1.3802   3.1351   C.ar      1 RES1   0.0000
     7 N1      25.7761   2.8485  -2.5040   N.1       1 RES1   0.0000
     8 C3      23.1280   4.6320   4.3972   C.ar      1 RES1   0.0000
     9 H1      22.3263   4.2410   4.7234   H         1 RES1   0.0000
    10 C4      21.5553   2.8410   2.1255   C.ar      1 RES1   0.0000
    11 B1      23.1328   2.7717   2.4949   B         1 RES1   0.0000
    12 C5      23.7365   4.0752   3.2598   C.ar      1 RES1   0.0000
    13 C6      23.1460  -0.6861   0.1729   C.3       1 RES1   0.0000
    14 H2      22.9250  -0.5684  -0.7955   H         1 RES1   0.0000
    15 C7      19.7204   3.0539   0.5238   C.ar      1 RES1   0.0000
    16 H3      19.4284   3.1606  -0.3736   H         1 RES1   0.0000
    17 C8      24.9713  -0.6962   3.1042   C.ar      1 RES1   0.0000
    18 H4      25.4913  -1.3277   2.6210   H         1 RES1   0.0000
    19 C9      20.5713   2.7898   3.1272   C.ar      1 RES1   0.0000
    20 H5      20.8507   2.7012   4.0307   H         1 RES1   0.0000
    21 C10     23.4796   1.1516   4.5060   C.ar      1 RES1   0.0000
    22 H6      22.9700   1.7801   5.0039   H         1 RES1   0.0000
    23 C11     18.7813   2.9987   1.5435   C.ar      1 RES1   0.0000
    24 H7      17.8543   3.0539   1.3444   H         1 RES1   0.0000
    25 C12     21.0972   2.9556   0.7905   C.ar      1 RES1   0.0000
    26 C13     21.8786   4.6716  -1.3471   C.3       1 RES1   0.0000
    27 H8      20.9406   4.6219  -1.6877   H         1 RES1   0.0000
    28 C14     21.9233   5.7753  -0.2845   C.3       1 RES1   0.0000
    29 H9      21.7417   6.6410  -0.7048   H         1 RES1   0.0000
    30 H10     22.8098   5.7938   0.1306   H         1 RES1   0.0000
    31 H11     21.2470   5.5969   0.4002   H         1 RES1   0.0000
    32 C15     19.2111   2.8617   2.8600   C.ar      1 RES1   0.0000
    33 H12     18.5795   2.8184   3.5688   H         1 RES1   0.0000
    34 C16     21.8656  -0.4290   0.9685   C.3       1 RES1   0.0000
    35 H13     22.0172  -0.6480   1.9114   H         1 RES1   0.0000
    36 H14     21.1430  -0.9902   0.6154   H         1 RES1   0.0000
    37 H15     21.6152   0.5145   0.8886   H         1 RES1   0.0000
    38 C17     24.8125   6.3327   4.5914   C.ar      1 RES1   0.0000
    39 H16     25.1737   7.0934   5.0305   H         1 RES1   0.0000
    40 C18     25.9793  -0.3690   0.0059   C.3       1 RES1   0.0000
    41 H17     25.9748  -1.2656   0.4497   H         1 RES1   0.0000
    42 C19     22.7809   4.9994  -2.5360   C.3       1 RES1   0.0000
    43 H18     23.7121   5.0543  -2.2342   H         1 RES1   0.0000
    44 H19     22.5119   5.8582  -2.9233   H         1 RES1   0.0000
    45 H20     22.6974   4.2961  -3.2134   H         1 RES1   0.0000
    46 C20     21.5829   1.7932  -1.8958   C.3       1 RES1   0.0000
    47 H21     21.2414   1.0113  -1.3734   H         1 RES1   0.0000
    48 C21     25.2443   2.7901  -1.4586   C.1       1 RES1   0.0000
    49 C22     25.4385   5.8095   3.4710   C.ar      1 RES1   0.0000
    50 H22     26.2306   6.2215   3.1469   H         1 RES1   0.0000
    51 C23     24.9289   4.6845   2.8037   C.ar      1 RES1   0.0000
    52 C24     23.6547   5.7348   5.0652   C.ar      1 RES1   0.0000
    53 H23     23.2230   6.0750   5.8405   H         1 RES1   0.0000
    54 C25     22.6690   1.2472  -2.8315   C.3       1 RES1   0.0000
    55 H24     22.8829   1.9207  -3.5108   H         1 RES1   0.0000
    56 H25     22.3432   0.4336  -3.2702   H         1 RES1   0.0000
    57 H26     23.4732   1.0395  -2.3115   H         1 RES1   0.0000
    58 C26     26.4189   2.9298  -3.7990   C.3       1 RES1   0.0000
    59 C27     27.3276   3.1638   2.4070   C.3       1 RES1   0.0000
    60 H27     27.7006   2.4281   1.8425   H         1 RES1   0.0000
    61 C28     23.5342  -2.1593   0.3807   C.3       1 RES1   0.0000
    62 H28     22.7789  -2.7340   0.1390   H         1 RES1   0.0000
    63 H29     23.7683  -2.3063   1.3214   H         1 RES1   0.0000
    64 H30     24.3052  -2.3777  -0.1850   H         1 RES1   0.0000
    65 C29     26.7351   5.3386   0.6224   C.3       1 RES1   0.0000
    66 H31     27.2959   5.7680   1.3311   H         1 RES1   0.0000
    67 C30     24.7757  -0.8760   4.4659   C.ar      1 RES1   0.0000
    68 H32     25.1681  -1.6172   4.9132   H         1 RES1   0.0000
    69 C31     27.2981   0.3190   0.3377   C.3       1 RES1   0.0000
    70 H33     27.2903   1.2316  -0.0193   H         1 RES1   0.0000
    71 H34     28.0379  -0.1816  -0.0653   H         1 RES1   0.0000
    72 H35     27.4139   0.3492   1.3105   H         1 RES1   0.0000
    73 C32     26.8689   2.5079   3.6978   C.3       1 RES1   0.0000
    74 H36     26.5510   3.1957   4.3184   H         1 RES1   0.0000
    75 H37     27.6191   2.0238   4.1032   H         1 RES1   0.0000
    76 H38     26.1406   1.8809   3.5048   H         1 RES1   0.0000
    77 C33     25.8730  -0.5855  -1.5059   C.3       1 RES1   0.0000
    78 H39     26.5904  -1.1836  -1.8014   H         1 RES1   0.0000
    79 H40     25.9551   0.2766  -1.9658   H         1 RES1   0.0000
    80 H41     25.0051  -0.9867  -1.7179   H         1 RES1   0.0000
    81 C34     24.0010   0.0400   5.1675   C.ar      1 RES1   0.0000
    82 H42     23.8273  -0.0902   6.0919   H         1 RES1   0.0000
    83 C35     27.6995   4.8465  -0.4727   C.3       1 RES1   0.0000
    84 H43     28.3696   5.5395  -0.6540   H         1 RES1   0.0000
    85 H44     27.1947   4.6571  -1.2912   H         1 RES1   0.0000
    86 H45     28.1476   4.0301  -0.1693   H         1 RES1   0.0000
    87 C36     25.8213   1.8570  -4.7108   C.3       1 RES1   0.0000
    88 H46     24.8645   2.0262  -4.8298   H         1 RES1   0.0000
    89 H47     25.9495   0.9750  -4.3039   H         1 RES1   0.0000
    90 H48     26.2671   1.8832  -5.5830   H         1 RES1   0.0000
    91 C37     20.4189   2.2635  -2.7801   C.3       1 RES1   0.0000
    92 H49     20.0636   1.5024  -3.2860   H         1 RES1   0.0000
    93 H50     20.7382   2.9496  -3.4032   H         1 RES1   0.0000
    94 H51     19.7095   2.6391  -2.2160   H         1 RES1   0.0000
    95 C38     28.5014   4.0749   2.7389   C.3       1 RES1   0.0000
    96 H52     29.1398   3.5930   3.3053   H         1 RES1   0.0000
    97 H53     28.1757   4.8668   3.2146   H         1 RES1   0.0000
    98 H54     28.9458   4.3512   1.9102   H         1 RES1   0.0000
    99 C39     27.9148   2.6884  -3.6104   C.3       1 RES1   0.0000
   100 H55     28.0576   1.7871  -3.2533   H         1 RES1   0.0000
   101 H56     28.2768   3.3492  -2.9837   H         1 RES1   0.0000
   102 H57     28.3696   2.7738  -4.4732   H         1 RES1   0.0000
   103 C40     25.8061   6.4213   0.0759   C.3       1 RES1   0.0000
   104 H58     25.3030   6.0657  -0.6867   H         1 RES1   0.0000
   105 H59     26.3374   7.1918  -0.2140   H         1 RES1   0.0000
   106 H60     25.1821   6.7008   0.7774   H         1 RES1   0.0000
   107 C41     26.1586   4.3212  -4.3756   C.3       1 RES1   0.0000
   108 H61     26.5201   4.9992  -3.7671   H         1 RES1   0.0000
   109 H62     25.1934   4.4567  -4.4804   H         1 RES1   0.0000
   110 H63     26.5960   4.4004  -5.2493   H         1 RES1   0.0000
   111 H64     24.2012   4.1145  -0.0363   H         1 RES1   0.0000
   112 H65     23.6053   3.0141   1.4145   H         1 RES1   0.0000
@<TRIPOS>BOND
     1     1     2    1
     2     2    51    1
     3     3     1    1
     4     4     1    1
     5     5     4    1
     6     6     5   ar
     7     7    48    3
     8     8     9    1
     9    10    11    1
    10    11     6    1
    11    12     8   ar
    12    13     4    1
    13    14    13    1
    14    15    16    1
    15    17     5   ar
    16    18    17    1
    17    19    10   ar
    18    20    19    1
    19    21     6   ar
    20    22    21    1
    21    23    15   ar
    22    24    23    1
    23    25     3    1
    24    26     3    1
    25    27    26    1
    26    28    26    1
    27    29    28    1
    28    30    28    1
    29    31    28    1
    30    32    19   ar
    31    33    32    1
    32    34    13    1
    33    35    34    1
    34    36    34    1
    35    37    34    1
    36    38    39    1
    37    40     4    1
    38    41    40    1
    39    42    26    1
    40    43    42    1
    41    44    42    1
    42    45    42    1
    43    46     3    1
    44    47    46    1
    45    48     1    1
    46    49    38   ar
    47    50    49    1
    48    51    12   ar
    49    52     8   ar
    50    53    52    1
    51    54    46    1
    52    55    54    1
    53    56    54    1
    54    57    54    1
    55    58     7    1
    56    59     2    1
    57    60    59    1
    58    61    13    1
    59    62    61    1
    60    63    61    1
    61    64    61    1
    62    65     2    1
    63    66    65    1
    64    67    17   ar
    65    68    67    1
    66    69    40    1
    67    70    69    1
    68    71    69    1
    69    72    69    1
    70    73    59    1
    71    74    73    1
    72    75    73    1
    73    76    73    1
    74    77    40    1
    75    78    77    1
    76    79    77    1
    77    80    77    1
    78    81    21   ar
    79    82    81    1
    80    83    65    1
    81    84    83    1
    82    85    83    1
    83    86    83    1
    84    87    58    1
    85    88    87    1
    86    89    87    1
    87    90    87    1
    88    91    46    1
    89    92    91    1
    90    93    91    1
    91    94    91    1
    92    95    59    1
    93    96    95    1
    94    97    95    1
    95    98    95    1
    96    99    58    1
    97   100    99    1
    98   101    99    1
    99   102    99    1
   100   103    65    1
   101   104   103    1
   102   105   103    1
   103   106   103    1
   104   107    58    1
   105   108   107    1
   106   109   107    1
   107   110   107    1
   108   111     1    1
   109   112     1    1
   110    10    25   ar
   111    11    12    1
   112    11   112    1
   113    15    25   ar
   114    23    32   ar
   115    38    52   ar
   116    49    51   ar
   117    67    81   ar
@<TRIPOS>SUBSTRUCTURE
     1 RES1        1 GROUP             0 ****  ****    0  
@<TRIPOS>CRYSIN
   28.1082   11.7188   12.0896   90.0000   90.0000   90.0000    33     1
