@<TRIPOS>MOLECULE
SIGRAD
    98   103     1     0     0
SMALL
NO_CHARGES
****
Generated from the CSD

@<TRIPOS>ATOM
     1 Fe1      3.5942   9.5450   3.6377   Fe        1 RES1   0.0000
     2 P1       2.6908  10.7891   1.9869   P.3       1 RES1   0.0000
     3 P2       5.4340  10.6138   4.2759   P.3       1 RES1   0.0000
     4 P3       2.7989   7.4424   3.5537   P.3       1 RES1   0.0000
     5 Si1      4.8769   8.7984   1.9377   Si        1 RES1   0.0000
     6 O1       1.9457  10.4376   5.8851   O.2       1 RES1   0.0000
     7 C1       2.2494   6.7298   5.1945   C.3       1 RES1   0.0000
     8 H1       2.1644   5.7416   5.0627   H         1 RES1   0.0000
     9 C2       2.9116   9.9703   0.3479   C.ar      1 RES1   0.0000
    10 C3       5.3852  12.4865   4.5252   C.3       1 RES1   0.0000
    11 H2       5.4445  12.8872   3.6114   H         1 RES1   0.0000
    12 C4       2.0914  10.1428  -0.7686   C.ar      1 RES1   0.0000
    13 H3       1.3388  10.7212  -0.7206   H         1 RES1   0.0000
    14 C5       6.5626   9.6445   1.9331   C.ar      1 RES1   0.0000
    15 C6       5.1074   6.9252   2.1381   C.ar      1 RES1   0.0000
    16 C7       4.3154   8.4847  -0.9383   C.ar      1 RES1   0.0000
    17 H4       5.0844   7.9287  -1.0079   H         1 RES1   0.0000
    18 C8       6.0950   6.1248   1.5545   C.ar      1 RES1   0.0000
    19 H5       6.7240   6.5178   0.9631   H         1 RES1   0.0000
    20 C9       6.8428  10.4096   3.0789   C.ar      1 RES1   0.0000
    21 C10      2.5869  10.0921   4.9835   C.1       1 RES1   0.0000
    22 C11      5.2724   4.1912   2.7214   C.ar      1 RES1   0.0000
    23 H6       5.3421   3.2683   2.9340   H         1 RES1   0.0000
    24 C12      6.1685   4.7607   1.8285   C.ar      1 RES1   0.0000
    25 H7       6.8273   4.2235   1.4064   H         1 RES1   0.0000
    26 C13      8.1013  11.0027   3.2209   C.ar      1 RES1   0.0000
    27 H8       8.3241  11.4550   4.0265   H         1 RES1   0.0000
    28 C14      6.2824  10.0384   5.8328   C.3       1 RES1   0.0000
    29 H9       7.0741  10.6329   5.9676   H         1 RES1   0.0000
    30 C15      3.3610  12.5078   1.5563   C.3       1 RES1   0.0000
    31 H10      3.4512  13.0132   2.4143   H         1 RES1   0.0000
    32 C16      6.5115  13.1344   5.3438   C.3       1 RES1   0.0000
    33 H11      6.4163  14.1097   5.3167   H         1 RES1   0.0000
    34 H12      7.3799  12.8813   4.9647   H         1 RES1   0.0000
    35 H13      6.4589  12.8259   6.2731   H         1 RES1   0.0000
    36 C17      0.6015  12.1893   3.2001   C.3       1 RES1   0.0000
    37 H14     -0.3468  12.4361   3.1963   H         1 RES1   0.0000
    38 H15      1.1482  12.9896   3.0569   H         1 RES1   0.0000
    39 H16      0.8301  11.7883   4.0647   H         1 RES1   0.0000
    40 C18      1.3976   6.7290   2.4749   C.3       1 RES1   0.0000
    41 H17      0.6039   7.3246   2.6069   H         1 RES1   0.0000
    42 C19      3.4929   8.6600  -2.0430   C.ar      1 RES1   0.0000
    43 H18      3.7001   8.2244  -2.8609   H         1 RES1   0.0000
    44 C20      3.2529   6.9336   6.3297   C.3       1 RES1   0.0000
    45 H19      3.3224   7.8887   6.5388   H         1 RES1   0.0000
    46 H20      4.1295   6.5967   6.0539   H         1 RES1   0.0000
    47 H21      2.9505   6.4459   7.1249   H         1 RES1   0.0000
    48 C21      4.1699   6.3279   3.0052   C.ar      1 RES1   0.0000
    49 C22      4.0459  12.9664   5.1080   C.3       1 RES1   0.0000
    50 H22      3.9752  12.6775   6.0423   H         1 RES1   0.0000
    51 H23      3.3087  12.5833   4.5894   H         1 RES1   0.0000
    52 H24      4.0039  13.9448   5.0643   H         1 RES1   0.0000
    53 C23      4.2772   4.9629   3.3048   C.ar      1 RES1   0.0000
    54 H25      3.6640   4.5627   3.9103   H         1 RES1   0.0000
    55 C24      5.4030  10.1831   7.0779   C.3       1 RES1   0.0000
    56 H26      4.6068   9.6188   6.9838   H         1 RES1   0.0000
    57 H27      5.1281  11.1193   7.1780   H         1 RES1   0.0000
    58 H28      5.9112   9.9050   7.8688   H         1 RES1   0.0000
    59 C25      4.7584  12.4308   0.9320   C.3       1 RES1   0.0000
    60 H29      4.6949  12.0368   0.0365   H         1 RES1   0.0000
    61 H30      5.3381  11.8743   1.4944   H         1 RES1   0.0000
    62 H31      5.1357  13.3324   0.8651   H         1 RES1   0.0000
    63 C26      1.7345   6.7768   0.9816   C.3       1 RES1   0.0000
    64 H32      2.4964   6.1892   0.8003   H         1 RES1   0.0000
    65 H33      1.9626   7.6955   0.7273   H         1 RES1   0.0000
    66 H34      0.9583   6.4766   0.4616   H         1 RES1   0.0000
    67 C27      9.0277  10.9335   2.1881   C.ar      1 RES1   0.0000
    68 H35      9.8806  11.3431   2.2897   H         1 RES1   0.0000
    69 C28      0.0019   9.9437   2.2721   C.3       1 RES1   0.0000
    70 H36      0.2413   9.5022   3.1133   H         1 RES1   0.0000
    71 H37      0.1467   9.3244   1.5259   H         1 RES1   0.0000
    72 H38     -0.9422  10.2089   2.2997   H         1 RES1   0.0000
    73 C29      8.7171  10.2704   1.0112   C.ar      1 RES1   0.0000
    74 H39      9.3322  10.2713   0.2856   H         1 RES1   0.0000
    75 C30      4.0284   9.1144   0.2743   C.ar      1 RES1   0.0000
    76 C31      6.8174   8.6104   5.6949   C.3       1 RES1   0.0000
    77 H40      7.2776   8.3527   6.5205   H         1 RES1   0.0000
    78 H41      7.4472   8.5683   4.9448   H         1 RES1   0.0000
    79 H42      6.0730   7.9959   5.5309   H         1 RES1   0.0000
    80 C32      7.5056   9.6061   0.8988   C.ar      1 RES1   0.0000
    81 H43      7.3105   9.1171   0.1079   H         1 RES1   0.0000
    82 C33      2.3747   9.4675  -1.9538   C.ar      1 RES1   0.0000
    83 H44      1.7982   9.5623  -2.7032   H         1 RES1   0.0000
    84 C34      2.4807  13.3561   0.6203   C.3       1 RES1   0.0000
    85 H45      2.9182  14.2157   0.4500   H         1 RES1   0.0000
    86 H46      1.6119  13.5114   1.0428   H         1 RES1   0.0000
    87 H47      2.3513  12.8813  -0.2275   H         1 RES1   0.0000
    88 C35      0.8716  11.1801   2.0812   C.3       1 RES1   0.0000
    89 H48      0.6056  11.6069   1.2171   H         1 RES1   0.0000
    90 C36      0.8596   7.2352   5.6159   C.3       1 RES1   0.0000
    91 H49      0.5573   6.7427   6.4076   H         1 RES1   0.0000
    92 H50      0.2236   7.0937   4.8833   H         1 RES1   0.0000
    93 H51      0.9097   8.1914   5.8265   H         1 RES1   0.0000
    94 C37      0.9321   5.2981   2.8040   C.3       1 RES1   0.0000
    95 H52      0.1971   5.0491   2.2067   H         1 RES1   0.0000
    96 H53      0.6250   5.2599   3.7343   H         1 RES1   0.0000
    97 H54      1.6791   4.6746   2.6799   H         1 RES1   0.0000
    98 H55      4.3685   8.6095   4.3918   H         1 RES1   0.0000
@<TRIPOS>BOND
     1     1     2    1
     2     2     9    1
     3     3     1    1
     4     4     1    1
     5     5     1    1
     6     6    21    3
     7     7     4    1
     8     8     7    1
     9     9    12   ar
    10    10     3    1
    11    11    10    1
    12    12    13    1
    13    14     5    1
    14    15     5    1
    15    16    17    1
    16    18    15   ar
    17    19    18    1
    18    20     3    1
    19    21     1    1
    20    22    23    1
    21    24    18   ar
    22    25    24    1
    23    26    20   ar
    24    27    26    1
    25    28     3    1
    26    29    28    1
    27    30     2    1
    28    31    30    1
    29    32    10    1
    30    33    32    1
    31    34    32    1
    32    35    32    1
    33    36    37    1
    34    38    36    1
    35    39    36    1
    36    40     4    1
    37    41    40    1
    38    42    16   ar
    39    43    42    1
    40    44     7    1
    41    45    44    1
    42    46    44    1
    43    47    44    1
    44    48     4    1
    45    49    10    1
    46    50    49    1
    47    51    49    1
    48    52    49    1
    49    53    22   ar
    50    54    53    1
    51    55    28    1
    52    56    55    1
    53    57    55    1
    54    58    55    1
    55    59    30    1
    56    60    59    1
    57    61    59    1
    58    62    59    1
    59    63    40    1
    60    64    63    1
    61    65    63    1
    62    66    63    1
    63    67    26   ar
    64    68    67    1
    65    69    70    1
    66    71    69    1
    67    72    69    1
    68    73    67   ar
    69    74    73    1
    70    75     5    1
    71    76    28    1
    72    77    76    1
    73    78    76    1
    74    79    76    1
    75    80    14   ar
    76    81    80    1
    77    82    12   ar
    78    83    82    1
    79    84    30    1
    80    85    84    1
    81    86    84    1
    82    87    84    1
    83    88     2    1
    84    89    88    1
    85    90     7    1
    86    91    90    1
    87    92    90    1
    88    93    90    1
    89    94    40    1
    90    95    94    1
    91    96    94    1
    92    97    94    1
    93    98     1    1
    94     9    75   ar
    95    14    20   ar
    96    15    48   ar
    97    16    75   ar
    98    22    24   ar
    99    36    88    1
   100    42    82   ar
   101    48    53   ar
   102    69    88    1
   103    73    80   ar
@<TRIPOS>SUBSTRUCTURE
     1 RES1        1 GROUP             0 ****  ****    0  
@<TRIPOS>CRYSIN
   36.5798   11.7777   17.1309   90.0000  104.2430   90.0000    15     1
