@<TRIPOS>MOLECULE
SIGREH
   131   138     1     0     0
SMALL
NO_CHARGES
****
Generated from the CSD

@<TRIPOS>ATOM
     1 Fe1      4.6920  15.6621  10.8065   Fe        1 RES1   0.0000
     2 B1       4.8515  16.6671  12.6321   B         1 RES1   0.0000
     3 H1       5.6576  15.7844  12.0644   H         1 RES1   0.0000
     4 H2       4.0111  16.8278  11.7229   H         1 RES1   0.0000
     5 P1       3.0657  19.1725  13.2587   P.3       1 RES1   0.0000
     6 P2       3.3012  14.3191  11.9537   P.3       1 RES1   0.0000
     7 C1       4.9118  19.2220  13.2835   C.ar      1 RES1   0.0000
     8 C2       5.6090  18.0284  12.9673   C.ar      1 RES1   0.0000
     9 C3       4.1797  15.9722  13.9081   C.ar      1 RES1   0.0000
    10 C4       4.3670  16.4102  15.2279   C.ar      1 RES1   0.0000
    11 H3       4.9440  17.1466  15.3971   H         1 RES1   0.0000
    12 C5       3.3460  14.8677  13.6935   C.ar      1 RES1   0.0000
    13 C6       5.6378  20.3530  13.6822   C.ar      1 RES1   0.0000
    14 H4       5.1723  21.1596  13.8698   H         1 RES1   0.0000
    15 C7       7.7072  19.1487  13.5335   C.ar      1 RES1   0.0000
    16 H5       8.6501  19.1108  13.6378   H         1 RES1   0.0000
    17 C8       2.6464  20.3196  14.6676   C.3       1 RES1   0.0000
    18 H6       3.1526  21.1752  14.5570   H         1 RES1   0.0000
    19 C9       3.7249  15.7896  16.2927   C.ar      1 RES1   0.0000
    20 H7       3.8841  16.0854  17.1809   H         1 RES1   0.0000
    21 C10      7.0041  18.0275  13.1032   C.ar      1 RES1   0.0000
    22 H8       7.4854  17.2358  12.8943   H         1 RES1   0.0000
    23 C11      1.5216  14.4947  11.4938   C.3       1 RES1   0.0000
    24 H9       0.9910  13.9318  12.1278   H         1 RES1   0.0000
    25 C12      7.0199  20.3220  13.8088   C.ar      1 RES1   0.0000
    26 H10      7.4923  21.0994  14.0830   H         1 RES1   0.0000
    27 C13      3.5440  12.4773  12.0566   C.3       1 RES1   0.0000
    28 H11      3.7801  12.1772  11.1321   H         1 RES1   0.0000
    29 C14      2.6574  14.2751  14.7560   C.ar      1 RES1   0.0000
    30 H12      2.0582  13.5572  14.5902   H         1 RES1   0.0000
    31 C15      4.7714  12.1810  12.9246   C.3       1 RES1   0.0000
    32 H13      4.5457  12.3221  13.8683   H         1 RES1   0.0000
    33 H14      5.5039  12.7792  12.6695   H         1 RES1   0.0000
    34 H15      5.0486  11.2498  12.7906   H         1 RES1   0.0000
    35 C16      1.1503  20.6232  14.7102   C.3       1 RES1   0.0000
    36 H16      0.6448  19.7841  14.6694   H         1 RES1   0.0000
    37 H17      0.9102  21.1864  13.9461   H         1 RES1   0.0000
    38 H18      0.9356  21.0927  15.5426   H         1 RES1   0.0000
    39 C17      2.6376  20.1425  11.7201   C.3       1 RES1   0.0000
    40 H19      3.1576  19.7216  10.9765   H         1 RES1   0.0000
    41 C18      2.3556  11.6143  12.4932   C.3       1 RES1   0.0000
    42 H20      2.6084  10.6679  12.4563   H         1 RES1   0.0000
    43 H21      1.5983  11.7737  11.8915   H         1 RES1   0.0000
    44 H22      2.1007  11.8495  13.4101   H         1 RES1   0.0000
    45 C19      1.2517  13.9744  10.0833   C.3       1 RES1   0.0000
    46 H23      0.2894  14.0053   9.9016   H         1 RES1   0.0000
    47 H24      1.5682  13.0489  10.0097   H         1 RES1   0.0000
    48 H25      1.7255  14.5337   9.4319   H         1 RES1   0.0000
    49 C20      3.0127  21.6222  11.7080   C.3       1 RES1   0.0000
    50 H26      2.8358  21.9957  10.8194   H         1 RES1   0.0000
    51 H27      3.9638  21.7192  11.9203   H         1 RES1   0.0000
    52 H28      2.4782  22.1004  12.3756   H         1 RES1   0.0000
    53 C21      3.0554  19.6583  15.9825   C.3       1 RES1   0.0000
    54 H29      2.8386  20.2545  16.7299   H         1 RES1   0.0000
    55 H30      4.0188  19.4831  15.9734   H         1 RES1   0.0000
    56 H31      2.5700  18.8142  16.0887   H         1 RES1   0.0000
    57 C22      1.0426  15.9398  11.6534   C.3       1 RES1   0.0000
    58 H32      1.5065  16.5112  11.0053   H         1 RES1   0.0000
    59 H33      1.2387  16.2504  12.5615   H         1 RES1   0.0000
    60 H34      0.0775  15.9829  11.4938   H         1 RES1   0.0000
    61 C23      2.8487  14.7355  16.0560   C.ar      1 RES1   0.0000
    62 H35      2.3835  14.3308  16.7789   H         1 RES1   0.0000
    63 C24      1.1587  19.9401  11.3655   C.3       1 RES1   0.0000
    64 H36      0.5993  20.4150  12.0154   H         1 RES1   0.0000
    65 H37      0.9457  18.9837  11.3871   H         1 RES1   0.0000
    66 H38      0.9871  20.2924  10.4679   H         1 RES1   0.0000
    67 B1A      4.5325  16.6671   8.9809   B         1 RES1   0.0000
    68 H1A      3.7264  15.7844   9.5486   H         1 RES1   0.0000
    69 H2A      5.3730  16.8278   9.8901   H         1 RES1   0.0000
    70 P1A      6.3184  19.1725   8.3543   P.3       1 RES1   0.0000
    71 P2A      6.0828  14.3191   9.6593   P.3       1 RES1   0.0000
    72 C1A      4.4722  19.2220   8.3295   C.ar      1 RES1   0.0000
    73 C2A      3.7750  18.0284   8.6456   C.ar      1 RES1   0.0000
    74 C3A      5.2044  15.9722   7.7049   C.ar      1 RES1   0.0000
    75 C4A      5.0170  16.4102   6.3850   C.ar      1 RES1   0.0000
    76 H3A      4.4400  17.1466   6.2159   H         1 RES1   0.0000
    77 C5A      6.0380  14.8677   7.9194   C.ar      1 RES1   0.0000
    78 C6A      3.7462  20.3530   7.9308   C.ar      1 RES1   0.0000
    79 H4A      4.2117  21.1596   7.7432   H         1 RES1   0.0000
    80 C7A      1.6768  19.1487   8.0795   C.ar      1 RES1   0.0000
    81 H5A      0.7339  19.1108   7.9752   H         1 RES1   0.0000
    82 C8A      6.7377  20.3196   6.9454   C.3       1 RES1   0.0000
    83 H6A      6.2314  21.1752   7.0559   H         1 RES1   0.0000
    84 C9A      5.6591  15.7896   5.3202   C.ar      1 RES1   0.0000
    85 H7A      5.4999  16.0854   4.4321   H         1 RES1   0.0000
    86 C10A     2.3800  18.0275   8.5097   C.ar      1 RES1   0.0000
    87 H8A      1.8986  17.2358   8.7187   H         1 RES1   0.0000
    88 C11A     7.8624  14.4947  10.1192   C.3       1 RES1   0.0000
    89 H9A      8.3930  13.9318   9.4852   H         1 RES1   0.0000
    90 C12A     2.3641  20.3220   7.8042   C.ar      1 RES1   0.0000
    91 H10A     1.8918  21.0994   7.5300   H         1 RES1   0.0000
    92 C13A     5.8401  12.4773   9.5564   C.3       1 RES1   0.0000
    93 H11A     5.6040  12.1772  10.4808   H         1 RES1   0.0000
    94 C14A     6.7267  14.2751   6.8569   C.ar      1 RES1   0.0000
    95 H12A     7.3258  13.5572   7.0228   H         1 RES1   0.0000
    96 C15A     4.6127  12.1810   8.6884   C.3       1 RES1   0.0000
    97 H13A     4.8384  12.3221   7.7446   H         1 RES1   0.0000
    98 H14A     3.8802  12.7792   8.9434   H         1 RES1   0.0000
    99 H15A     4.3354  11.2498   8.8224   H         1 RES1   0.0000
   100 C16A     8.2337  20.6232   6.9027   C.3       1 RES1   0.0000
   101 H16A     8.7392  19.7841   6.9435   H         1 RES1   0.0000
   102 H17A     8.4739  21.1864   7.6668   H         1 RES1   0.0000
   103 H18A     8.4484  21.0927   6.0704   H         1 RES1   0.0000
   104 C17A     6.7464  20.1425   9.8928   C.3       1 RES1   0.0000
   105 H19A     6.2264  19.7216  10.6365   H         1 RES1   0.0000
   106 C18A     7.0285  11.6143   9.1198   C.3       1 RES1   0.0000
   107 H20A     6.7756  10.6679   9.1567   H         1 RES1   0.0000
   108 H21A     7.7857  11.7737   9.7215   H         1 RES1   0.0000
   109 H22A     7.2833  11.8495   8.2028   H         1 RES1   0.0000
   110 C19A     8.1323  13.9744  11.5297   C.3       1 RES1   0.0000
   111 H23A     9.0947  14.0053  11.7113   H         1 RES1   0.0000
   112 H24A     7.8158  13.0489  11.6033   H         1 RES1   0.0000
   113 H25A     7.6585  14.5337  12.1811   H         1 RES1   0.0000
   114 C20A     6.3713  21.6222   9.9049   C.3       1 RES1   0.0000
   115 H26A     6.5483  21.9957  10.7935   H         1 RES1   0.0000
   116 H27A     5.4202  21.7192   9.6927   H         1 RES1   0.0000
   117 H28A     6.9058  22.1004   9.2374   H         1 RES1   0.0000
   118 C21A     6.3286  19.6583   5.6305   C.3       1 RES1   0.0000
   119 H29A     6.5455  20.2545   4.8831   H         1 RES1   0.0000
   120 H30A     5.3653  19.4831   5.6395   H         1 RES1   0.0000
   121 H31A     6.8141  18.8142   5.5243   H         1 RES1   0.0000
   122 C22A     8.3415  15.9398   9.9595   C.3       1 RES1   0.0000
   123 H32A     7.8776  16.5112  10.6076   H         1 RES1   0.0000
   124 H33A     8.1454  16.2504   9.0515   H         1 RES1   0.0000
   125 H34A     9.3066  15.9829  10.1192   H         1 RES1   0.0000
   126 C23A     6.5353  14.7355   5.5570   C.ar      1 RES1   0.0000
   127 H35A     7.0006  14.3308   4.8341   H         1 RES1   0.0000
   128 C24A     8.2254  19.9401  10.2474   C.3       1 RES1   0.0000
   129 H36A     8.7848  20.4150   9.5976   H         1 RES1   0.0000
   130 H37A     8.4384  18.9837  10.2258   H         1 RES1   0.0000
   131 H38A     8.3969  20.2924  11.1451   H         1 RES1   0.0000
@<TRIPOS>BOND
     1     1     3    1
     2     2     3    1
     3     4     1    1
     4     5     7    1
     5     6     1    1
     6     7     8   ar
     7     8     2    1
     8     9     2    1
     9    10     9   ar
    10    11    10    1
    11    12     6    1
    12    13     7   ar
    13    14    13    1
    14    15    16    1
    15    17     5    1
    16    18    17    1
    17    19    10   ar
    18    20    19    1
    19    21     8   ar
    20    22    21    1
    21    23     6    1
    22    24    23    1
    23    25    13   ar
    24    26    25    1
    25    27     6    1
    26    28    27    1
    27    29    12   ar
    28    30    29    1
    29    31    27    1
    30    32    31    1
    31    33    31    1
    32    34    31    1
    33    35    17    1
    34    36    35    1
    35    37    35    1
    36    38    35    1
    37    39     5    1
    38    40    39    1
    39    41    27    1
    40    42    41    1
    41    43    41    1
    42    44    41    1
    43    45    23    1
    44    46    45    1
    45    47    45    1
    46    48    45    1
    47    49    39    1
    48    50    49    1
    49    51    49    1
    50    52    49    1
    51    53    17    1
    52    54    53    1
    53    55    53    1
    54    56    53    1
    55    57    23    1
    56    58    57    1
    57    59    57    1
    58    60    57    1
    59    61    19   ar
    60    62    61    1
    61    63    39    1
    62    64    63    1
    63    65    63    1
    64    66    63    1
    65    67    68    1
    66    68     1    1
    67    69     1    1
    68    70    72    1
    69    71     1    1
    70    72    73   ar
    71    73    67    1
    72    74    67    1
    73    75    74   ar
    74    76    75    1
    75    77    71    1
    76    78    72   ar
    77    79    78    1
    78    80    81    1
    79    82    70    1
    80    83    82    1
    81    84    75   ar
    82    85    84    1
    83    86    73   ar
    84    87    86    1
    85    88    71    1
    86    89    88    1
    87    90    78   ar
    88    91    90    1
    89    92    71    1
    90    93    92    1
    91    94    77   ar
    92    95    94    1
    93    96    92    1
    94    97    96    1
    95    98    96    1
    96    99    96    1
    97   100    82    1
    98   101   100    1
    99   102   100    1
   100   103   100    1
   101   104    70    1
   102   105   104    1
   103   106    92    1
   104   107   106    1
   105   108   106    1
   106   109   106    1
   107   110    88    1
   108   111   110    1
   109   112   110    1
   110   113   110    1
   111   114   104    1
   112   115   114    1
   113   116   114    1
   114   117   114    1
   115   118    82    1
   116   119   118    1
   117   120   118    1
   118   121   118    1
   119   122    88    1
   120   123   122    1
   121   124   122    1
   122   125   122    1
   123   126    84   ar
   124   127   126    1
   125   128   104    1
   126   129   128    1
   127   130   128    1
   128   131   128    1
   129     2     4    1
   130     9    12   ar
   131    15    21   ar
   132    15    25   ar
   133    29    61   ar
   134    67    69    1
   135    74    77   ar
   136    80    86   ar
   137    80    90   ar
   138    94   126   ar
@<TRIPOS>SUBSTRUCTURE
     1 RES1        1 GROUP             0 ****  ****    0  
@<TRIPOS>CRYSIN
   14.7183   22.2944   14.8410   90.0000  103.8640   90.0000    15     1
