@<TRIPOS>MOLECULE
SIGSIM
    99   104     1     0     0
SMALL
NO_CHARGES
****
Generated from the CSD

@<TRIPOS>ATOM
     1 Fe1      7.1617  12.4159   7.8300   Fe        1 RES1   0.0000
     2 H1       7.8632  13.5489   7.2136   H         1 RES1   0.0000
     3 H2       7.5087  11.8559   6.4837   H         1 RES1   0.0000
     4 P1       5.7539  13.4260   6.4126   P.3       1 RES1   0.0000
     5 P2       6.0140  10.4796   8.3652   P.3       1 RES1   0.0000
     6 P3       9.4285  12.1161   8.0508   P.3       1 RES1   0.0000
     7 N1       6.8490  13.3483   9.3386   N.1       1 RES1   0.0000
     8 C1       5.6727  12.4502   4.8429   C.ar      1 RES1   0.0000
     9 C2      10.3757  13.6318   8.6076   C.3       1 RES1   0.0000
    10 H3      11.3458  13.4044   8.5257   H         1 RES1   0.0000
    11 C3       9.2100  11.3259   5.3609   C.ar      1 RES1   0.0000
    12 C4       3.9371  13.6641   6.9368   C.3       1 RES1   0.0000
    13 H4       3.4621  12.8168   6.6980   H         1 RES1   0.0000
    14 C5       6.8544   9.1166   7.5003   C.ar      1 RES1   0.0000
    15 C6       6.5299  11.3545   4.6567   C.ar      1 RES1   0.0000
    16 C7      11.9453  11.7244   4.7859   C.ar      1 RES1   0.0000
    17 H5      12.8701  11.8384   4.6015   H         1 RES1   0.0000
    18 C8      11.4490  11.9922   6.0505   C.ar      1 RES1   0.0000
    19 H6      12.0374  12.3101   6.7243   H         1 RES1   0.0000
    20 C9       6.8413   7.7914   7.9574   C.ar      1 RES1   0.0000
    21 H7       6.3504   7.5725   8.7400   H         1 RES1   0.0000
    22 C10     10.0883  11.8008   6.3562   C.ar      1 RES1   0.0000
    23 C11     10.1505  14.8760   7.7493   C.3       1 RES1   0.0000
    24 H8       9.2389  15.2086   7.8888   H         1 RES1   0.0000
    25 H9      10.2733  14.6480   6.8052   H         1 RES1   0.0000
    26 H10     10.7941  15.5691   8.0041   H         1 RES1   0.0000
    27 C12      7.5680   9.4587   6.3345   C.ar      1 RES1   0.0000
    28 C13      4.6806  12.7326   3.8807   C.ar      1 RES1   0.0000
    29 H11      4.1281  13.4965   3.9889   H         1 RES1   0.0000
    30 C14     11.0824  11.2897   3.7902   C.ar      1 RES1   0.0000
    31 H12     11.4093  11.1174   2.9154   H         1 RES1   0.0000
    32 C15     10.3327  10.8050   9.0855   C.3       1 RES1   0.0000
    33 H13      9.8696  10.7728   9.9712   H         1 RES1   0.0000
    34 C16      9.7378  11.1082   4.0825   C.ar      1 RES1   0.0000
    35 H14      9.1528  10.8252   3.3884   H         1 RES1   0.0000
    36 C17      7.5322   6.7962   7.2870   C.ar      1 RES1   0.0000
    37 H15      7.5105   5.9018   7.6038   H         1 RES1   0.0000
    38 C18      4.2087  10.1154   7.8977   C.3       1 RES1   0.0000
    39 H16      3.6609  10.8998   8.1881   H         1 RES1   0.0000
    40 C19      4.9815  10.8839  10.9467   C.3       1 RES1   0.0000
    41 H17      4.9188  10.5631  11.8717   H         1 RES1   0.0000
    42 H18      4.0987  10.8347  10.5232   H         1 RES1   0.0000
    43 H19      5.2937  11.8130  10.9437   H         1 RES1   0.0000
    44 C20      6.3533  16.1151   6.9081   C.3       1 RES1   0.0000
    45 H20      7.0732  15.8391   7.5128   H         1 RES1   0.0000
    46 H21      5.5090  16.1583   7.4036   H         1 RES1   0.0000
    47 H22      6.5604  16.9985   6.5363   H         1 RES1   0.0000
    48 C21     11.8195  11.0466   9.3766   C.3       1 RES1   0.0000
    49 H23     12.1540  10.3439   9.9733   H         1 RES1   0.0000
    50 H24     11.9310  11.9194   9.8055   H         1 RES1   0.0000
    51 H25     12.3242  11.0300   8.5358   H         1 RES1   0.0000
    52 C22     10.1961   9.4177   8.4721   C.3       1 RES1   0.0000
    53 H26     10.6302   9.4053   7.5937   H         1 RES1   0.0000
    54 H27      9.2467   9.1973   8.3700   H         1 RES1   0.0000
    55 H28     10.6241   8.7589   9.0574   H         1 RES1   0.0000
    56 C23      7.3405  10.0636  10.8242   C.3       1 RES1   0.0000
    57 H29      7.6811  10.9824  10.7921   H         1 RES1   0.0000
    58 H30      7.9569   9.4704  10.3473   H         1 RES1   0.0000
    59 H31      7.2671   9.7754  11.7585   H         1 RES1   0.0000
    60 C24      6.3271  10.5615   3.5180   C.ar      1 RES1   0.0000
    61 H32      6.9003   9.8183   3.3662   H         1 RES1   0.0000
    62 C25      3.6169   8.8687   8.5712   C.3       1 RES1   0.0000
    63 H33      2.6976   8.7351   8.2588   H         1 RES1   0.0000
    64 H34      3.6164   8.9908   9.5426   H         1 RES1   0.0000
    65 H35      4.1579   8.0855   8.3417   H         1 RES1   0.0000
    66 C26      3.8137  13.8110   8.4450   C.3       1 RES1   0.0000
    67 H36      4.2416  14.6464   8.7279   H         1 RES1   0.0000
    68 H37      4.2533  13.0534   8.8835   H         1 RES1   0.0000
    69 H38      2.8655  13.8285   8.6955   H         1 RES1   0.0000
    70 C27      6.2257  15.0971   5.7664   C.3       1 RES1   0.0000
    71 H39      5.4865  15.4071   5.1696   H         1 RES1   0.0000
    72 C28      8.2557   7.1169   6.1461   C.ar      1 RES1   0.0000
    73 H40      8.7457   6.4449   5.6851   H         1 RES1   0.0000
    74 B1       7.6745  10.9635   5.7325   B         1 RES1   0.0000
    75 N2       6.6671  13.9630  10.2672   N.1       1 RES1   0.0000
    76 C29      8.2589   8.4222   5.6841   C.ar      1 RES1   0.0000
    77 H41      8.7479   8.6255   4.8946   H         1 RES1   0.0000
    78 C30      5.9718  10.0072  10.1674   C.3       1 RES1   0.0000
    79 H42      5.6478   9.0623  10.2240   H         1 RES1   0.0000
    80 C31      5.3147  10.8268   2.6034   C.ar      1 RES1   0.0000
    81 H43      5.1861  10.2566   1.8539   H         1 RES1   0.0000
    82 C32      4.0107   9.9539   6.3895   C.3       1 RES1   0.0000
    83 H44      4.5453   9.1973   6.0693   H         1 RES1   0.0000
    84 H45      4.2966  10.7728   5.9338   H         1 RES1   0.0000
    85 H46      3.0629   9.7881   6.2007   H         1 RES1   0.0000
    86 C33     10.1288  13.9444  10.0839   C.3       1 RES1   0.0000
    87 H47     10.7736  14.6178  10.3877   H         1 RES1   0.0000
    88 H48     10.2377  13.1281  10.6142   H         1 RES1   0.0000
    89 H49      9.2185  14.2890  10.1977   H         1 RES1   0.0000
    90 C34      4.5024  11.9147   2.7898   C.ar      1 RES1   0.0000
    91 H50      3.8147  12.1053   2.1633   H         1 RES1   0.0000
    92 C35      3.1555  14.7973   6.2684   C.3       1 RES1   0.0000
    93 H51      2.2188  14.7639   6.5565   H         1 RES1   0.0000
    94 H52      3.2003  14.6972   5.2949   H         1 RES1   0.0000
    95 H53      3.5450  15.6597   6.5262   H         1 RES1   0.0000
    96 C36      7.5036  15.0403   4.9217   C.3       1 RES1   0.0000
    97 H54      7.7638  15.9487   4.6621   H         1 RES1   0.0000
    98 H55      7.3398  14.5050   4.1183   H         1 RES1   0.0000
    99 H56      8.2236  14.6305   5.4466   H         1 RES1   0.0000
@<TRIPOS>BOND
     1     1     2    1
     2     3     1    1
     3     4     1    1
     4     5     1    1
     5     6     1    1
     6     7     1    1
     7     8     4    1
     8     9     6    1
     9    10     9    1
    10    11    22   ar
    11    12     4    1
    12    13    12    1
    13    14     5    1
    14    15     8   ar
    15    16    17    1
    16    18    16   ar
    17    19    18    1
    18    20    14   ar
    19    21    20    1
    20    22     6    1
    21    23     9    1
    22    24    23    1
    23    25    23    1
    24    26    23    1
    25    27    14   ar
    26    28     8   ar
    27    29    28    1
    28    30    16   ar
    29    31    30    1
    30    32     6    1
    31    33    32    1
    32    34    11   ar
    33    35    34    1
    34    36    20   ar
    35    37    36    1
    36    38     5    1
    37    39    38    1
    38    40    41    1
    39    42    40    1
    40    43    40    1
    41    44    45    1
    42    46    44    1
    43    47    44    1
    44    48    32    1
    45    49    48    1
    46    50    48    1
    47    51    48    1
    48    52    32    1
    49    53    52    1
    50    54    52    1
    51    55    52    1
    52    56    57    1
    53    58    56    1
    54    59    56    1
    55    60    15   ar
    56    61    60    1
    57    62    38    1
    58    63    62    1
    59    64    62    1
    60    65    62    1
    61    66    12    1
    62    67    66    1
    63    68    66    1
    64    69    66    1
    65    70     4    1
    66    71    70    1
    67    72    36   ar
    68    73    72    1
    69    74     3    1
    70    75     7    3
    71    76    27   ar
    72    77    76    1
    73    78     5    1
    74    79    78    1
    75    80    60   ar
    76    81    80    1
    77    82    38    1
    78    83    82    1
    79    84    82    1
    80    85    82    1
    81    86     9    1
    82    87    86    1
    83    88    86    1
    84    89    86    1
    85    90    28   ar
    86    91    90    1
    87    92    12    1
    88    93    92    1
    89    94    92    1
    90    95    92    1
    91    96    70    1
    92    97    96    1
    93    98    96    1
    94    99    96    1
    95    11    74    1
    96    15    74    1
    97    18    22   ar
    98    27    74    1
    99    30    34   ar
   100    40    78    1
   101    44    70    1
   102    56    78    1
   103    72    76   ar
   104    80    90   ar
@<TRIPOS>SUBSTRUCTURE
     1 RES1        1 GROUP             0 ****  ****    0  
@<TRIPOS>CRYSIN
   10.9690   15.8820   20.7040   90.0000  102.4460   90.0000    14     1
