@<TRIPOS>MOLECULE
SIMKEH
    79    81     4     0     0
SMALL
USER_CHARGES
****
Generated from the CSD

@<TRIPOS>ATOM
     1 Fe1      6.5646   7.6771   9.7736   Fe        1 RES1  -3.0000
     2 O1       4.6243   7.4180  10.2916   O.co2     1 RES1   0.0000
     3 O2       6.8679   5.7670   9.1637   O.co2     1 RES1   0.0000
     4 O3       8.3471   8.2097   9.0687   O.co2     1 RES1   0.0000
     5 O4       7.0930   6.8248  11.5169   O.co2     1 RES1   0.0000
     6 O5       5.6729   8.0776   8.0239   O.co2     1 RES1   0.0000
     7 O6       6.6485   9.5127  10.5244   O.co2     1 RES1   0.0000
     8 O7       7.1620   3.7038   9.9525   O.co2     1 RES1   0.0000
     9 O8       2.5735   7.3134   9.4395   O.co2     1 RES1   0.0000
    10 O9       9.7322   9.9341   8.9609   O.co2     1 RES1   0.0000
    11 O10      3.7186   7.9133   6.9650   O.co2     1 RES1   0.0000
    12 O11      7.1441   4.8240  12.5008   O.co2     1 RES1   0.0000
    13 C1       7.0453   4.9105  10.1016   C.2       1 RES1   0.0000
    14 O12      7.9460  11.3196  10.5828   O.co2     1 RES1   0.0000
    15 C2       3.7781   7.4979   9.3339   C.2       1 RES1   0.0000
    16 C3       4.4127   7.8598   7.9633   C.2       1 RES1   0.0000
    17 C4       7.1048   5.5445  11.5130   C.2       1 RES1   0.0000
    18 C5       8.7020   9.4043   9.3486   C.2       1 RES1   0.0000
    19 C6       7.7034  10.1762  10.2371   C.2       1 RES1   0.0000
    20 N1       1.1440   0.9703   9.1304   N.ar      2 RES2   1.0000
    21 C7       1.9242   1.1407   8.0111   C.ar      2 RES2   0.0000
    22 N2       0.4448   1.5187  11.2553   N.pl3     2 RES2   0.0000
    23 C8       2.9467   3.0040   9.0954   C.ar      2 RES2   0.0000
    24 C9       1.2276   1.7651  10.2118   C.ar      2 RES2   0.0000
    25 C10      2.8251   2.1621   7.9939   C.ar      2 RES2   0.0000
    26 H1       3.3594   2.2966   7.2451   H         2 RES2   0.0000
    27 C11      2.1687   2.8153  10.1920   C.ar      2 RES2   0.0000
    28 H2       2.2563   3.3772  10.9279   H         2 RES2   0.0000
    29 C12      3.9633   4.1220   9.0428   C.3       2 RES2   0.0000
    30 H3       4.8364   3.7548   8.8907   H         2 RES2   0.0000
    31 H4       3.9573   4.5989   9.8770   H         2 RES2   0.0000
    32 H5       3.7393   4.7241   8.3291   H         2 RES2   0.0000
    33 C13      1.7376   0.1706   6.8922   C.3       2 RES2   0.0000
    34 H6       2.0239  -0.7008   7.1729   H         2 RES2   0.0000
    35 H7       2.2591   0.4502   6.1359   H         2 RES2   0.0000
    36 H8       0.8097   0.1392   6.6468   H         2 RES2   0.0000
    37 H9       0.6585   0.3098   9.1784   H         2 RES2   0.0000
    38 H10      0.5682   1.8780  11.9928   H         2 RES2   0.0000
    39 H11     -0.2144   1.0558  11.1941   H         2 RES2   0.0000
    40 N3       8.4649   4.8484   4.5007   N.ar      3 RES3   1.0000
    41 N4       7.1978   4.8215   6.4230   N.pl3     3 RES3   0.0000
    42 C14      8.1758   5.3687   5.7037   C.ar      3 RES3   0.0000
    43 C15      8.9213   6.4850   6.1378   C.ar      3 RES3   0.0000
    44 H12      8.7527   6.8638   6.9700   H         3 RES3   0.0000
    45 C16      9.4319   5.3352   3.6705   C.ar      3 RES3   0.0000
    46 C17     10.1482   6.4156   4.0881   C.ar      3 RES3   0.0000
    47 H13     10.8154   6.7668   3.5433   H         3 RES3   0.0000
    48 C18      9.8835   7.0045   5.3372   C.ar      3 RES3   0.0000
    49 C19      9.6158   4.6166   2.3683   C.3       3 RES3   0.0000
    50 H14      8.7742   4.5687   1.9079   H         3 RES3   0.0000
    51 H15      9.9399   3.7283   2.5355   H         3 RES3   0.0000
    52 H16     10.2507   5.0921   1.8268   H         3 RES3   0.0000
    53 C20     10.6754   8.2115   5.7720   C.3       3 RES3   0.0000
    54 H17     11.6059   7.9828   5.8227   H         3 RES3   0.0000
    55 H18     10.3702   8.5013   6.6341   H         3 RES3   0.0000
    56 H19     10.5549   8.9200   5.1356   H         3 RES3   0.0000
    57 H20      6.7416   4.0755   6.0725   H         3 RES3   0.0000
    58 H21      7.0533   5.2332   7.2895   H         3 RES3   0.0000
    59 H22      8.1053   4.2537   4.2343   H         3 RES3   0.0000
    60 N5       3.4695   9.1762   2.1543   N.ar      4 RES4   1.0000
    61 N6       3.8042   8.0371   0.1691   N.pl3     4 RES4   0.0000
    62 C21      4.1241   9.0532   0.9673   C.ar      4 RES4   0.0000
    63 C22      5.4185  10.9890   1.5510   C.ar      4 RES4   0.0000
    64 C23      3.7477  10.1450   3.0635   C.ar      4 RES4   0.0000
    65 C24      5.1064   9.9951   0.6651   C.ar      4 RES4   0.0000
    66 H23      5.5546   9.9474  -0.1483   H         4 RES4   0.0000
    67 C25      4.7170  11.0490   2.7769   C.ar      4 RES4   0.0000
    68 H24      4.9221  11.7146   3.3925   H         4 RES4   0.0000
    69 C26      6.4900  11.9917   1.2437   C.3       4 RES4   0.0000
    70 H25      6.8094  11.8540   0.3486   H         4 RES4   0.0000
    71 H26      7.2152  11.8843   1.8623   H         4 RES4   0.0000
    72 H27      6.1296  12.8785   1.3210   H         4 RES4   0.0000
    73 C27      2.9498  10.1216   4.3319   C.3       4 RES4   0.0000
    74 H28      3.2618   9.4083   4.8922   H         4 RES4   0.0000
    75 H29      2.0234   9.9825   4.1227   H         4 RES4   0.0000
    76 H30      3.0536  10.9580   4.7908   H         4 RES4   0.0000
    77 H31      3.0354   7.4581   0.3550   H         4 RES4   0.0000
    78 H32      2.8489   8.5733   2.3200   H         4 RES4   0.0000
    79 H33      4.1706   7.9855  -0.6212   H         4 RES4   0.0000
@<TRIPOS>BOND
     1     1     2    1
     2     2    15    1
     3     3     1    1
     4     4     1    1
     5     5     1    1
     6     6     1    1
     7     7     1    1
     8     8    13    2
     9     9    15    2
    10    10    18    2
    11    11    16    2
    12    12    17    2
    13    13     3    1
    14    14    19    2
    15    15    16    1
    16    16     6    1
    17    17     5    1
    18    18     4    1
    19    19     7    1
    20    13    17    1
    21    18    19    1
    22    20    21   ar
    23    21    25   ar
    24    22    24    1
    25    23    25   ar
    26    24    20   ar
    27    25    26    1
    28    27    23   ar
    29    28    27    1
    30    29    23    1
    31    30    29    1
    32    31    29    1
    33    32    29    1
    34    33    21    1
    35    34    33    1
    36    35    33    1
    37    36    33    1
    38    37    20    1
    39    38    22    1
    40    39    22    1
    41    24    27   ar
    42    40    42   ar
    43    41    42    1
    44    42    43   ar
    45    43    44    1
    46    45    40   ar
    47    46    45   ar
    48    47    46    1
    49    48    43   ar
    50    49    45    1
    51    50    49    1
    52    51    49    1
    53    52    49    1
    54    53    48    1
    55    54    53    1
    56    55    53    1
    57    56    53    1
    58    57    41    1
    59    58    41    1
    60    59    40    1
    61    46    48   ar
    62    60    62   ar
    63    61    62    1
    64    62    65   ar
    65    63    65   ar
    66    64    60   ar
    67    65    66    1
    68    67    63   ar
    69    68    67    1
    70    69    63    1
    71    70    69    1
    72    71    69    1
    73    72    69    1
    74    73    64    1
    75    74    73    1
    76    75    73    1
    77    76    73    1
    78    77    61    1
    79    78    60    1
    80    79    61    1
    81    64    67   ar
@<TRIPOS>SUBSTRUCTURE
     1 RES1        1 GROUP             0 ****  ****    0  
     2 RES2       20 GROUP             0 ****  ****    0  
     3 RES3       40 GROUP             0 ****  ****    0  
     4 RES4       60 GROUP             0 ****  ****    0  
@<TRIPOS>CRYSIN
   11.2347   11.5166   12.7250   93.7370   92.7570   97.2120     2     1
