@<TRIPOS>MOLECULE
SIRGIK
    89    90     5     0     0
SMALL
NO_CHARGES
****
Generated from the CSD

@<TRIPOS>ATOM
     1 N1       3.0696   4.0663   1.5457   N.3       1 RES1   0.0000
     2 Fe1      2.2236   2.1778   2.2871   Fe        1 RES1   0.0000
     3 O1       3.9538   1.6527   2.7263   O.3       1 RES1   0.0000
     4 O2       2.3811   1.6890   0.3466   O.co2     1 RES1   0.0000
     5 O3       3.0440   2.3561  -1.6655   O.co2     1 RES1   0.0000
     6 O4       0.5544   3.2440   1.8562   O.co2     1 RES1   0.0000
     7 O5      -0.3147   5.2508   1.4325   O.co2     1 RES1   0.0000
     8 O6       1.2563   0.4819   2.6479   O.3       1 RES1   0.0000
     9 H1       0.9741  -0.0921   2.1042   H         1 RES1   0.0000
    10 H2       0.8347   0.3314   3.3363   H         1 RES1   0.0000
    11 O7       1.8761   2.8098   4.1955   O.3       1 RES1   0.0000
    12 H3       1.3327   3.3786   4.3367   H         1 RES1   0.0000
    13 C1       5.1785   2.0844   2.4245   C.ar      1 RES1   0.0000
    14 C2       5.4134   3.4493   2.1897   C.ar      1 RES1   0.0000
    15 C3       6.6988   3.8943   1.9168   C.ar      1 RES1   0.0000
    16 H11      6.8361   4.7936   1.7237   H         1 RES1   0.0000
    17 C4       7.7871   3.0276   1.9243   C.ar      1 RES1   0.0000
    18 C5       7.5285   1.6729   2.1300   C.ar      1 RES1   0.0000
    19 H12      8.2443   1.0762   2.1167   H         1 RES1   0.0000
    20 C6       6.2437   1.1744   2.3542   C.ar      1 RES1   0.0000
    21 C7       9.1977   3.6130   1.7704   C.3       1 RES1   0.0000
    22 C8      10.2825   2.5307   1.7713   C.3       1 RES1   0.0000
    23 H13     10.2365   2.0336   2.5911   H         1 RES1   0.0000
    24 H14     11.1471   2.9432   1.6940   H         1 RES1   0.0000
    25 H15     10.1422   1.9379   1.0302   H         1 RES1   0.0000
    26 C9       9.4575   4.5247   2.9826   C.3       1 RES1   0.0000
    27 H16      8.7924   5.2161   3.0107   H         1 RES1   0.0000
    28 H17     10.3270   4.9206   2.9042   H         1 RES1   0.0000
    29 H18      9.4117   4.0055   3.7888   H         1 RES1   0.0000
    30 C10      9.3015   4.3824   0.4478   C.ar      1 RES1   0.0000
    31 C11      9.1074   3.7045  -0.7540   C.ar      1 RES1   0.0000
    32 H19      8.8666   2.8069  -0.7327   H         1 RES1   0.0000
    33 C12      9.2644   4.3268  -1.9733   C.ar      1 RES1   0.0000
    34 H20      9.1433   3.8435  -2.7586   H         1 RES1   0.0000
    35 C13      9.6019   5.6608  -2.0353   C.ar      1 RES1   0.0000
    36 H21      9.7125   6.0815  -2.8572   H         1 RES1   0.0000
    37 C14      9.7738   6.3586  -0.8684   C.ar      1 RES1   0.0000
    38 H22      9.9908   7.2626  -0.9018   H         1 RES1   0.0000
    39 C15      9.6294   5.7307   0.3654   C.ar      1 RES1   0.0000
    40 H23      9.7561   6.2205   1.1460   H         1 RES1   0.0000
    41 C16      5.9453  -0.3246   2.4737   C.3       1 RES1   0.0000
    42 C17      7.2192  -1.1756   2.5004   C.3       1 RES1   0.0000
    43 H24      7.7219  -1.0219   1.6987   H         1 RES1   0.0000
    44 H25      6.9822  -2.1045   2.5566   H         1 RES1   0.0000
    45 H26      7.7471  -0.9344   3.2643   H         1 RES1   0.0000
    46 C18      5.1496  -0.7422   1.2252   C.3       1 RES1   0.0000
    47 H27      5.6575  -0.5386   0.4384   H         1 RES1   0.0000
    48 H28      4.3162  -0.2633   1.2008   H         1 RES1   0.0000
    49 H29      4.9757  -1.6856   1.2587   H         1 RES1   0.0000
    50 C19      5.1920  -0.6193   3.7750   C.ar      1 RES1   0.0000
    51 C20      4.0326  -1.3684   3.8144   C.ar      1 RES1   0.0000
    52 H30      3.6560  -1.6672   3.0201   H         1 RES1   0.0000
    53 C21      3.4198  -1.6838   5.0261   C.ar      1 RES1   0.0000
    54 H31      2.6418  -2.1947   5.0319   H         1 RES1   0.0000
    55 C22      3.9528  -1.2474   6.2053   C.ar      1 RES1   0.0000
    56 H32      3.5504  -1.4693   7.0123   H         1 RES1   0.0000
    57 C23      5.0931  -0.4769   6.1885   C.ar      1 RES1   0.0000
    58 H33      5.4490  -0.1593   6.9857   H         1 RES1   0.0000
    59 C24      5.7088  -0.1731   4.9830   C.ar      1 RES1   0.0000
    60 H34      6.4819   0.3406   4.9849   H         1 RES1   0.0000
    61 C25      4.2920   4.4424   2.3126   C.3       1 RES1   0.0000
    62 H35      4.0590   4.5349   3.2486   H         1 RES1   0.0000
    63 H36      4.6041   5.3063   2.0008   H         1 RES1   0.0000
    64 C26      3.3508   3.8712   0.1085   C.3       1 RES1   0.0000
    65 H37      4.3076   3.9485  -0.0329   H         1 RES1   0.0000
    66 H38      2.9230   4.5846  -0.3898   H         1 RES1   0.0000
    67 C27      2.8854   2.5428  -0.4545   C.2       1 RES1   0.0000
    68 C28      2.0265   5.0946   1.7602   C.3       1 RES1   0.0000
    69 H39      2.1316   5.8007   1.1038   H         1 RES1   0.0000
    70 H40      2.1395   5.4859   2.6412   H         1 RES1   0.0000
    71 C29      0.6347   4.5099   1.6458   C.2       1 RES1   0.0000
    72 C30      2.4465   2.2794   5.4187   C.3       1 RES1   0.0000
    73 H41      2.8694   1.4269   5.2338   H         1 RES1   0.0000
    74 H42      1.7384   2.1275   6.0652   H         1 RES1   0.0000
    75 C31      3.4380   3.2074   5.9866   C.3       1 RES1   0.0000
    76 H43      3.8010   2.8345   6.7932   H         1 RES1   0.0000
    77 H44      3.0163   4.0470   6.1826   H         1 RES1   0.0000
    78 H45      4.1468   3.3473   5.3528   H         1 RES1   0.0000
    79 O8      -0.2334   9.1371   4.7552   O.3       2 RES2   0.0000
    80 H4      -0.1040   8.4603   5.1806   H         2 RES2   0.0000
    81 H5      -0.4904   9.6847   5.2839   H         2 RES2   0.0000
    82 O9       0.0005   4.5634   4.6478   O.3       3 RES3   0.0000
    83 H6      -0.7096   4.3452   5.0444   H         3 RES3   0.0000
    84 H7       0.0848   5.3027   5.1023   H         3 RES3   0.0000
    85 O10      0.2707   7.9647   0.9406   O.3       4 RES4   0.0000
    86 H8      -0.3527   8.2762   0.5558   H         4 RES4   0.0000
    87 O11     -0.7799   2.0032   6.5212   O.3       5 RES5   0.0000
    88 H9      -1.3046   2.5040   6.1231   H         5 RES5   0.0000
    89 H10     -1.2447   1.8228   7.1940   H         5 RES5   0.0000
@<TRIPOS>BOND
     1     1     2    1
     2     2     3    1
     3     3    13    1
     4     4     2    1
     5     5    67    2
     6     6     2    1
     7     7    71    2
     8     8     2    1
     9     9     8    1
    10    10     8    1
    11    11     2    1
    12    12    11    1
    13    13    14   ar
    14    14    15   ar
    15    15    16    1
    16    17    15   ar
    17    18    17   ar
    18    19    18    1
    19    20    13   ar
    20    21    17    1
    21    22    21    1
    22    23    22    1
    23    24    22    1
    24    25    22    1
    25    26    21    1
    26    27    26    1
    27    28    26    1
    28    29    26    1
    29    30    21    1
    30    31    30   ar
    31    32    31    1
    32    33    31   ar
    33    34    33    1
    34    35    33   ar
    35    36    35    1
    36    37    35   ar
    37    38    37    1
    38    39    30   ar
    39    40    39    1
    40    41    20    1
    41    42    41    1
    42    43    42    1
    43    44    42    1
    44    45    42    1
    45    46    41    1
    46    47    46    1
    47    48    46    1
    48    49    46    1
    49    50    41    1
    50    51    50   ar
    51    52    51    1
    52    53    51   ar
    53    54    53    1
    54    55    53   ar
    55    56    55    1
    56    57    55   ar
    57    58    57    1
    58    59    50   ar
    59    60    59    1
    60    61     1    1
    61    62    61    1
    62    63    61    1
    63    64     1    1
    64    65    64    1
    65    66    64    1
    66    67     4    1
    67    68     1    1
    68    69    68    1
    69    70    68    1
    70    71     6    1
    71    72    11    1
    72    73    72    1
    73    74    72    1
    74    75    72    1
    75    76    75    1
    76    77    75    1
    77    78    75    1
    78    14    61    1
    79    18    20   ar
    80    37    39   ar
    81    57    59   ar
    82    64    67    1
    83    68    71    1
    84    79    80    1
    85    81    79    1
    86    82    83    1
    87    84    82    1
    88    85    86    1
    89    87    88    1
    90    89    87    1
@<TRIPOS>SUBSTRUCTURE
     1 RES1        1 GROUP             0 ****  ****    0  
     2 RES2       79 GROUP             0 ****  ****    0  
     3 RES3       82 GROUP             0 ****  ****    0  
     4 RES4       85 GROUP             0 ****  ****    0  
     5 RES5       87 GROUP             0 ****  ****    0  
@<TRIPOS>CRYSIN
   44.9880    9.2060   16.5520   90.0000  108.9380   90.0000    15     1
