@<TRIPOS>MOLECULE
SISRIY
   137   149     3     0     0
SMALL
USER_CHARGES
****
Generated from the CSD

@<TRIPOS>ATOM
     1 Fe1     -0.5681  12.7001   4.0253   Fe        1 RES1   1.0000
     2 N1      -0.5846  10.9423   4.9889   N.ar      1 RES1   0.0000
     3 O1       2.3886  10.6514  -4.2482   O.3       1 RES1   0.0000
     4 N2       1.1621  12.2094   3.2069   N.2       1 RES1   0.0000
     5 N3      -0.5156  14.4819   3.1014   N.ar      1 RES1   0.0000
     6 O2      -9.2497  10.7748   2.2072   O.3       1 RES1   0.0000
     7 O3       7.9836  13.0107   6.9975   O.3       1 RES1   0.0000
     8 N4      -2.2902  13.1717   4.8560   N.2       1 RES1   0.0000
     9 N5      -1.5160  11.9164   2.4873   N.2       1 RES1   0.0000
    10 O4      -2.3648  17.8885  11.2098   O.3       1 RES1   0.0000
    11 N6       0.3816  13.5159   5.5449   N.2       1 RES1   0.0000
    12 C1       0.6631  12.1497  -1.4508   C.ar      1 RES1   0.0000
    13 H1       0.1982  12.9582  -1.2729   H         1 RES1   0.0000
    14 C2      -1.9870  11.0230   0.4184   C.2       1 RES1   0.0000
    15 H2      -1.8699  10.7104  -0.4711   H         1 RES1   0.0000
    16 N7      -0.2622  19.3844   0.9555   N.1       1 RES1   0.0000
    17 C3       0.8290  11.2196  -0.4366   C.ar      1 RES1   0.0000
    18 C4       2.4039  12.2549   3.8037   C.2       1 RES1   0.0000
    19 C5       6.0031  11.6744   6.5579   C.ar      1 RES1   0.0000
    20 H3       6.4002  10.8872   6.9100   H         1 RES1   0.0000
    21 C6      -2.5094  14.0038   5.9359   C.2       1 RES1   0.0000
    22 C7       4.0969  12.7792   5.5451   C.ar      1 RES1   0.0000
    23 C8       0.3980  11.5465   0.9624   C.2       1 RES1   0.0000
    24 C9      -3.8356  11.9706   3.3372   C.2       1 RES1   0.0000
    25 C10      1.1637  11.9169  -2.7192   C.ar      1 RES1   0.0000
    26 H4       1.0270  12.5555  -3.4104   H         1 RES1   0.0000
    27 C11     -3.5441  12.7162   4.4793   C.2       1 RES1   0.0000
    28 C12     -5.9088  10.6247   3.7765   C.ar      1 RES1   0.0000
    29 H5      -5.4345  10.1432   4.4452   H         1 RES1   0.0000
    30 C13     -2.8650  11.6450   2.3856   C.2       1 RES1   0.0000
    31 C14     -0.4259  17.0011   1.9563   C.ar      1 RES1   0.0000
    32 C15     -1.8862  15.4495   7.8804   C.ar      1 RES1   0.0000
    33 C16     -6.0026  12.3456   2.1300   C.ar      1 RES1   0.0000
    34 H6      -5.5836  13.0474   1.6465   H         1 RES1   0.0000
    35 C17     -2.2489  17.0212  10.1568   C.ar      1 RES1   0.0000
    36 C18     -7.9484  11.0190   2.5615   C.ar      1 RES1   0.0000
    37 C19      0.6552  15.1303   2.9424   C.ar      1 RES1   0.0000
    38 H7       1.4527  14.7070   3.2368   H         1 RES1   0.0000
    39 C20      2.6883  12.7691   5.0678   C.2       1 RES1   0.0000
    40 C21     -3.9152  14.0705   6.2280   C.2       1 RES1   0.0000
    41 H8      -4.3235  14.5862   6.9117   H         1 RES1   0.0000
    42 C22     -7.3242  12.0580   1.8846   C.ar      1 RES1   0.0000
    43 H9      -7.8124  12.5713   1.2514   H         1 RES1   0.0000
    44 C23      1.7202  13.4238   5.8468   C.2       1 RES1   0.0000
    45 C24      4.6978  11.6459   6.0722   C.ar      1 RES1   0.0000
    46 H10      4.2092  10.8329   6.1017   H         1 RES1   0.0000
    47 C25      1.3832  11.8078   1.9009   C.2       1 RES1   0.0000
    48 C26      3.4141  11.8575   2.8647   C.2       1 RES1   0.0000
    49 H11      4.3444  11.7765   3.0384   H         1 RES1   0.0000
    50 C27     -1.6379  16.3488   2.1034   C.ar      1 RES1   0.0000
    51 H12     -2.4489  16.7570   1.8234   H         1 RES1   0.0000
    52 C28      1.8679  10.7503  -2.9819   C.ar      1 RES1   0.0000
    53 C29     -1.5166  14.6004   6.7008   C.2       1 RES1   0.0000
    54 C30      1.4855  10.0299  -0.7290   C.ar      1 RES1   0.0000
    55 H13      1.5747   9.3676  -0.0546   H         1 RES1   0.0000
    56 C31     -1.0330  10.8420   6.2521   C.ar      1 RES1   0.0000
    57 H14     -1.3918  11.6172   6.6687   H         1 RES1   0.0000
    58 C32     -2.1487  15.6601  10.2779   C.ar      1 RES1   0.0000
    59 H15     -2.1923  15.2497  11.1338   H         1 RES1   0.0000
    60 C33     -2.0318  16.8278   7.7746   C.ar      1 RES1   0.0000
    61 H16     -2.0020  17.2385   6.9183   H         1 RES1   0.0000
    62 C34     -7.2447  10.3096   3.5178   C.ar      1 RES1   0.0000
    63 H17     -7.6692   9.6092   3.9989   H         1 RES1   0.0000
    64 C35     -1.6353  15.0882   2.6686   C.ar      1 RES1   0.0000
    65 H18     -2.4628  14.6283   2.7557   H         1 RES1   0.0000
    66 C36     -2.2128  17.6063   8.8954   C.ar      1 RES1   0.0000
    67 H19     -2.3148  18.5462   8.8062   H         1 RES1   0.0000
    68 C37     -0.3644  18.3338   1.3886   C.1       1 RES1   0.0000
    69 C38     -0.0221   8.6196   5.0685   C.ar      1 RES1   0.0000
    70 H20      0.3344   7.8533   4.6370   H         1 RES1   0.0000
    71 C39     -1.9820  14.8833   9.1325   C.ar      1 RES1   0.0000
    72 H21     -1.9330  13.9385   9.2178   H         1 RES1   0.0000
    73 C40      2.7984  11.6209   1.6966   C.2       1 RES1   0.0000
    74 H22      3.2203  11.3738   0.8811   H         1 RES1   0.0000
    75 C41     -3.1552  11.0600   1.1041   C.2       1 RES1   0.0000
    76 H23     -4.0020  10.7576   0.7985   H         1 RES1   0.0000
    77 C42     -0.1023   9.8233   4.4066   C.ar      1 RES1   0.0000
    78 H24      0.1941   9.8683   3.5046   H         1 RES1   0.0000
    79 C43     -5.2608  11.6280   3.0738   C.ar      1 RES1   0.0000
    80 C44      6.1192  14.0019   6.0174   C.ar      1 RES1   0.0000
    81 H25      6.6028  14.8208   6.0058   H         1 RES1   0.0000
    82 C45      0.7425  16.3829   2.3697   C.ar      1 RES1   0.0000
    83 H26      1.5827  16.8113   2.2615   H         1 RES1   0.0000
    84 C46     -4.5422  13.2640   5.3503   C.2       1 RES1   0.0000
    85 H27     -5.4746  13.0895   5.3148   H         1 RES1   0.0000
    86 C47      2.0122   9.7942  -1.9970   C.ar      1 RES1   0.0000
    87 H28      2.4686   8.9807  -2.1821   H         1 RES1   0.0000
    88 C48     -0.9639  11.5381   1.2746   C.2       1 RES1   0.0000
    89 C49      2.0233  14.1799   7.0198   C.2       1 RES1   0.0000
    90 H29      2.8719  14.2606   7.4374   H         1 RES1   0.0000
    91 C50     -0.1569  14.3310   6.5250   C.2       1 RES1   0.0000
    92 C51      6.7097  12.8549   6.5239   C.ar      1 RES1   0.0000
    93 C52      0.8718  14.7566   7.4195   C.2       1 RES1   0.0000
    94 H30      0.7630  15.3408   8.1614   H         1 RES1   0.0000
    95 C53      4.8302  13.9543   5.5280   C.ar      1 RES1   0.0000
    96 H31      4.4366  14.7438   5.1726   H         1 RES1   0.0000
    97 C54     -0.4726   8.5432   6.3777   C.ar      1 RES1   0.0000
    98 C55     -2.3831  17.3312  12.5191   C.3       1 RES1   0.0000
    99 H32     -3.1385  16.7133  12.6001   H         1 RES1   0.0000
   100 H33     -2.4745  18.0490  13.1787   H         1 RES1   0.0000
   101 H34     -1.5470  16.8446  12.6794   H         1 RES1   0.0000
   102 C56     -9.9201   9.7107   2.8731   C.3       1 RES1   0.0000
   103 H35    -10.8311   9.6267   2.5227   H         1 RES1   0.0000
   104 H36     -9.9560   9.8981   3.8352   H         1 RES1   0.0000
   105 H37     -9.4357   8.8722   2.7227   H         1 RES1   0.0000
   106 N8      -0.3259   6.3198   7.6820   N.1       1 RES1   0.0000
   107 C57      3.3507   9.6215  -4.4766   C.3       1 RES1   0.0000
   108 H38      3.6931   9.6932  -5.3908   H         1 RES1   0.0000
   109 H39      2.9275   8.7461  -4.3543   H         1 RES1   0.0000
   110 H40      4.0911   9.7195  -3.8418   H         1 RES1   0.0000
   111 C58     -0.9968   9.6738   6.9679   C.ar      1 RES1   0.0000
   112 H41     -1.3287   9.6442   7.8573   H         1 RES1   0.0000
   113 C59      8.5766  11.9060   7.6639   C.3       1 RES1   0.0000
   114 H42      8.7319  11.1813   7.0208   H         1 RES1   0.0000
   115 H43      7.9766  11.5909   8.3714   H         1 RES1   0.0000
   116 H44      9.4307  12.1809   8.0573   H         1 RES1   0.0000
   117 C60     -0.3998   7.2984   7.1051   C.1       1 RES1   0.0000
   118 S1      -4.5511   9.4811   8.4218   S.o2      2 RES2   0.0000
   119 F1      -4.9603  11.3054  10.2431   F         2 RES2   0.0000
   120 F2      -3.7247  11.9551   8.6037   F         2 RES2   0.0000
   121 F3      -5.8425  11.7719   8.3416   F         2 RES2   0.0000
   122 O5      -3.3183   9.1267   9.0768   O.3       2 RES2  -1.0000
   123 O6      -5.7209   8.8323   8.9462   O.2       2 RES2   0.0000
   124 O7      -4.4999   9.5406   6.9848   O.2       2 RES2   0.0000
   125 C61     -4.7819  11.2256   8.9169   C.3       2 RES2   0.0000
   126 Cl1     -0.5334   9.1378  13.4109   Cl        3 RES3   0.0000
   127 C62      0.3998  11.5839  12.8563   C.ar      3 RES3   0.0000
   128 H45      0.6772  11.6014  13.7655   H         3 RES3   0.0000
   129 C63     -0.2674  10.5090  12.3620   C.ar      3 RES3   0.0000
   130 C64      0.6741  12.6886  11.9917   C.ar      3 RES3   0.0000
   131 H46      1.1194  13.4588  12.3240   H         3 RES3   0.0000
   132 C65      0.2942  12.6290  10.7023   C.ar      3 RES3   0.0000
   133 H47      0.5241  13.3310  10.1039   H         3 RES3   0.0000
   134 C66     -0.7157  10.4688  11.0544   C.ar      3 RES3   0.0000
   135 H48     -1.2073   9.7247  10.7271   H         3 RES3   0.0000
   136 C67     -0.4260  11.5419  10.2493   C.ar      3 RES3   0.0000
   137 H49     -0.7326  11.5367   9.3500   H         3 RES3   0.0000
@<TRIPOS>BOND
     1     1     2    1
     2     2    56   ar
     3     3    52    1
     4     4     1    1
     5     5     1    1
     6     6    36    1
     7     7    92    1
     8     8     1    1
     9     9     1    1
    10    10    35    1
    11    11     1    1
    12    12    13    1
    13    14    15    1
    14    16    68    3
    15    17    12   ar
    16    18     4    1
    17    19    20    1
    18    21     8    1
    19    22    39    1
    20    23    17    1
    21    24    27    1
    22    25    12   ar
    23    26    25    1
    24    27     8    2
    25    28    29    1
    26    30     9    1
    27    31    50   ar
    28    32    53    1
    29    33    34    1
    30    35    58   ar
    31    36    42   ar
    32    37     5   ar
    33    38    37    1
    34    39    18    2
    35    40    21    1
    36    41    40    1
    37    42    33   ar
    38    43    42    1
    39    44    11    1
    40    45    19   ar
    41    46    45    1
    42    47     4    2
    43    48    18    1
    44    49    48    1
    45    50    51    1
    46    52    25   ar
    47    53    21    2
    48    54    17   ar
    49    55    54    1
    50    56    57    1
    51    58    59    1
    52    60    32   ar
    53    61    60    1
    54    62    28   ar
    55    63    62    1
    56    64     5   ar
    57    65    64    1
    58    66    35   ar
    59    67    66    1
    60    68    31    1
    61    69    70    1
    62    71    32   ar
    63    72    71    1
    64    73    47    1
    65    74    73    1
    66    75    14    2
    67    76    75    1
    68    77     2   ar
    69    78    77    1
    70    79    24    1
    71    80    81    1
    72    82    31   ar
    73    83    82    1
    74    84    27    1
    75    85    84    1
    76    86    52   ar
    77    87    86    1
    78    88     9    1
    79    89    44    2
    80    90    89    1
    81    91    11    1
    82    92    19   ar
    83    93    89    1
    84    94    93    1
    85    95    22   ar
    86    96    95    1
    87    97    69   ar
    88    98    10    1
    89    99    98    1
    90   100    98    1
    91   101    98    1
    92   102     6    1
    93   103   102    1
    94   104   102    1
    95   105   102    1
    96   106   117    3
    97   107     3    1
    98   108   107    1
    99   109   107    1
   100   110   107    1
   101   111    56   ar
   102   112   111    1
   103   113     7    1
   104   114   113    1
   105   115   113    1
   106   116   113    1
   107   117    97    1
   108    14    88    1
   109    22    45   ar
   110    23    47    1
   111    23    88    2
   112    24    30    2
   113    28    79   ar
   114    30    75    1
   115    33    79   ar
   116    36    62   ar
   117    37    82   ar
   118    39    44    1
   119    40    84    2
   120    48    73    2
   121    50    64   ar
   122    53    91    1
   123    54    86   ar
   124    58    71   ar
   125    60    66   ar
   126    69    77   ar
   127    80    92   ar
   128    80    95   ar
   129    91    93    2
   130    97   111   ar
   131   118   122    1
   132   119   125    1
   133   120   125    1
   134   121   125    1
   135   123   118    2
   136   124   118    2
   137   125   118    1
   138   126   129    1
   139   127   128    1
   140   129   127   ar
   141   130   127   ar
   142   131   130    1
   143   132   130   ar
   144   133   132    1
   145   134   129   ar
   146   135   134    1
   147   136   132   ar
   148   137   136    1
   149   134   136   ar
@<TRIPOS>SUBSTRUCTURE
     1 RES1        1 GROUP             0 ****  ****    0  
     2 RES2      118 GROUP             0 ****  ****    0  
     3 RES3      126 GROUP             0 ****  ****    0  
@<TRIPOS>CRYSIN
   20.4813   17.5063   24.3618   90.0000  137.2680   90.0000    14     1
