@<TRIPOS>MOLECULE
SISSAO
    77    81     2     0     0
SMALL
NO_CHARGES
****
Generated from the CSD

@<TRIPOS>ATOM
     1 Fe1     -0.3697  -0.1634   6.1507   Fe        1 RES1   0.0000
     2 O1      -0.2004   0.1833   8.1499   O.2       1 RES1   0.0000
     3 O2      -2.2589   0.0498   6.6794   O.3       1 RES1   0.0000
     4 N1      -2.4025   0.4394   8.0019   N.am      1 RES1   0.0000
     5 O3       1.6689   0.1432   5.9881   O.2       1 RES1   0.0000
     6 O4      -0.3035   1.6154   5.3153   O.3       1 RES1   0.0000
     7 N2       0.9661   1.9359   4.8737   N.am      1 RES1   0.0000
     8 O5       0.1212  -2.1398   6.4367   O.2       1 RES1   0.0000
     9 O6      -0.9031  -0.9734   4.4345   O.3       1 RES1   0.0000
    10 N3      -0.9020  -2.3558   4.4830   N.am      1 RES1   0.0000
    11 C1      -3.7507   0.7100   8.4088   C.ar      1 RES1   0.0000
    12 C2      -4.3669  -0.0813   9.3591   C.ar      1 RES1   0.0000
    13 C3      -5.6844   0.1711   9.7082   C.ar      1 RES1   0.0000
    14 C4      -6.4069   1.1931   9.1117   C.ar      1 RES1   0.0000
    15 C5      -5.7634   1.9808   8.1684   C.ar      1 RES1   0.0000
    16 C6      -4.4492   1.7465   7.8100   C.ar      1 RES1   0.0000
    17 C7      -7.8572   1.4297   9.4654   C.3       1 RES1   0.0000
    18 C8      -1.2947   0.4770   8.7233   C.2       1 RES1   0.0000
    19 C9      -1.3174   0.8520  10.1636   C.3       1 RES1   0.0000
    20 C10      1.0247   3.0573   3.9836   C.ar      1 RES1   0.0000
    21 C11      0.2176   3.0512   2.8553   C.ar      1 RES1   0.0000
    22 C12      0.1693   4.1776   2.0508   C.ar      1 RES1   0.0000
    23 C13      0.9182   5.3172   2.3559   C.ar      1 RES1   0.0000
    24 C14      1.7532   5.2760   3.4588   C.ar      1 RES1   0.0000
    25 C15      1.8040   4.1642   4.2865   C.ar      1 RES1   0.0000
    26 C16      0.8132   6.5783   1.5329   C.3       1 RES1   0.0000
    27 C17      1.9531   1.1385   5.2575   C.2       1 RES1   0.0000
    28 C18      3.3520   1.3982   4.8136   C.3       1 RES1   0.0000
    29 C19     -1.6047  -2.9954   3.4172   C.ar      1 RES1   0.0000
    30 C20     -2.5419  -3.9846   3.6807   C.ar      1 RES1   0.0000
    31 C21     -3.2089  -4.5878   2.6265   C.ar      1 RES1   0.0000
    32 C22     -2.9806  -4.2030   1.3109   C.ar      1 RES1   0.0000
    33 C23     -2.0649  -3.1823   1.0774   C.ar      1 RES1   0.0000
    34 C24     -1.3780  -2.5779   2.1132   C.ar      1 RES1   0.0000
    35 C25     -3.7405  -4.8402   0.1711   C.3       1 RES1   0.0000
    36 C26     -0.2938  -2.9105   5.5188   C.2       1 RES1   0.0000
    37 C27     -0.0430  -4.3815   5.5974   C.3       1 RES1   0.0000
    38 H1      -3.9156  -0.7768   9.7798   H         1 RES1   0.0000
    39 H2      -6.0940  -0.3398  10.4041   H         1 RES1   0.0000
    40 H3      -6.2148   2.6823   7.6990   H         1 RES1   0.0000
    41 H4      -4.0459   2.3060   7.1673   H         1 RES1   0.0000
    42 H5      -8.4251   1.0195   8.8088   H         1 RES1   0.0000
    43 H6      -8.1471   0.9467  10.3579   H         1 RES1   0.0000
    44 H7      -8.0329   2.2818   9.6411   H         1 RES1   0.0000
    45 H8      -2.0897   1.3229  10.4272   H         1 RES1   0.0000
    46 H9      -0.5699   1.4200  10.3347   H         1 RES1   0.0000
    47 H10     -1.2145  -0.0121  10.7047   H         1 RES1   0.0000
    48 H11     -0.3052   2.2575   2.6588   H         1 RES1   0.0000
    49 H12     -0.4327   4.1630   1.2485   H         1 RES1   0.0000
    50 H13      2.3174   6.0564   3.6992   H         1 RES1   0.0000
    51 H14      2.3386   4.1630   5.1096   H         1 RES1   0.0000
    52 H15     -0.1131   6.7967   1.2947   H         1 RES1   0.0000
    53 H16      1.2448   7.3065   1.9421   H         1 RES1   0.0000
    54 H17      1.3149   6.4569   0.6011   H         1 RES1   0.0000
    55 H18      3.5737   2.2089   4.7628   H         1 RES1   0.0000
    56 H19      3.5355   0.8496   4.2079   H         1 RES1   0.0000
    57 H20      3.9592   0.9588   5.4795   H         1 RES1   0.0000
    58 H21     -2.7294  -4.2237   4.6009   H         1 RES1   0.0000
    59 H22     -3.8607  -5.2675   2.8207   H         1 RES1   0.0000
    60 H23     -1.9016  -2.8886   0.1850   H         1 RES1   0.0000
    61 H24     -0.7708  -1.8691   1.9190   H         1 RES1   0.0000
    62 H25     -4.6419  -4.3936   0.0231   H         1 RES1   0.0000
    63 H26     -3.9627  -5.7408   0.3699   H         1 RES1   0.0000
    64 H27     -3.2666  -4.8427  -0.6242   H         1 RES1   0.0000
    65 H28     -0.1962  -4.8427   4.7859   H         1 RES1   0.0000
    66 H29     -0.6951  -4.7941   6.2887   H         1 RES1   0.0000
    67 H30      0.8377  -4.4907   5.9419   H         1 RES1   0.0000
    68 C28     -2.6115   3.4590  14.7715   C.3       2 RES2   0.0000
    69 C29     -2.2176   3.3061  13.3404   C.2       2 RES2   0.0000
    70 C30     -0.8890   3.8499  12.9404   C.3       2 RES2   0.0000
    71 O7      -2.9358   2.7478  12.5497   O.2       2 RES2   0.0000
    72 H31     -2.5579   4.4421  15.1437   H         2 RES2   0.0000
    73 H32     -2.0453   3.0464  15.3287   H         2 RES2   0.0000
    74 H33     -3.5277   3.1435  14.9588   H         2 RES2   0.0000
    75 H34     -0.2323   3.4590  13.4097   H         2 RES2   0.0000
    76 H35     -0.6738   3.7503  11.9763   H         2 RES2   0.0000
    77 H36     -0.8254   4.7334  13.1554   H         2 RES2   0.0000
@<TRIPOS>BOND
     1     1     2    1
     2     2    18    2
     3     3     1    1
     4     4     3    1
     5     5     1    1
     6     6     1    1
     7     7     6    1
     8     8     1    1
     9     9     1    1
    10    10     9    1
    11    11     4    1
    12    12    11   ar
    13    13    12   ar
    14    14    13   ar
    15    15    14   ar
    16    16    11   ar
    17    17    14    1
    18    18     4   am
    19    19    18    1
    20    20     7    1
    21    21    20   ar
    22    22    21   ar
    23    23    22   ar
    24    24    23   ar
    25    25    20   ar
    26    26    23    1
    27    27     5    2
    28    28    27    1
    29    29    10    1
    30    30    29   ar
    31    31    30   ar
    32    32    31   ar
    33    33    32   ar
    34    34    29   ar
    35    35    32    1
    36    36     8    2
    37    37    36    1
    38    38    12    1
    39    39    13    1
    40    40    15    1
    41    41    16    1
    42    42    17    1
    43    43    17    1
    44    44    17    1
    45    45    19    1
    46    46    19    1
    47    47    19    1
    48    48    21    1
    49    49    22    1
    50    50    24    1
    51    51    25    1
    52    52    26    1
    53    53    26    1
    54    54    26    1
    55    55    28    1
    56    56    28    1
    57    57    28    1
    58    58    30    1
    59    59    31    1
    60    60    33    1
    61    61    34    1
    62    62    35    1
    63    63    35    1
    64    64    35    1
    65    65    37    1
    66    66    37    1
    67    67    37    1
    68     7    27   am
    69    10    36   am
    70    15    16   ar
    71    24    25   ar
    72    33    34   ar
    73    68    69    1
    74    69    70    1
    75    70    75    1
    76    71    69    2
    77    72    68    1
    78    73    68    1
    79    74    68    1
    80    76    70    1
    81    77    70    1
@<TRIPOS>SUBSTRUCTURE
     1 RES1        1 GROUP             0 ****  ****    0  
     2 RES2       68 GROUP             0 ****  ****    0  
@<TRIPOS>CRYSIN
   10.6350   12.1370   23.6670   90.0000  102.3400   90.0000    14     2
