@<TRIPOS>MOLECULE
SISSES
    80    83     3     0     0
SMALL
NO_CHARGES
****
Generated from the CSD

@<TRIPOS>ATOM
     1 Fe1     -0.4472   4.7662   4.7472   Fe        1 RES1   0.0000
     2 O1      -1.4437   3.5622   6.0659   O.2       1 RES1   0.0000
     3 O2      -1.1722   3.6343   3.2073   O.2       1 RES1   0.0000
     4 O3       1.1946   3.5481   4.7943   O.2       1 RES1   0.0000
     5 O4      -0.1238   5.7028   6.4592   O.3       1 RES1   0.0000
     6 O5      -1.9616   5.8768   4.1348   O.3       1 RES1   0.0000
     7 O6       0.9111   5.8842   3.8065   O.3       1 RES1   0.0000
     8 N1      -0.6484   5.0313   7.5425   N.am      1 RES1   0.0000
     9 N2      -2.6403   5.3063   3.0840   N.am      1 RES1   0.0000
    10 N3       2.1651   5.3137   3.8260   N.am      1 RES1   0.0000
    11 C1      -2.0405   3.1733   8.3439   C.ar      1 RES1   0.0000
    12 C2      -2.7516   3.8028   9.3697   C.ar      1 RES1   0.0000
    13 C3      -3.4554   3.0441  10.2935   C.ar      1 RES1   0.0000
    14 C4      -3.4715   1.6576  10.2193   C.ar      1 RES1   0.0000
    15 C5      -2.7615   1.0410   9.1916   C.ar      1 RES1   0.0000
    16 C6      -2.0651   1.7868   8.2530   C.ar      1 RES1   0.0000
    17 C7      -4.2788   0.8486  11.2034   C.3       1 RES1   0.0000
    18 C8      -1.3412   3.9434   7.2809   C.2       1 RES1   0.0000
    19 C9      -0.1364   5.5079   8.8225   C.3       1 RES1   0.0000
    20 C10     -2.8020   3.5048   1.4497   C.ar      1 RES1   0.0000
    21 C11     -4.0365   2.8652   1.5267   C.ar      1 RES1   0.0000
    22 C12     -4.5297   2.1765   0.4369   C.ar      1 RES1   0.0000
    23 C13     -3.8275   2.1109  -0.7587   C.ar      1 RES1   0.0000
    24 C14     -2.6063   2.7793  -0.8310   C.ar      1 RES1   0.0000
    25 C15     -2.0964   3.4591   0.2560   C.ar      1 RES1   0.0000
    26 C16     -4.3455   1.3212  -1.9329   C.3       1 RES1   0.0000
    27 C17     -2.1815   4.1649   2.6332   C.2       1 RES1   0.0000
    28 C18     -3.6832   6.1365   2.4996   C.3       1 RES1   0.0000
    29 C19      3.5572   3.4032   4.4947   C.ar      1 RES1   0.0000
    30 C20      4.7139   4.0155   4.9891   C.ar      1 RES1   0.0000
    31 C21      5.8782   3.2759   5.1514   C.ar      1 RES1   0.0000
    32 C22      5.9201   1.9255   4.8221   C.ar      1 RES1   0.0000
    33 C23      4.7566   1.3258   4.3528   C.ar      1 RES1   0.0000
    34 C24      3.5859   2.0452   4.2007   C.ar      1 RES1   0.0000
    35 C25      7.1997   1.1352   4.9223   C.3       1 RES1   0.0000
    36 C26      2.2564   4.1140   4.3649   C.2       1 RES1   0.0000
    37 C27      3.1687   6.0659   3.0923   C.3       1 RES1   0.0000
    38 H1      -2.7214   4.7692   9.3864   H         1 RES1   0.0000
    39 H2      -4.0106   3.4526  10.9817   H         1 RES1   0.0000
    40 H3      -2.7625   0.0829   9.1360   H         1 RES1   0.0000
    41 H4      -1.6094   1.3504   7.5314   H         1 RES1   0.0000
    42 H5      -3.9664   0.0921  11.2878   H         1 RES1   0.0000
    43 H6      -4.4555   1.4424  12.1504   H         1 RES1   0.0000
    44 H7      -5.2033   0.9514  11.0003   H         1 RES1   0.0000
    45 H8       0.8809   5.5549   8.7928   H         1 RES1   0.0000
    46 H9      -0.4262   4.8490   9.5812   H         1 RES1   0.0000
    47 H10     -0.4652   6.4173   8.9783   H         1 RES1   0.0000
    48 H11     -4.5469   2.8480   2.3373   H         1 RES1   0.0000
    49 H12     -5.3082   1.7677   0.5565   H         1 RES1   0.0000
    50 H13     -2.0700   2.6762  -1.6046   H         1 RES1   0.0000
    51 H14     -1.2958   3.8393   0.2133   H         1 RES1   0.0000
    52 H15     -5.0031   0.6138  -1.6602   H         1 RES1   0.0000
    53 H16     -3.6751   0.9207  -2.3651   H         1 RES1   0.0000
    54 H17     -4.8339   1.9365  -2.6156   H         1 RES1   0.0000
    55 H18     -4.2438   5.6316   2.0312   H         1 RES1   0.0000
    56 H19     -4.0957   6.6781   3.2277   H         1 RES1   0.0000
    57 H20     -3.2470   6.7641   1.8086   H         1 RES1   0.0000
    58 H21      4.7291   4.9841   5.2126   H         1 RES1   0.0000
    59 H22      6.6546   3.6920   5.4909   H         1 RES1   0.0000
    60 H23      4.7087   0.4205   4.1645   H         1 RES1   0.0000
    61 H24      2.8266   1.6419   3.8863   H         1 RES1   0.0000
    62 H25      7.9186   1.7493   5.1941   H         1 RES1   0.0000
    63 H26      7.2945   0.5217   4.2202   H         1 RES1   0.0000
    64 H27      7.3047   0.7979   5.8619   H         1 RES1   0.0000
    65 H28      3.9913   5.4935   2.9773   H         1 RES1   0.0000
    66 H29      3.3852   6.9513   3.5895   H         1 RES1   0.0000
    67 H30      2.8273   6.2915   2.2446   H         1 RES1   0.0000
    68 O7      -3.1550   7.2453   8.8688   O.2       2 RES2   0.0000
    69 C28     -2.2925   8.4425   7.0259   C.3       2 RES2   0.0000
    70 C29     -3.1469   7.4009   7.6622   C.2       2 RES2   0.0000
    71 C30     -3.9777   6.5726   6.7551   C.3       2 RES2   0.0000
    72 H31     -1.6053   7.8873   6.4369   H         2 RES2   0.0000
    73 H32     -1.7321   8.8387   7.7633   H         2 RES2   0.0000
    74 H33     -2.7732   8.9308   6.5111   H         2 RES2   0.0000
    75 H34     -3.3770   6.1718   6.0937   H         2 RES2   0.0000
    76 H35     -4.5782   7.1692   6.2514   H         2 RES2   0.0000
    77 H36     -4.4513   5.9539   7.2624   H         2 RES2   0.0000
    78 O8      -0.4686   6.6600   1.3263   O.3       3 RES3   0.0000
    79 H37      0.2318   7.1508   0.7513   H         3 RES3   0.0000
    80 H38     -0.1100   6.4142   2.1147   H         3 RES3   0.0000
@<TRIPOS>BOND
     1     1     2    1
     2     2    18    2
     3     3     1    1
     4     4     1    1
     5     5     1    1
     6     6     1    1
     7     7     1    1
     8     8     5    1
     9     9     6    1
    10    10     7    1
    11    11    12   ar
    12    12    13   ar
    13    13    14   ar
    14    14    15   ar
    15    15    16   ar
    16    16    11   ar
    17    17    14    1
    18    18     8   am
    19    19     8    1
    20    20    21   ar
    21    21    22   ar
    22    22    23   ar
    23    23    24   ar
    24    24    25   ar
    25    25    20   ar
    26    26    23    1
    27    27     3    2
    28    28     9    1
    29    29    30   ar
    30    30    31   ar
    31    31    32   ar
    32    32    33   ar
    33    33    34   ar
    34    34    29   ar
    35    35    32    1
    36    36     4    2
    37    37    10    1
    38    38    12    1
    39    39    13    1
    40    40    15    1
    41    41    16    1
    42    42    17    1
    43    43    17    1
    44    44    17    1
    45    45    19    1
    46    46    19    1
    47    47    19    1
    48    48    21    1
    49    49    22    1
    50    50    24    1
    51    51    25    1
    52    52    26    1
    53    53    26    1
    54    54    26    1
    55    55    28    1
    56    56    28    1
    57    57    28    1
    58    58    30    1
    59    59    31    1
    60    60    33    1
    61    61    34    1
    62    62    35    1
    63    63    35    1
    64    64    35    1
    65    65    37    1
    66    66    37    1
    67    67    37    1
    68     9    27   am
    69    10    36   am
    70    11    18    1
    71    20    27    1
    72    29    36    1
    73    68    70    2
    74    69    70    1
    75    70    71    1
    76    71    75    1
    77    72    69    1
    78    73    69    1
    79    74    69    1
    80    76    71    1
    81    77    71    1
    82    78    79    1
    83    80    78    1
@<TRIPOS>SUBSTRUCTURE
     1 RES1        1 GROUP             0 ****  ****    0  
     2 RES2       68 GROUP             0 ****  ****    0  
     3 RES3       78 GROUP             0 ****  ****    0  
@<TRIPOS>CRYSIN
   10.8520   30.6900   10.4940   90.0000  117.8900   90.0000    14     2
