@<TRIPOS>MOLECULE
SISZUS
    88    94     2     0     0
SMALL
USER_CHARGES
****
Generated from the CSD

@<TRIPOS>ATOM
     1 Fe1      5.5678  10.1883   9.3995   Fe        1 RES1   1.0000
     2 O1       6.2192   9.0235   8.0955   O.3       1 RES1   0.0000
     3 N1       3.2883   6.6566   4.0484   N.2       1 RES1   0.0000
     4 N2       3.9041   6.4229   2.9700   N.2       1 RES1   0.0000
     5 N3       4.7916  11.4108  10.8320   N.3       1 RES1   0.0000
     6 H1       5.0333  11.0278  11.7241   H         1 RES1   0.0000
     7 N4       3.8028   9.4150   9.3720   N.2       1 RES1   0.0000
     8 C1       4.0701   8.3538   7.2289   C.ar      1 RES1   0.0000
     9 C2       5.4709   8.5320   7.1380   C.ar      1 RES1   0.0000
    10 C3       6.1279   8.1453   5.9476   C.ar      1 RES1   0.0000
    11 H2       7.0633   8.2892   5.8643   H         1 RES1   0.0000
    12 C4       4.0556   7.3398   5.0177   C.ar      1 RES1   0.0000
    13 C5       3.3986   7.7341   6.1611   C.ar      1 RES1   0.0000
    14 H3       2.4632   7.5821   6.2308   H         1 RES1   0.0000
    15 C6       3.3073  11.3224  10.6866   C.3       1 RES1   0.0000
    16 H4       3.0077  11.8612   9.9127   H         1 RES1   0.0000
    17 H5       2.8630  11.6676  11.5014   H         1 RES1   0.0000
    18 C7       3.1993   5.5821   2.0628   C.ar      1 RES1   0.0000
    19 C8       1.5891   3.9009   1.5115   C.ar      1 RES1   0.0000
    20 H6       0.8519   3.3540   1.7569   H         1 RES1   0.0000
    21 C9       3.7360   5.4882   0.7815   C.ar      1 RES1   0.0000
    22 H7       4.4776   6.0294   0.5346   H         1 RES1   0.0000
    23 C10      3.3062   8.7615   8.3845   C.2       1 RES1   0.0000
    24 H8       2.3841   8.5337   8.4163   H         1 RES1   0.0000
    25 C11      2.9554   9.8647  10.4776   C.3       1 RES1   0.0000
    26 H9       3.1391   9.3385  11.2954   H         1 RES1   0.0000
    27 H10      1.9977   9.7665  10.2443   H         1 RES1   0.0000
    28 C12      4.8796  13.6066  12.0406   C.3       1 RES1   0.0000
    29 H11      3.9019  13.6523  12.0981   H         1 RES1   0.0000
    30 H12      5.2460  14.5142  11.9861   H         1 RES1   0.0000
    31 H13      5.2337  13.1571  12.8357   H         1 RES1   0.0000
    32 C13      5.4397   7.5664   4.9056   C.ar      1 RES1   0.0000
    33 H14      5.8996   7.3192   4.1120   H         1 RES1   0.0000
    34 C14      2.1314   3.7976   0.2332   C.ar      1 RES1   0.0000
    35 H15      1.7739   3.1726  -0.3862   H         1 RES1   0.0000
    36 C15      2.1135   4.7893   2.4217   C.ar      1 RES1   0.0000
    37 H16      1.7360   4.8618   3.2896   H         1 RES1   0.0000
    38 C16      5.2772  12.8260  10.8002   C.3       1 RES1   0.0000
    39 H17      4.9052  13.2773  10.0005   H         1 RES1   0.0000
    40 H18      6.2638  12.8270  10.7169   H         1 RES1   0.0000
    41 C17      3.1848   4.6031  -0.1333   C.ar      1 RES1   0.0000
    42 H19      3.5367   4.5521  -1.0147   H         1 RES1   0.0000
    43 O1A      4.9164  11.3530   8.0955   O.3       1 RES1   0.0000
    44 N1A      7.8473  13.7199   4.0484   N.2       1 RES1   0.0000
    45 N2A      7.2315  13.9536   2.9700   N.2       1 RES1   0.0000
    46 N3A      6.3440   8.9657  10.8320   N.3       1 RES1   0.0000
    47 H1A      6.1023   9.3487  11.7241   H         1 RES1   0.0000
    48 N4A      7.3328  10.9615   9.3720   N.2       1 RES1   0.0000
    49 C1A      7.0655  12.0227   7.2289   C.ar      1 RES1   0.0000
    50 C2A      5.6647  11.8445   7.1380   C.ar      1 RES1   0.0000
    51 C3A      5.0077  12.2312   5.9476   C.ar      1 RES1   0.0000
    52 H2A      4.0723  12.0873   5.8643   H         1 RES1   0.0000
    53 C4A      7.0800  13.0367   5.0177   C.ar      1 RES1   0.0000
    54 C5A      7.7370  12.6424   6.1611   C.ar      1 RES1   0.0000
    55 H3A      8.6724  12.7944   6.2308   H         1 RES1   0.0000
    56 C6A      7.8283   9.0541  10.6866   C.3       1 RES1   0.0000
    57 H4A      8.1279   8.5153   9.9127   H         1 RES1   0.0000
    58 H5A      8.2726   8.7089  11.5014   H         1 RES1   0.0000
    59 C7A      7.9363  14.7944   2.0628   C.ar      1 RES1   0.0000
    60 C8A      9.5465  16.4756   1.5115   C.ar      1 RES1   0.0000
    61 H6A     10.2837  17.0225   1.7569   H         1 RES1   0.0000
    62 C9A      7.3996  14.8883   0.7815   C.ar      1 RES1   0.0000
    63 H7A      6.6580  14.3471   0.5346   H         1 RES1   0.0000
    64 C10A     7.8294  11.6150   8.3845   C.2       1 RES1   0.0000
    65 H8A      8.7515  11.8428   8.4163   H         1 RES1   0.0000
    66 C11A     8.1802  10.5118  10.4776   C.3       1 RES1   0.0000
    67 H9A      7.9965  11.0380  11.2954   H         1 RES1   0.0000
    68 H10A     9.1379  10.6100  10.2443   H         1 RES1   0.0000
    69 C12A     6.2560   6.7699  12.0406   C.3       1 RES1   0.0000
    70 H11A     7.2337   6.7242  12.0981   H         1 RES1   0.0000
    71 H12A     5.8896   5.8623  11.9861   H         1 RES1   0.0000
    72 H13A     5.9019   7.2194  12.8357   H         1 RES1   0.0000
    73 C13A     5.6959  12.8101   4.9056   C.ar      1 RES1   0.0000
    74 H14A     5.2360  13.0573   4.1120   H         1 RES1   0.0000
    75 C14A     9.0042  16.5789   0.2332   C.ar      1 RES1   0.0000
    76 H15A     9.3617  17.2039  -0.3862   H         1 RES1   0.0000
    77 C15A     9.0221  15.5872   2.4217   C.ar      1 RES1   0.0000
    78 H16A     9.3996  15.5147   3.2896   H         1 RES1   0.0000
    79 C16A     5.8584   7.5505  10.8002   C.3       1 RES1   0.0000
    80 H17A     6.2304   7.0992  10.0005   H         1 RES1   0.0000
    81 H18A     4.8718   7.5495  10.7169   H         1 RES1   0.0000
    82 C17A     7.9508  15.7734  -0.1333   C.ar      1 RES1   0.0000
    83 H19A     7.5989  15.8244  -1.0147   H         1 RES1   0.0000
    84 Cl1      5.5678  10.1883  14.4504   Cl        2 RES2   0.0000
    85 O2       5.6090  11.3517  15.2544   O.2       2 RES2   0.0000
    86 O3       4.4019  10.2046  13.6187   O.3       2 RES2  -1.0000
    87 O2A      5.5266   9.0248  15.2544   O.2       2 RES2   0.0000
    88 O3A      6.7337  10.1719  13.6187   O.2       2 RES2   0.0000
@<TRIPOS>BOND
     1     1     2    1
     2     2     9    1
     3     3     4    2
     4     4    18    1
     5     5     1    1
     6     6     5    1
     7     7     1    1
     8     8     9   ar
     9     9    10   ar
    10    10    11    1
    11    12     3    1
    12    13     8   ar
    13    14    13    1
    14    15     5    1
    15    16    15    1
    16    17    15    1
    17    18    21   ar
    18    19    20    1
    19    21    22    1
    20    23     7    2
    21    24    23    1
    22    25     7    1
    23    26    25    1
    24    27    25    1
    25    28    29    1
    26    30    28    1
    27    31    28    1
    28    32    10   ar
    29    33    32    1
    30    34    19   ar
    31    35    34    1
    32    36    18   ar
    33    37    36    1
    34    38     5    1
    35    39    38    1
    36    40    38    1
    37    41    21   ar
    38    42    41    1
    39    43     1    1
    40    44    45    2
    41    45    59    1
    42    46     1    1
    43    47    46    1
    44    48     1    1
    45    49    50   ar
    46    50    43    1
    47    51    50   ar
    48    52    51    1
    49    53    44    1
    50    54    49   ar
    51    55    54    1
    52    56    46    1
    53    57    56    1
    54    58    56    1
    55    59    62   ar
    56    60    61    1
    57    62    63    1
    58    64    48    2
    59    65    64    1
    60    66    48    1
    61    67    66    1
    62    68    66    1
    63    69    70    1
    64    71    69    1
    65    72    69    1
    66    73    51   ar
    67    74    73    1
    68    75    60   ar
    69    76    75    1
    70    77    59   ar
    71    78    77    1
    72    79    46    1
    73    80    79    1
    74    81    79    1
    75    82    62   ar
    76    83    82    1
    77     8    23    1
    78    12    13   ar
    79    12    32   ar
    80    15    25    1
    81    19    36   ar
    82    28    38    1
    83    34    41   ar
    84    49    64    1
    85    53    54   ar
    86    53    73   ar
    87    56    66    1
    88    60    77   ar
    89    69    79    1
    90    75    82   ar
    91    84    85    2
    92    86    84    1
    93    87    84    2
    94    88    84    2
@<TRIPOS>SUBSTRUCTURE
     1 RES1        1 GROUP             0 ****  ****    0  
     2 RES2       84 GROUP             0 ****  ****    0  
@<TRIPOS>CRYSIN
   11.1356   20.3765   15.1454   90.0000   90.0000   90.0000    41     1
