@<TRIPOS>MOLECULE
SISZOM
    87    93     2     0     0
SMALL
USER_CHARGES
****
Generated from the CSD

@<TRIPOS>ATOM
     1 Fe1      5.9542   9.1745   3.3147   Fe        1 RES1   1.0000
     2 O1       6.9849   8.5587   4.7627   O.3       1 RES1   0.0000
     3 O2       4.5239   9.7144   4.3990   O.3       1 RES1   0.0000
     4 N1       5.3127   7.3661   3.1417   N.2       1 RES1   0.0000
     5 N2       6.6066  10.9821   3.4625   N.2       1 RES1   0.0000
     6 N3       7.4452   8.5329   2.0840   N.3       1 RES1   0.0000
     7 H1       7.1453   8.7187   1.1486   H         1 RES1   0.0000
     8 N4       0.7324   6.5526   6.9543   N.2       1 RES1   0.0000
     9 N5       4.9363   9.8953   1.7161   N.3       1 RES1   0.0000
    10 H2       5.5095   9.7390   0.9124   H         1 RES1   0.0000
    11 N6       9.3655  11.5716   8.7833   N.2       1 RES1   0.0000
    12 N7       9.9125  10.9255   9.7155   N.2       1 RES1   0.0000
    13 C1       7.5544   9.3119   5.6740   C.ar      1 RES1   0.0000
    14 N8      -0.0862   7.1606   7.7183   N.2       1 RES1   0.0000
    15 C2       3.4884   7.5470   4.7177   C.ar      1 RES1   0.0000
    16 C3       4.3302   6.8443   3.7792   C.2       1 RES1   0.0000
    17 H3       4.1418   5.9273   3.6224   H         1 RES1   0.0000
    18 C4       7.6830  10.7261   5.6019   C.ar      1 RES1   0.0000
    19 C5       2.4923   6.8233   5.3908   C.ar      1 RES1   0.0000
    20 H4       2.3905   5.8990   5.1953   H         1 RES1   0.0000
    21 C6       3.6304   8.9279   4.9780   C.ar      1 RES1   0.0000
    22 C7       7.2364  11.4818   4.4638   C.2       1 RES1   0.0000
    23 H5       7.4194  12.4134   4.4512   H         1 RES1   0.0000
    24 C8       8.1124   8.6658   6.8080   C.ar      1 RES1   0.0000
    25 H6       8.0846   7.7181   6.8561   H         1 RES1   0.0000
    26 C9       8.3070  11.4104   6.6533   C.ar      1 RES1   0.0000
    27 H7       8.4046  12.3531   6.5916   H         1 RES1   0.0000
    28 C10      1.6629   7.3944   6.3199   C.ar      1 RES1   0.0000
    29 C11     -1.0114   6.2978   8.3725   C.ar      1 RES1   0.0000
    30 C12     10.4843  11.7353  10.7377   C.ar      1 RES1   0.0000
    31 C13      1.8133   8.7741   6.6052   C.ar      1 RES1   0.0000
    32 H8       1.2610   9.1864   7.2595   H         1 RES1   0.0000
    33 C14      2.7512   9.5101   5.9395   C.ar      1 RES1   0.0000
    34 H9       2.8214  10.4393   6.1213   H         1 RES1   0.0000
    35 C15     -0.9854   4.9009   8.2994   C.ar      1 RES1   0.0000
    36 H10     -0.3405   4.4590   7.7591   H         1 RES1   0.0000
    37 C16      6.0863   6.5476   2.1948   C.3       1 RES1   0.0000
    38 H11      5.7135   6.6301   1.2813   H         1 RES1   0.0000
    39 H12      6.0598   5.5938   2.4613   H         1 RES1   0.0000
    40 C17      8.7858  10.7642   7.7747   C.ar      1 RES1   0.0000
    41 C18     -1.9079   4.1772   9.0216   C.ar      1 RES1   0.0000
    42 H13     -1.8870   3.2283   8.9819   H         1 RES1   0.0000
    43 C19      6.2030  11.8436   2.3338   C.3       1 RES1   0.0000
    44 H14      6.8482  11.7624   1.5876   H         1 RES1   0.0000
    45 H15      6.1665  12.7913   2.6181   H         1 RES1   0.0000
    46 C20     11.0496  11.0485  11.7859   C.ar      1 RES1   0.0000
    47 H16     11.0443  10.0984  11.7797   H         1 RES1   0.0000
    48 C21      7.4958   7.0596   2.2314   C.3       1 RES1   0.0000
    49 H17      7.9254   6.8172   3.0894   H         1 RES1   0.0000
    50 H18      8.0234   6.6609   1.4935   H         1 RES1   0.0000
    51 C22     -1.9678   6.9353   9.1543   C.ar      1 RES1   0.0000
    52 H19     -1.9896   7.8842   9.2055   H         1 RES1   0.0000
    53 C23      4.8443  11.3747   1.9053   C.3       1 RES1   0.0000
    54 H20      4.1702  11.5925   2.5972   H         1 RES1   0.0000
    55 H21      4.5799  11.8141   1.0587   H         1 RES1   0.0000
    56 C24     10.4805  13.1187  10.7366   C.ar      1 RES1   0.0000
    57 H22     10.0911  13.5950  10.0113   H         1 RES1   0.0000
    58 C25      3.6075   9.2910   1.4256   C.3       1 RES1   0.0000
    59 H23      2.9807   9.5347   2.1519   H         1 RES1   0.0000
    60 H24      3.6983   8.3052   1.4266   H         1 RES1   0.0000
    61 C26     11.0476  13.8079  11.7964   C.ar      1 RES1   0.0000
    62 H25     11.0449  14.7580  11.8037   H         1 RES1   0.0000
    63 C27      8.7669   9.1704   2.2408   C.3       1 RES1   0.0000
    64 H26      9.1184   8.9587   3.1417   H         1 RES1   0.0000
    65 H27      8.6566  10.1525   2.1843   H         1 RES1   0.0000
    66 C28     11.6283  11.7255  12.8541   C.ar      1 RES1   0.0000
    67 H28     12.0227  11.2479  13.5742   H         1 RES1   0.0000
    68 C29     -2.8630   4.8012   9.8033   C.ar      1 RES1   0.0000
    69 H29     -3.4930   4.2880  10.2945   H         1 RES1   0.0000
    70 C30      9.7887   8.7347   1.2029   C.3       1 RES1   0.0000
    71 H30     10.0086   7.7895   1.3399   H         1 RES1   0.0000
    72 H31     10.5998   9.2762   1.2949   H         1 RES1   0.0000
    73 H32      9.4140   8.8553   0.3062   H         1 RES1   0.0000
    74 C31     -2.8895   6.1723   9.8587   C.ar      1 RES1   0.0000
    75 H33     -3.5492   6.6067  10.3876   H         1 RES1   0.0000
    76 C32      3.0117   9.7205   0.1056   C.3       1 RES1   0.0000
    77 H34      2.7728  10.6707   0.1484   H         1 RES1   0.0000
    78 H35      2.2079   9.1901  -0.0784   H         1 RES1   0.0000
    79 H36      3.6666   9.5802  -0.6093   H         1 RES1   0.0000
    80 C33      8.6868   9.3587   7.8301   C.ar      1 RES1   0.0000
    81 H37      9.0242   8.8922   8.5858   H         1 RES1   0.0000
    82 C34     11.6194  13.1076  12.8457   C.ar      1 RES1   0.0000
    83 H38     12.0090  13.5839  13.5700   H         1 RES1   0.0000
    84 O3       5.1385   9.2885   8.0527   O.2       2 RES2   0.0000
    85 O4       4.3442   8.2609   9.7741   O.2       2 RES2   0.0000
    86 N9       4.7815   9.2836   9.2097   N.pl3     2 RES2   0.0000
    87 O5       4.8338  10.3224   9.9068   O.3       2 RES2  -1.0000
@<TRIPOS>BOND
     1     1     2    1
     2     2    13    1
     3     3     1    1
     4     4     1    1
     5     5     1    1
     6     6     1    1
     7     7     6    1
     8     8    14    2
     9     9     1    1
    10    10     9    1
    11    11    12    2
    12    12    30    1
    13    13    18   ar
    14    14    29    1
    15    15    16    1
    16    16     4    2
    17    17    16    1
    18    18    22    1
    19    19    15   ar
    20    20    19    1
    21    21     3    1
    22    22     5    2
    23    23    22    1
    24    24    13   ar
    25    25    24    1
    26    26    18   ar
    27    27    26    1
    28    28     8    1
    29    29    35   ar
    30    30    46   ar
    31    31    28   ar
    32    32    31    1
    33    33    21   ar
    34    34    33    1
    35    35    36    1
    36    37     4    1
    37    38    37    1
    38    39    37    1
    39    40    11    1
    40    41    35   ar
    41    42    41    1
    42    43     5    1
    43    44    43    1
    44    45    43    1
    45    46    47    1
    46    48     6    1
    47    49    48    1
    48    50    48    1
    49    51    29   ar
    50    52    51    1
    51    53     9    1
    52    54    53    1
    53    55    53    1
    54    56    30   ar
    55    57    56    1
    56    58     9    1
    57    59    58    1
    58    60    58    1
    59    61    56   ar
    60    62    61    1
    61    63     6    1
    62    64    63    1
    63    65    63    1
    64    66    46   ar
    65    67    66    1
    66    68    41   ar
    67    69    68    1
    68    70    63    1
    69    71    70    1
    70    72    70    1
    71    73    70    1
    72    74    51   ar
    73    75    74    1
    74    76    58    1
    75    77    76    1
    76    78    76    1
    77    79    76    1
    78    80    24   ar
    79    81    80    1
    80    82    61   ar
    81    83    82    1
    82    15    21   ar
    83    19    28   ar
    84    26    40   ar
    85    31    33   ar
    86    37    48    1
    87    40    80   ar
    88    43    53    1
    89    66    82   ar
    90    68    74   ar
    91    84    86    2
    92    85    86    2
    93    86    87    1
@<TRIPOS>SUBSTRUCTURE
     1 RES1        1 GROUP             0 ****  ****    0  
     2 RES2       84 GROUP             0 ****  ****    0  
@<TRIPOS>CRYSIN
   13.1775   12.3076   10.6452   90.0000  100.9520   90.0000     7     1
