@<TRIPOS>MOLECULE
SITNUG01
    83    92     1     0     0
SMALL
NO_CHARGES
****
Generated from the CSD

@<TRIPOS>ATOM
     1 C1       5.3150   1.8831   0.4196   C.ar      1 RES1   0.0000
     2 C2       5.9185   1.2090   1.4444   C.ar      1 RES1   0.0000
     3 N1       6.8085   0.2317   1.1918   N.ar      1 RES1   0.0000
     4 C3       7.1000  -0.0303  -0.0791   C.ar      1 RES1   0.0000
     5 C4       6.5110   0.6634  -1.1028   C.ar      1 RES1   0.0000
     6 N2       5.6168   1.6424  -0.8666   N.ar      1 RES1   0.0000
     7 C5       4.7809   3.6021   3.0288   C.ar      1 RES1   0.0000
     8 C6       4.3106   2.8255   4.0695   C.ar      1 RES1   0.0000
     9 C7       5.0155   2.8009   5.2591   C.ar      1 RES1   0.0000
    10 C8       6.1759   3.5576   5.4206   C.ar      1 RES1   0.0000
    11 C9       6.6121   4.3289   4.3529   C.ar      1 RES1   0.0000
    12 C10      5.9311   4.3590   3.1513   C.ar      1 RES1   0.0000
    13 C11      6.9346   3.5263   6.7211   C.3       1 RES1   0.0000
    14 N3       0.9076   6.2254  -1.3137   N.2       1 RES1   0.0000
    15 C12      0.6798   6.7113  -2.3374   C.1       1 RES1   0.0000
    16 Se1      0.2968   7.4542  -3.9164   Se        1 RES1   0.0000
    17 N4       1.0143   5.7011   1.7998   N.ar      1 RES1   0.0000
    18 C13      0.2881   6.6386   2.4121   C.ar      1 RES1   0.0000
    19 C14      0.7134   7.2480   3.5797   C.ar      1 RES1   0.0000
    20 C15      1.8989   6.8658   4.1442   C.ar      1 RES1   0.0000
    21 C16      2.6566   5.8928   3.5302   C.ar      1 RES1   0.0000
    22 C17      2.1963   5.3349   2.3539   C.ar      1 RES1   0.0000
    23 C18      2.9096   4.3521   1.5213   C.2       1 RES1   0.0000
    24 N5       4.0348   3.6271   1.7892   N.pl3     1 RES1   0.0000
    25 C19      4.2482   2.8789   0.6524   C.2       1 RES1   0.0000
    26 N6       3.3162   3.1292  -0.2392   N.2       1 RES1   0.0000
    27 N7       2.4787   4.0579   0.3188   N.2       1 RES1   0.0000
    28 Fe1      0.4106   4.6178   0.0000   Fe        1 RES1   0.0000
    29 H1       6.7377   0.4622  -1.9584   H         1 RES1   0.0000
    30 H2       7.7171  -0.6855  -0.2691   H         1 RES1   0.0000
    31 H3       5.7450   1.3942   2.2825   H         1 RES1   0.0000
    32 H4       3.5398   2.3281   3.9674   H         1 RES1   0.0000
    33 H5       4.7020   2.2734   5.9544   H         1 RES1   0.0000
    34 H6       6.4523   3.0757   7.4054   H         1 RES1   0.0000
    35 H7       7.1082   4.3965   7.0176   H         1 RES1   0.0000
    36 H8       7.7762   3.0851   6.6101   H         1 RES1   0.0000
    37 H9       7.3817   4.8463   4.4496   H         1 RES1   0.0000
    38 H10      6.2307   4.8692   2.4527   H         1 RES1   0.0000
    39 H11      3.4643   5.6123   3.8993   H         1 RES1   0.0000
    40 H12      2.2008   7.2542   4.9263   H         1 RES1   0.0000
    41 H13      0.2194   7.9270   3.9685   H         1 RES1   0.0000
    42 H14     -0.5287   6.8951   2.0232   H         1 RES1   0.0000
    43 C1A     -4.4938   7.3526  -0.4196   C.ar      1 RES1   0.0000
    44 C2A     -5.0973   8.0266  -1.4444   C.ar      1 RES1   0.0000
    45 N1A     -5.9873   9.0039  -1.1918   N.ar      1 RES1   0.0000
    46 C3A     -6.2788   9.2659   0.0791   C.ar      1 RES1   0.0000
    47 C4A     -5.6899   8.5722   1.1028   C.ar      1 RES1   0.0000
    48 N2A     -4.7956   7.5932   0.8666   N.ar      1 RES1   0.0000
    49 C5A     -3.9597   5.6336  -3.0288   C.ar      1 RES1   0.0000
    50 C6A     -3.4894   6.4102  -4.0695   C.ar      1 RES1   0.0000
    51 C7A     -4.1943   6.4348  -5.2591   C.ar      1 RES1   0.0000
    52 C8A     -5.3547   5.6780  -5.4206   C.ar      1 RES1   0.0000
    53 C9A     -5.7909   4.9068  -4.3529   C.ar      1 RES1   0.0000
    54 C10A    -5.1099   4.8766  -3.1513   C.ar      1 RES1   0.0000
    55 C11A    -6.1134   5.7093  -6.7211   C.3       1 RES1   0.0000
    56 N3A     -0.0864   3.0103   1.3137   N.2       1 RES1   0.0000
    57 C12A     0.1414   2.5244   2.3374   C.1       1 RES1   0.0000
    58 Se1A     0.5244   1.7815   3.9164   Se        1 RES1   0.0000
    59 N4A     -0.1932   3.5346  -1.7998   N.ar      1 RES1   0.0000
    60 C13A     0.5331   2.5971  -2.4121   C.ar      1 RES1   0.0000
    61 C14A     0.1078   1.9876  -3.5797   C.ar      1 RES1   0.0000
    62 C15A    -1.0777   2.3699  -4.1442   C.ar      1 RES1   0.0000
    63 C16A    -1.8354   3.3428  -3.5302   C.ar      1 RES1   0.0000
    64 C17A    -1.3751   3.9007  -2.3539   C.ar      1 RES1   0.0000
    65 C18A    -2.0884   4.8835  -1.5213   C.2       1 RES1   0.0000
    66 N5A     -3.2136   5.6086  -1.7892   N.pl3     1 RES1   0.0000
    67 C19A    -3.4271   6.3568  -0.6524   C.2       1 RES1   0.0000
    68 N6A     -2.4950   6.1064   0.2392   N.2       1 RES1   0.0000
    69 N7A     -1.6576   5.1778  -0.3188   N.2       1 RES1   0.0000
    70 H1A     -5.9165   8.7735   1.9584   H         1 RES1   0.0000
    71 H2A     -6.8959   9.9212   0.2691   H         1 RES1   0.0000
    72 H3A     -4.9238   7.8415  -2.2825   H         1 RES1   0.0000
    73 H4A     -2.7186   6.9075  -3.9674   H         1 RES1   0.0000
    74 H5A     -3.8808   6.9623  -5.9544   H         1 RES1   0.0000
    75 H6A     -5.6312   6.1600  -7.4054   H         1 RES1   0.0000
    76 H7A     -6.2870   4.8392  -7.0176   H         1 RES1   0.0000
    77 H8A     -6.9550   6.1506  -6.6101   H         1 RES1   0.0000
    78 H9A     -6.5605   4.3894  -4.4496   H         1 RES1   0.0000
    79 H10A    -5.4095   4.3665  -2.4527   H         1 RES1   0.0000
    80 H11A    -2.6432   3.6234  -3.8993   H         1 RES1   0.0000
    81 H12A    -1.3796   1.9815  -4.9263   H         1 RES1   0.0000
    82 H13A     0.6018   1.3086  -3.9685   H         1 RES1   0.0000
    83 H14A     1.3499   2.3405  -2.0232   H         1 RES1   0.0000
@<TRIPOS>BOND
     1     1     2   ar
     2     2     3   ar
     3     3     4   ar
     4     4     5   ar
     5     5     6   ar
     6     6     1   ar
     7     7     8   ar
     8     8     9   ar
     9     9    10   ar
    10    10    11   ar
    11    11    12   ar
    12    12     7   ar
    13    13    10    1
    14    14    15    2
    15    15    16    2
    16    17    18   ar
    17    18    19   ar
    18    19    20   ar
    19    20    21   ar
    20    21    22   ar
    21    22    17   ar
    22    23    22    1
    23    24     7    1
    24    25     1    1
    25    26    25    2
    26    27    23    2
    27    28    14    1
    28    29     5    1
    29    30     4    1
    30    31     2    1
    31    32     8    1
    32    33     9    1
    33    34    13    1
    34    35    13    1
    35    36    13    1
    36    37    11    1
    37    38    12    1
    38    39    21    1
    39    40    20    1
    40    41    19    1
    41    42    18    1
    42    43    44   ar
    43    44    45   ar
    44    45    46   ar
    45    46    47   ar
    46    47    48   ar
    47    48    43   ar
    48    49    50   ar
    49    50    51   ar
    50    51    52   ar
    51    52    53   ar
    52    53    54   ar
    53    54    49   ar
    54    55    52    1
    55    56    28    1
    56    57    56    2
    57    58    57    2
    58    59    28    1
    59    60    59   ar
    60    61    60   ar
    61    62    61   ar
    62    63    62   ar
    63    64    59   ar
    64    65    64    1
    65    66    49    1
    66    67    43    1
    67    68    67    2
    68    69    28    1
    69    70    47    1
    70    71    46    1
    71    72    44    1
    72    73    50    1
    73    74    51    1
    74    75    55    1
    75    76    55    1
    76    77    55    1
    77    78    53    1
    78    79    54    1
    79    80    63    1
    80    81    62    1
    81    82    61    1
    82    83    60    1
    83    17    28    1
    84    23    24    1
    85    24    25    1
    86    26    27    1
    87    27    28    1
    88    63    64   ar
    89    65    66    1
    90    65    69    2
    91    66    67    1
    92    68    69    1
@<TRIPOS>SUBSTRUCTURE
     1 RES1        1 GROUP             0 ****  ****    0  
@<TRIPOS>CRYSIN
    8.9760    9.2721   11.5674   76.2180   77.0430   84.9190     2     1
