@<TRIPOS>MOLECULE
SITNUG
    83    92     1     0     0
SMALL
NO_CHARGES
****
Generated from the CSD

@<TRIPOS>ATOM
     1 N1       1.3198  10.2453   1.7960   N.ar      1 RES1   0.0000
     2 C1       0.5958  11.1834   2.4075   C.ar      1 RES1   0.0000
     3 C2       1.0101  11.7845   3.5882   C.ar      1 RES1   0.0000
     4 C3       2.1949  11.3874   4.1653   C.ar      1 RES1   0.0000
     5 C4       2.9493  10.4103   3.5491   C.ar      1 RES1   0.0000
     6 C5       2.4969   9.8685   2.3550   C.ar      1 RES1   0.0000
     7 C6       3.2167   8.8947   1.5212   C.2       1 RES1   0.0000
     8 N2       4.3448   8.1739   1.7830   N.pl3     1 RES1   0.0000
     9 C7       4.5622   7.4352   0.6387   C.2       1 RES1   0.0000
    10 N3       3.6265   7.6875  -0.2561   N.2       1 RES1   0.0000
    11 N4       2.7865   8.6085   0.3084   N.2       1 RES1   0.0000
    12 C8       5.6310   6.4390   0.4064   C.ar      1 RES1   0.0000
    13 C9       6.2342   5.7537   1.4332   C.ar      1 RES1   0.0000
    14 N5       7.1147   4.7708   1.1823   N.ar      1 RES1   0.0000
    15 C10      7.4057   4.5118  -0.0953   C.ar      1 RES1   0.0000
    16 C11      6.8163   5.2187  -1.1238   C.ar      1 RES1   0.0000
    17 N6       5.9223   6.1980  -0.8886   N.ar      1 RES1   0.0000
    18 C12      5.0864   8.1447   3.0263   C.ar      1 RES1   0.0000
    19 C13      6.2255   8.9193   3.1659   C.ar      1 RES1   0.0000
    20 C14      6.8997   8.8883   4.3803   C.ar      1 RES1   0.0000
    21 C15      6.4563   8.0898   5.4376   C.ar      1 RES1   0.0000
    22 C16      5.3133   7.3150   5.2519   C.ar      1 RES1   0.0000
    23 C17      4.6127   7.3427   4.0516   C.ar      1 RES1   0.0000
    24 C18      7.2024   8.0539   6.7438   C.3       1 RES1   0.0000
    25 N7       0.2330   7.5601   1.3207   N.2       1 RES1   0.0000
    26 C19      0.4640   7.0793   2.3559   C.1       1 RES1   0.0000
    27 Se1      0.8537   6.3524   3.9458   Se        1 RES1   0.0000
    28 H1       7.0434   5.0324  -1.9924   H         1 RES1   0.0000
    29 H2       8.0015   3.8288  -0.3001   H         1 RES1   0.0000
    30 H3       6.0505   5.9519   2.2771   H         1 RES1   0.0000
    31 H4       3.8413   6.8332   3.9376   H         1 RES1   0.0000
    32 H5       5.0046   6.7452   5.9453   H         1 RES1   0.0000
    33 H6       7.3624   8.9314   7.0560   H         1 RES1   0.0000
    34 H7       6.7272   7.5741   7.4054   H         1 RES1   0.0000
    35 H8       8.0491   7.6378   6.6135   H         1 RES1   0.0000
    36 H9       7.6676   9.4046   4.4919   H         1 RES1   0.0000
    37 H10      6.5180   9.4523   2.4721   H         1 RES1   0.0000
    38 H11      3.7533  10.1170   3.9234   H         1 RES1   0.0000
    39 H12      2.4852  11.7684   4.9420   H         1 RES1   0.0000
    40 H13      0.5100  12.4649   3.9814   H         1 RES1   0.0000
    41 H14     -0.2184  11.4415   2.0110   H         1 RES1   0.0000
    42 Fe1      0.7205   9.1636   0.0000   Fe        1 RES1   0.0000
    43 N1A      0.1212   8.0818  -1.7960   N.ar      1 RES1   0.0000
    44 C1A      0.8452   7.1438  -2.4075   C.ar      1 RES1   0.0000
    45 C2A      0.4309   6.5427  -3.5882   C.ar      1 RES1   0.0000
    46 C3A     -0.7539   6.9397  -4.1653   C.ar      1 RES1   0.0000
    47 C4A     -1.5083   7.9168  -3.5491   C.ar      1 RES1   0.0000
    48 C5A     -1.0559   8.4586  -2.3550   C.ar      1 RES1   0.0000
    49 C6A     -1.7757   9.4325  -1.5212   C.2       1 RES1   0.0000
    50 N2A     -2.9038  10.1532  -1.7830   N.pl3     1 RES1   0.0000
    51 C7A     -3.1212  10.8920  -0.6387   C.2       1 RES1   0.0000
    52 N3A     -2.1855  10.6396   0.2561   N.2       1 RES1   0.0000
    53 N4A     -1.3455   9.7187  -0.3084   N.2       1 RES1   0.0000
    54 C8A     -4.1900  11.8881  -0.4064   C.ar      1 RES1   0.0000
    55 C9A     -4.7932  12.5734  -1.4332   C.ar      1 RES1   0.0000
    56 N5A     -5.6737  13.5563  -1.1823   N.ar      1 RES1   0.0000
    57 C10A    -5.9647  13.8154   0.0953   C.ar      1 RES1   0.0000
    58 C11A    -5.3753  13.1084   1.1238   C.ar      1 RES1   0.0000
    59 N6A     -4.4813  12.1291   0.8886   N.ar      1 RES1   0.0000
    60 C12A    -3.6454  10.1824  -3.0263   C.ar      1 RES1   0.0000
    61 C13A    -4.7846   9.4079  -3.1659   C.ar      1 RES1   0.0000
    62 C14A    -5.4587   9.4388  -4.3803   C.ar      1 RES1   0.0000
    63 C15A    -5.0153  10.2373  -5.4376   C.ar      1 RES1   0.0000
    64 C16A    -3.8723  11.0122  -5.2519   C.ar      1 RES1   0.0000
    65 C17A    -3.1717  10.9844  -4.0516   C.ar      1 RES1   0.0000
    66 C18A    -5.7614  10.2733  -6.7438   C.3       1 RES1   0.0000
    67 N7A      1.2080  10.7671  -1.3207   N.2       1 RES1   0.0000
    68 C19A     0.9770  11.2478  -2.3559   C.1       1 RES1   0.0000
    69 Se1A     0.5873  11.9747  -3.9458   Se        1 RES1   0.0000
    70 H1A     -5.6024  13.2947   1.9924   H         1 RES1   0.0000
    71 H2A     -6.5605  14.4983   0.3001   H         1 RES1   0.0000
    72 H3A     -4.6095  12.3752  -2.2771   H         1 RES1   0.0000
    73 H4A     -2.4003  11.4939  -3.9376   H         1 RES1   0.0000
    74 H5A     -3.5636  11.5819  -5.9453   H         1 RES1   0.0000
    75 H6A     -5.9214   9.3957  -7.0560   H         1 RES1   0.0000
    76 H7A     -5.2862  10.7530  -7.4054   H         1 RES1   0.0000
    77 H8A     -6.6081  10.6893  -6.6135   H         1 RES1   0.0000
    78 H9A     -6.2266   8.9225  -4.4919   H         1 RES1   0.0000
    79 H10A    -5.0770   8.8749  -2.4721   H         1 RES1   0.0000
    80 H11A    -2.3123   8.2102  -3.9234   H         1 RES1   0.0000
    81 H12A    -1.0443   6.5588  -4.9420   H         1 RES1   0.0000
    82 H13A     0.9310   5.8622  -3.9814   H         1 RES1   0.0000
    83 H14A     1.6594   6.8857  -2.0110   H         1 RES1   0.0000
@<TRIPOS>BOND
     1     1     2   ar
     2     2     3   ar
     3     3     4   ar
     4     4     5   ar
     5     5     6   ar
     6     6     1   ar
     7     7     6    1
     8     8     7    1
     9     9     8    1
    10    10     9    2
    11    11     7    2
    12    12     9    1
    13    13    12   ar
    14    14    13   ar
    15    15    14   ar
    16    16    15   ar
    17    17    12   ar
    18    18     8    1
    19    19    18   ar
    20    20    19   ar
    21    21    20   ar
    22    22    21   ar
    23    23    18   ar
    24    24    21    1
    25    25    26    2
    26    26    27    2
    27    28    16    1
    28    29    15    1
    29    30    13    1
    30    31    23    1
    31    32    22    1
    32    33    24    1
    33    34    24    1
    34    35    24    1
    35    36    20    1
    36    37    19    1
    37    38     5    1
    38    39     4    1
    39    40     3    1
    40    41     2    1
    41    42     1    1
    42    43    42    1
    43    44    43   ar
    44    45    44   ar
    45    46    45   ar
    46    47    46   ar
    47    48    43   ar
    48    49    48    1
    49    50    49    1
    50    51    50    1
    51    52    51    2
    52    53    42    1
    53    54    51    1
    54    55    54   ar
    55    56    55   ar
    56    57    56   ar
    57    58    57   ar
    58    59    54   ar
    59    60    50    1
    60    61    60   ar
    61    62    61   ar
    62    63    62   ar
    63    64    63   ar
    64    65    60   ar
    65    66    63    1
    66    67    42    1
    67    68    67    2
    68    69    68    2
    69    70    58    1
    70    71    57    1
    71    72    55    1
    72    73    65    1
    73    74    64    1
    74    75    66    1
    75    76    66    1
    76    77    66    1
    77    78    62    1
    78    79    61    1
    79    80    47    1
    80    81    46    1
    81    82    45    1
    82    83    44    1
    83    10    11    1
    84    11    42    1
    85    16    17   ar
    86    22    23   ar
    87    25    42    1
    88    47    48   ar
    89    49    53    2
    90    52    53    1
    91    58    59   ar
    92    64    65   ar
@<TRIPOS>SUBSTRUCTURE
     1 RES1        1 GROUP             0 ****  ****    0  
@<TRIPOS>CRYSIN
    8.8651    9.1919   11.5192   76.6530   77.0659   85.5043     2     1
