@<TRIPOS>MOLECULE
SIXROJ
    90    98     1     0     0
SMALL
NO_CHARGES
****
Generated from the CSD

@<TRIPOS>ATOM
     1 Fe1      4.5330   6.6478   5.4180   Fe        1 RES1   0.0000
     2 P1       6.3512   6.0672   6.4577   P.3       1 RES1   0.0000
     3 P2       3.6189   4.6820   5.7683   P.3       1 RES1   0.0000
     4 P3       5.1955   6.1396   3.3272   P.3       1 RES1   0.0000
     5 Si1      6.2589   3.5989   4.6890   Si        1 RES1   0.0000
     6 C1       7.4869   7.7977   3.4085   C.ar      1 RES1   0.0000
     7 H1       7.1766   8.0506   4.2479   H         1 RES1   0.0000
     8 C2       4.0913   6.5320   1.9020   C.ar      1 RES1   0.0000
     9 C3       7.4741   7.4828   6.8331   C.ar      1 RES1   0.0000
    10 C4       6.7484   6.8988   2.6512   C.ar      1 RES1   0.0000
    11 C5       8.3972   7.1169   0.9120   C.ar      1 RES1   0.0000
    12 H2       8.6995   6.8869   0.0629   H         1 RES1   0.0000
    13 C6       7.1241   2.0076   4.2902   C.3       1 RES1   0.0000
    14 H3       7.3810   1.5694   5.1051   H         1 RES1   0.0000
    15 H4       7.9074   2.1914   3.7659   H         1 RES1   0.0000
    16 H5       6.5333   1.4373   3.7931   H         1 RES1   0.0000
    17 C7       4.8017   3.2870   5.8265   C.3       1 RES1   0.0000
    18 H6       4.3523   2.4704   5.5588   H         1 RES1   0.0000
    19 H7       5.1206   3.1709   6.7352   H         1 RES1   0.0000
    20 C8       7.2191   6.5831   1.3787   C.ar      1 RES1   0.0000
    21 H8       6.7315   6.0041   0.8386   H         1 RES1   0.0000
    22 C9       2.3706   4.1667   4.5064   C.ar      1 RES1   0.0000
    23 C10      5.5938   4.3610   3.1078   C.3       1 RES1   0.0000
    24 H9       6.2534   4.2649   2.4033   H         1 RES1   0.0000
    25 H10      4.7934   3.8851   2.8346   H         1 RES1   0.0000
    26 C11      6.2057   5.3438   8.1593   C.ar      1 RES1   0.0000
    27 C12      3.2318   5.5993   1.3246   C.ar      1 RES1   0.0000
    28 H11      3.2166   4.7252   1.6422   H         1 RES1   0.0000
    29 C13      2.5824   4.4313   7.2658   C.ar      1 RES1   0.0000
    30 C14      1.4235   5.0974   4.0974   C.ar      1 RES1   0.0000
    31 H12      1.4509   5.9584   4.4475   H         1 RES1   0.0000
    32 C15      4.0711   7.8405   1.4123   C.ar      1 RES1   0.0000
    33 H13      4.6216   8.4824   1.7995   H         1 RES1   0.0000
    34 C16      1.7017   3.0461   9.0325   C.ar      1 RES1   0.0000
    35 H14      1.6888   2.2320   9.4818   H         1 RES1   0.0000
    36 C17      9.1355   7.9875   1.6834   C.ar      1 RES1   0.0000
    37 H15      9.9328   8.3400   1.3590   H         1 RES1   0.0000
    38 C18      0.9046   4.0809   9.4637   C.ar      1 RES1   0.0000
    39 H16      0.3469   3.9671  10.1995   H         1 RES1   0.0000
    40 C19      2.3996   5.9680   0.2792   C.ar      1 RES1   0.0000
    41 H17      1.8263   5.3390  -0.0963   H         1 RES1   0.0000
    42 C20      1.3212   2.5615   3.0323   C.ar      1 RES1   0.0000
    43 H18      1.2908   1.7057   2.6703   H         1 RES1   0.0000
    44 C21      5.9867   4.3939  10.7854   C.ar      1 RES1   0.0000
    45 H19      5.9160   4.0797  11.6579   H         1 RES1   0.0000
    46 C22      7.3763   4.8511   5.5505   C.3       1 RES1   0.0000
    47 H20      7.9663   4.3926   6.1694   H         1 RES1   0.0000
    48 H21      7.9236   5.3087   4.8931   H         1 RES1   0.0000
    49 C23      2.5236   3.2140   7.9306   C.ar      1 RES1   0.0000
    50 H22      3.0438   2.5029   7.6327   H         1 RES1   0.0000
    51 C24      5.1747   5.7517   8.9877   C.ar      1 RES1   0.0000
    52 H23      4.5401   6.3490   8.6630   H         1 RES1   0.0000
    53 C25      5.0674   5.2936  10.2852   C.ar      1 RES1   0.0000
    54 H24      4.3723   5.5929  10.8253   H         1 RES1   0.0000
    55 C26      6.9334   8.6381   7.3842   C.ar      1 RES1   0.0000
    56 H25      6.0262   8.6653   7.5879   H         1 RES1   0.0000
    57 C27      0.4447   4.7717   3.1838   C.ar      1 RES1   0.0000
    58 H26     -0.1863   5.4071   2.9330   H         1 RES1   0.0000
    59 C28      3.2448   8.1983   0.3613   C.ar      1 RES1   0.0000
    60 H27      3.2518   9.0709   0.0407   H         1 RES1   0.0000
    61 C29      1.7839   5.4707   7.7204   C.ar      1 RES1   0.0000
    62 H28      1.8200   6.2976   7.2971   H         1 RES1   0.0000
    63 C30      2.3043   2.8855   3.9730   C.ar      1 RES1   0.0000
    64 H29      2.9176   2.2403   4.2422   H         1 RES1   0.0000
    65 C31      8.6876   8.3297   2.9320   C.ar      1 RES1   0.0000
    66 H30      9.1816   8.9141   3.4608   H         1 RES1   0.0000
    67 C32      8.8345   7.4764   6.5494   C.ar      1 RES1   0.0000
    68 H31      9.2264   6.7094   6.1975   H         1 RES1   0.0000
    69 C33      7.1275   4.4468   8.6830   C.ar      1 RES1   0.0000
    70 H32      7.8396   4.1621   8.1564   H         1 RES1   0.0000
    71 C34      2.4126   7.2593  -0.2109   C.ar      1 RES1   0.0000
    72 H33      1.8627   7.4950  -0.9230   H         1 RES1   0.0000
    73 C35      0.3972   3.5060   2.6407   C.ar      1 RES1   0.0000
    74 H34     -0.2540   3.2908   2.0131   H         1 RES1   0.0000
    75 C36      0.9381   5.2891   8.7953   C.ar      1 RES1   0.0000
    76 H35      0.3870   5.9853   9.0718   H         1 RES1   0.0000
    77 C37      7.0037   3.9714   9.9720   C.ar      1 RES1   0.0000
    78 H36      7.6211   3.3549  10.2938   H         1 RES1   0.0000
    79 C38      7.7193   9.7459   7.6348   C.ar      1 RES1   0.0000
    80 H37      7.3399  10.5058   8.0141   H         1 RES1   0.0000
    81 C39      9.6177   8.6007   6.7846   C.ar      1 RES1   0.0000
    82 H38     10.5238   8.5878   6.5741   H         1 RES1   0.0000
    83 C40      9.0577   9.7304   7.3265   C.ar      1 RES1   0.0000
    84 H39      9.5823  10.4823   7.4840   H         1 RES1   0.0000
    85 B1       3.7383   8.5596   5.0208   B         1 RES1   0.0000
    86 H40      3.7566   9.0341   4.0328   H         1 RES1   0.0000
    87 H41      3.3177   9.1893   5.7986   H         1 RES1   0.0000
    88 H42      3.1952   7.4007   4.9541   H         1 RES1   0.0000
    89 H43      4.1697   6.9444   6.7684   H         1 RES1   0.0000
    90 H44      4.8779   8.1581   5.2329   H         1 RES1   0.0000
@<TRIPOS>BOND
     1     1     2    1
     2     2     9    1
     3     3     1    1
     4     4     1    1
     5     5    13    1
     6     6     7    1
     7     8     4    1
     8     9    55   ar
     9    10     4    1
    10    11    12    1
    11    13    14    1
    12    15    13    1
    13    16    13    1
    14    17     3    1
    15    18    17    1
    16    19    17    1
    17    20    10   ar
    18    21    20    1
    19    22     3    1
    20    23     4    1
    21    24    23    1
    22    25    23    1
    23    26     2    1
    24    27     8   ar
    25    28    27    1
    26    29     3    1
    27    30    22   ar
    28    31    30    1
    29    32     8   ar
    30    33    32    1
    31    34    35    1
    32    36    11   ar
    33    37    36    1
    34    38    34   ar
    35    39    38    1
    36    40    27   ar
    37    41    40    1
    38    42    43    1
    39    44    45    1
    40    46     2    1
    41    47    46    1
    42    48    46    1
    43    49    29   ar
    44    50    49    1
    45    51    26   ar
    46    52    51    1
    47    53    44   ar
    48    54    53    1
    49    55    56    1
    50    57    30   ar
    51    58    57    1
    52    59    32   ar
    53    60    59    1
    54    61    29   ar
    55    62    61    1
    56    63    22   ar
    57    64    63    1
    58    65     6   ar
    59    66    65    1
    60    67     9   ar
    61    68    67    1
    62    69    26   ar
    63    70    69    1
    64    71    40   ar
    65    72    71    1
    66    73    42   ar
    67    74    73    1
    68    75    38   ar
    69    76    75    1
    70    77    44   ar
    71    78    77    1
    72    79    55   ar
    73    80    79    1
    74    81    67   ar
    75    82    81    1
    76    83    79   ar
    77    84    83    1
    78    85    86    1
    79    87    85    1
    80    88     1    1
    81    89     1    1
    82    90     1    1
    83     5    17    1
    84     5    23    1
    85     5    46    1
    86     6    10   ar
    87    11    20   ar
    88    34    49   ar
    89    36    65   ar
    90    42    63   ar
    91    51    53   ar
    92    57    73   ar
    93    59    71   ar
    94    61    75   ar
    95    69    77   ar
    96    81    83   ar
    97    85    88    1
    98    85    90    1
@<TRIPOS>SUBSTRUCTURE
     1 RES1        1 GROUP             0 ****  ****    0  
@<TRIPOS>CRYSIN
    9.7534    9.1254   40.4140   90.0000   90.9480   90.0000    14     1
