@<TRIPOS>MOLECULE
SIZVIH
    79    83     2     0     0
SMALL
NO_CHARGES
****
Generated from the CSD

@<TRIPOS>ATOM
     1 Fe1      3.6704   2.4520  -0.8766   Fe        1 RES1   0.0000
     2 O1       5.2717   3.3798  -0.0671   O.3       1 RES1   0.0000
     3 O2       4.3338   1.0295  -2.1152   O.3       1 RES1   0.0000
     4 O3       5.6606   6.2314   2.9294   O.2       1 RES1   0.0000
     5 O4       2.5469  -2.3259  -3.7532   O.2       1 RES1   0.0000
     6 N1       2.5144   3.7411   0.2948   N.2       1 RES1   0.0000
     7 N2       1.7561   1.6849  -1.2376   N.2       1 RES1   0.0000
     8 C1       5.4301   4.2447   0.8425   C.2       1 RES1   0.0000
     9 C2       4.3300   4.9144   1.4614   C.2       1 RES1   0.0000
    10 C3       2.9736   4.6201   1.1442   C.2       1 RES1   0.0000
    11 H1       2.3321   5.1179   1.5991   H         1 RES1   0.0000
    12 C4       1.1133   3.5265   0.1773   C.ar      1 RES1   0.0000
    13 C5       0.1332   4.3223   0.7566   C.ar      1 RES1   0.0000
    14 H2       0.3855   5.0940   1.2103   H         1 RES1   0.0000
    15 C6      -1.2038   3.9966   0.6773   C.ar      1 RES1   0.0000
    16 H3      -1.8405   4.5398   1.0837   H         1 RES1   0.0000
    17 C7      -1.5930   2.8640  -0.0055   C.ar      1 RES1   0.0000
    18 H4      -2.4917   2.6259  -0.0363   H         1 RES1   0.0000
    19 C8      -0.6471   2.0808  -0.6476   C.ar      1 RES1   0.0000
    20 H5      -0.9222   1.3335  -1.1277   H         1 RES1   0.0000
    21 C9       0.7086   2.3927  -0.5848   C.ar      1 RES1   0.0000
    22 C10      1.4941   0.5397  -1.8447   C.2       1 RES1   0.0000
    23 H6       0.6156   0.2374  -1.8006   H         1 RES1   0.0000
    24 C11      2.4158  -0.2827  -2.5594   C.2       1 RES1   0.0000
    25 C12      3.8038   0.0199  -2.6684   C.2       1 RES1   0.0000
    26 C13      6.8663   4.4815   1.1982   C.3       1 RES1   0.0000
    27 H7       7.0409   4.1292   2.0737   H         1 RES1   0.0000
    28 H8       7.0472   5.4249   1.1905   H         1 RES1   0.0000
    29 H9       7.4320   4.0432   0.5584   H         1 RES1   0.0000
    30 C14      4.5523   5.9520   2.4768   C.2       1 RES1   0.0000
    31 C15      3.3846   6.7469   3.0219   C.3       1 RES1   0.0000
    32 H10      3.7121   7.4452   3.5946   H         1 RES1   0.0000
    33 H11      2.8082   6.1656   3.5230   H         1 RES1   0.0000
    34 H12      2.8940   7.1349   2.2940   H         1 RES1   0.0000
    35 C16      4.7735  -0.8192  -3.4503   C.3       1 RES1   0.0000
    36 H13      5.6381  -0.4002  -3.4415   H         1 RES1   0.0000
    37 H14      4.4677  -0.9023  -4.3567   H         1 RES1   0.0000
    38 H15      4.8369  -1.6906  -3.0528   H         1 RES1   0.0000
    39 C17      1.8542  -1.4739  -3.2213   C.2       1 RES1   0.0000
    40 C18      0.3594  -1.6995  -3.2488   C.3       1 RES1   0.0000
    41 H16      0.1652  -2.5042  -3.7345   H         1 RES1   0.0000
    42 H17     -0.0685  -0.9556  -3.6783   H         1 RES1   0.0000
    43 H18      0.0319  -1.7807  -2.3501   H         1 RES1   0.0000
    44 N3       3.6554   3.9548  -2.5363   N.2       1 RES1   0.0000
    45 N4       4.2070   5.4822  -4.0406   N.pl3     1 RES1   0.0000
    46 C19      2.5181   4.4666  -3.1310   C.2       1 RES1   0.0000
    47 H19      1.6478   4.2079  -2.9272   H         1 RES1   0.0000
    48 C20      2.8490   5.3865  -4.0406   C.2       1 RES1   0.0000
    49 H20      2.2613   5.8718  -4.5737   H         1 RES1   0.0000
    50 C21      4.6453   4.6021  -3.1089   C.2       1 RES1   0.0000
    51 H21      5.5415   4.4709  -2.8997   H         1 RES1   0.0000
    52 C22      5.0434   6.3478  -4.8644   C.3       1 RES1   0.0000
    53 H22      5.9688   6.1737  -4.6761   H         1 RES1   0.0000
    54 H23      4.8450   7.2662  -4.6673   H         1 RES1   0.0000
    55 H24      4.8671   6.1749  -5.7928   H         1 RES1   0.0000
    56 N5       3.7796   0.9330   0.8261   N.2       1 RES1   0.0000
    57 N6       3.9516  -0.8890   2.0792   N.pl3     1 RES1   0.0000
    58 C23      3.0616   1.0854   1.9911   C.2       1 RES1   0.0000
    59 H25      2.5686   1.8422   2.2125   H         1 RES1   0.0000
    60 C24      3.1700  -0.0116   2.7697   C.2       1 RES1   0.0000
    61 H26      2.7872  -0.1428   3.6078   H         1 RES1   0.0000
    62 C25      4.2991  -0.2881   0.9328   C.2       1 RES1   0.0000
    63 H27      4.8408  -0.6803   0.2863   H         1 RES1   0.0000
    64 C26      4.3724  -2.2125   2.5473   C.3       1 RES1   0.0000
    65 H28      4.7221  -2.7169   1.8083   H         1 RES1   0.0000
    66 H29      3.6192  -2.6734   2.9217   H         1 RES1   0.0000
    67 H30      5.0528  -2.1138   3.2180   H         1 RES1   0.0000
    68 N7       3.9078   4.0425   5.2906   N.am      2 RES2   0.0000
    69 O5       1.6839   4.4634   5.4646   O.2       2 RES2   0.0000
    70 C27      4.9333   3.2322   4.7179   C.3       2 RES2   0.0000
    71 H31      5.5333   3.7855   4.2124   H         2 RES2   0.0000
    72 H32      4.5364   2.5774   4.1375   H         2 RES2   0.0000
    73 H33      5.4189   2.7873   5.4161   H         2 RES2   0.0000
    74 C28      2.5820   3.7497   5.0010   C.2       2 RES2   0.0000
    75 H34      2.3711   3.0217   4.4613   H         2 RES2   0.0000
    76 C29      4.1980   5.1092   6.0989   C.3       2 RES2   0.0000
    77 H35      3.4008   5.3969   6.5494   H         2 RES2   0.0000
    78 H36      4.5417   5.8303   5.5659   H         2 RES2   0.0000
    79 H37      4.8559   4.8496   6.7476   H         2 RES2   0.0000
@<TRIPOS>BOND
     1     1     2    1
     2     2     8    1
     3     3     1    1
     4     4    30    2
     5     5    39    2
     6     6     1    1
     7     7     1    1
     8     8     9    2
     9     9    10    1
    10    10     6    2
    11    11    10    1
    12    12     6    1
    13    13    12   ar
    14    14    13    1
    15    15    13   ar
    16    16    15    1
    17    17    15   ar
    18    18    17    1
    19    19    17   ar
    20    20    19    1
    21    21     7    1
    22    22     7    2
    23    23    22    1
    24    24    22    1
    25    25     3    1
    26    26     8    1
    27    27    26    1
    28    28    26    1
    29    29    26    1
    30    30     9    1
    31    31    30    1
    32    32    31    1
    33    33    31    1
    34    34    31    1
    35    35    25    1
    36    36    35    1
    37    37    35    1
    38    38    35    1
    39    39    24    1
    40    40    39    1
    41    41    40    1
    42    42    40    1
    43    43    40    1
    44    44     1    1
    45    45    48    1
    46    46    44    1
    47    47    46    1
    48    48    46    2
    49    49    48    1
    50    50    44    2
    51    51    50    1
    52    52    45    1
    53    53    52    1
    54    54    52    1
    55    55    52    1
    56    56     1    1
    57    57    60    1
    58    58    56    1
    59    59    58    1
    60    60    58    2
    61    61    60    1
    62    62    56    2
    63    63    62    1
    64    64    57    1
    65    65    64    1
    66    66    64    1
    67    67    64    1
    68    12    21   ar
    69    19    21   ar
    70    24    25    2
    71    45    50    1
    72    57    62    1
    73    68    70    1
    74    69    74    2
    75    70    71    1
    76    72    70    1
    77    73    70    1
    78    74    68   am
    79    75    74    1
    80    76    68    1
    81    77    76    1
    82    78    76    1
    83    79    76    1
@<TRIPOS>SUBSTRUCTURE
     1 RES1        1 GROUP             0 ****  ****    0  
     2 RES2       68 GROUP             0 ****  ****    0  
@<TRIPOS>CRYSIN
   11.7471   11.8191   11.9868   73.1585   71.9122   80.9513     2     1
