@<TRIPOS>MOLECULE
SIZVAZ
    75    80     1     0     0
SMALL
NO_CHARGES
****
Generated from the CSD

@<TRIPOS>ATOM
     1 Fe1      1.1897   4.0633  14.0338   Fe        1 RES1   0.0000
     2 O1       0.2865   3.2485  12.3831   O.3       1 RES1   0.0000
     3 O2       0.8980   3.0246  15.8127   O.3       1 RES1   0.0000
     4 O3      -0.5021   4.7669   8.5153   O.2       1 RES1   0.0000
     5 O4       0.4286   6.6708   9.1994   O.3       1 RES1   0.0000
     6 O5       3.1024   3.0105  19.3983   O.2       1 RES1   0.0000
     7 O6       3.8350   5.0524  18.8656   O.3       1 RES1   0.0000
     8 N1       1.8201   5.5593  12.6622   N.2       1 RES1   0.0000
     9 N2       2.2785   5.3686  15.2887   N.2       1 RES1   0.0000
    10 N3      -0.6744   5.1958  14.3955   N.2       1 RES1   0.0000
    11 N4      -1.9666   6.8009  15.1843   N.pl3     1 RES1   0.0000
    12 N5       2.8762   2.7005  13.6347   N.2       1 RES1   0.0000
    13 N6       4.0683   1.0164  12.8526   N.pl3     1 RES1   0.0000
    14 C1       0.0029   3.6574  11.2139   C.2       1 RES1   0.0000
    15 C2       0.5212   4.8681  10.6932   C.2       1 RES1   0.0000
    16 C3       1.3816   5.7237  11.4380   C.2       1 RES1   0.0000
    17 H1       1.6671   6.4948  11.0022   H         1 RES1   0.0000
    18 C4       2.5374   6.6309  13.2618   C.ar      1 RES1   0.0000
    19 C5       3.0567   7.7387  12.5884   C.ar      1 RES1   0.0000
    20 H2       3.0355   7.7577  11.6584   H         1 RES1   0.0000
    21 C6       3.6013   8.8054  13.2742   C.ar      1 RES1   0.0000
    22 H3       3.9528   9.5282  12.8073   H         1 RES1   0.0000
    23 C7       3.6218   8.7964  14.6567   C.ar      1 RES1   0.0000
    24 H4       3.9354   9.5381  15.1221   H         1 RES1   0.0000
    25 C8       3.1773   7.6874  15.3462   C.ar      1 RES1   0.0000
    26 H5       3.1997   7.6838  16.2766   H         1 RES1   0.0000
    27 C9       2.6919   6.5644  14.6563   C.ar      1 RES1   0.0000
    28 C10      2.7518   5.1077  16.4861   C.2       1 RES1   0.0000
    29 H6       3.3680   5.7151  16.8276   H         1 RES1   0.0000
    30 C11      2.4283   4.0050  17.3150   C.2       1 RES1   0.0000
    31 C12      1.4696   3.0213  16.9431   C.2       1 RES1   0.0000
    32 C13     -0.9481   2.7618  10.4478   C.3       1 RES1   0.0000
    33 H7      -0.4465   2.1044   9.9585   H         1 RES1   0.0000
    34 H8      -1.4630   3.2913   9.8344   H         1 RES1   0.0000
    35 H9      -1.5386   2.3206  11.0642   H         1 RES1   0.0000
    36 C14      0.0855   5.3717   9.3877   C.2       1 RES1   0.0000
    37 C15     -0.0378   7.3276   8.0042   C.3       1 RES1   0.0000
    38 H10     -1.0057   7.3932   8.0086   H         1 RES1   0.0000
    39 H11      0.2363   6.8333   7.2169   H         1 RES1   0.0000
    40 C16      0.5810   8.6976   8.0054   C.3       1 RES1   0.0000
    41 H12      0.2775   9.1848   8.7739   H         1 RES1   0.0000
    42 H13      0.3245   9.1649   7.2075   H         1 RES1   0.0000
    43 H14      1.5370   8.6162   8.0349   H         1 RES1   0.0000
    44 C17      1.0402   1.9312  17.8881   C.3       1 RES1   0.0000
    45 H15      0.3608   1.3956  17.4707   H         1 RES1   0.0000
    46 H16      0.6899   2.3229  18.6911   H         1 RES1   0.0000
    47 H17      1.7951   1.3786  18.1044   H         1 RES1   0.0000
    48 C18      3.1193   3.9269  18.6115   C.2       1 RES1   0.0000
    49 C19      4.5326   5.1229  20.1296   C.3       1 RES1   0.0000
    50 H18      5.1890   4.4126  20.1954   H         1 RES1   0.0000
    51 H19      3.9085   5.0380  20.8667   H         1 RES1   0.0000
    52 C20      5.2088   6.4691  20.1662   C.3       1 RES1   0.0000
    53 H20      5.8210   6.5398  19.4301   H         1 RES1   0.0000
    54 H21      5.6888   6.5638  20.9927   H         1 RES1   0.0000
    55 H22      4.5470   7.1613  20.0995   H         1 RES1   0.0000
    56 C21     -0.7391   6.2644  15.1772   C.2       1 RES1   0.0000
    57 H23     -0.0199   6.6018  15.6618   H         1 RES1   0.0000
    58 C22     -2.7464   6.0296  14.3694   C.2       1 RES1   0.0000
    59 H24     -3.6486   6.1516  14.1800   H         1 RES1   0.0000
    60 C23     -1.9380   5.0496  13.8925   C.2       1 RES1   0.0000
    61 H25     -2.2038   4.3765  13.3094   H         1 RES1   0.0000
    62 C24     -2.3823   7.9542  15.9827   C.3       1 RES1   0.0000
    63 H26     -1.6353   8.2777  16.4910   H         1 RES1   0.0000
    64 H27     -3.0861   7.6932  16.5813   H         1 RES1   0.0000
    65 H28     -2.6987   8.6493  15.4004   H         1 RES1   0.0000
    66 C25      2.8983   1.6728  12.8068   C.2       1 RES1   0.0000
    67 H29      2.1874   1.4318  12.2564   H         1 RES1   0.0000
    68 C26      4.8542   1.6645  13.7639   C.2       1 RES1   0.0000
    69 H30      5.7239   1.4449  14.0108   H         1 RES1   0.0000
    70 C27      4.1094   2.6920  14.2328   C.2       1 RES1   0.0000
    71 H31      4.3940   3.3058  14.8701   H         1 RES1   0.0000
    72 C28      4.4389  -0.1648  12.0727   C.3       1 RES1   0.0000
    73 H32      3.7156  -0.4015  11.4873   H         1 RES1   0.0000
    74 H33      4.6216  -0.8964  12.6663   H         1 RES1   0.0000
    75 H34      5.2216   0.0280  11.5512   H         1 RES1   0.0000
@<TRIPOS>BOND
     1     1     2    1
     2     2    14    1
     3     3     1    1
     4     4    36    2
     5     5    36    1
     6     6    48    2
     7     7    48    1
     8     8     1    1
     9     9     1    1
    10    10     1    1
    11    11    56    1
    12    12     1    1
    13    13    66    1
    14    14    15    2
    15    15    16    1
    16    16     8    2
    17    17    16    1
    18    18     8    1
    19    19    18   ar
    20    20    19    1
    21    21    19   ar
    22    22    21    1
    23    23    21   ar
    24    24    23    1
    25    25    23   ar
    26    26    25    1
    27    27     9    1
    28    28     9    2
    29    29    28    1
    30    30    28    1
    31    31     3    1
    32    32    14    1
    33    33    32    1
    34    34    32    1
    35    35    32    1
    36    36    15    1
    37    37     5    1
    38    38    37    1
    39    39    37    1
    40    40    37    1
    41    41    40    1
    42    42    40    1
    43    43    40    1
    44    44    31    1
    45    45    44    1
    46    46    44    1
    47    47    44    1
    48    48    30    1
    49    49     7    1
    50    50    49    1
    51    51    49    1
    52    52    49    1
    53    53    52    1
    54    54    52    1
    55    55    52    1
    56    56    10    2
    57    57    56    1
    58    58    11    1
    59    59    58    1
    60    60    10    1
    61    61    60    1
    62    62    11    1
    63    63    62    1
    64    64    62    1
    65    65    62    1
    66    66    12    2
    67    67    66    1
    68    68    13    1
    69    69    68    1
    70    70    12    1
    71    71    70    1
    72    72    13    1
    73    73    72    1
    74    74    72    1
    75    75    72    1
    76    18    27   ar
    77    25    27   ar
    78    30    31    2
    79    58    60    2
    80    68    70    2
@<TRIPOS>SUBSTRUCTURE
     1 RES1        1 GROUP             0 ****  ****    0  
@<TRIPOS>CRYSIN
    9.3106    9.5318   19.3708   76.4623   86.6785   63.1256     2     1
