@<TRIPOS>MOLECULE
SIZVON
    75    80     1     0     0
SMALL
NO_CHARGES
****
Generated from the CSD

@<TRIPOS>ATOM
     1 Fe1      8.8486   2.6391   0.5826   Fe        1 RES1   0.0000
     2 O1       6.9847   1.7737   0.6911   O.3       1 RES1   0.0000
     3 O2       9.9496   2.0386  -1.0266   O.3       1 RES1   0.0000
     4 O3       4.4377   4.5754   3.5334   O.2       1 RES1   0.0000
     5 O4       3.4101   3.1298   2.1829   O.3       1 RES1   0.0000
     6 O5      13.7088   3.1203  -2.5086   O.2       1 RES1   0.0000
     7 O6      13.8496   4.6592  -0.9089   O.3       1 RES1   0.0000
     8 N1       8.1690   3.7223   2.2643   N.2       1 RES1   0.0000
     9 N2      10.5306   3.8412   1.0215   N.2       1 RES1   0.0000
    10 C1       5.8709   2.1332   1.1638   C.2       1 RES1   0.0000
    11 C2       5.7761   3.2239   2.0858   C.2       1 RES1   0.0000
    12 C3       6.9256   3.9085   2.5942   C.2       1 RES1   0.0000
    13 H1       6.7604   4.5762   3.2489   H         1 RES1   0.0000
    14 C4       9.2006   4.4337   2.9363   C.ar      1 RES1   0.0000
    15 C5       9.0677   4.9862   4.2145   C.ar      1 RES1   0.0000
    16 H2       8.2388   4.9114   4.6726   H         1 RES1   0.0000
    17 C6      10.1214   5.6379   4.8198   C.ar      1 RES1   0.0000
    18 H3      10.0141   6.0169   5.6843   H         1 RES1   0.0000
    19 C7      11.3353   5.7401   4.1643   C.ar      1 RES1   0.0000
    20 H4      12.0581   6.2034   4.5723   H         1 RES1   0.0000
    21 C8      11.4990   5.1684   2.9149   C.ar      1 RES1   0.0000
    22 H5      12.3432   5.2222   2.4839   H         1 RES1   0.0000
    23 C9      10.4432   4.5124   2.2758   C.ar      1 RES1   0.0000
    24 C10     11.5832   4.0283   0.2755   C.2       1 RES1   0.0000
    25 H6      12.2130   4.6708   0.5831   H         1 RES1   0.0000
    26 C11     11.8908   3.3706  -0.9566   C.2       1 RES1   0.0000
    27 C12     11.0093   2.4422  -1.5825   C.2       1 RES1   0.0000
    28 C13      4.7008   1.3164   0.6753   C.3       1 RES1   0.0000
    29 H7       5.0268   0.5838   0.1094   H         1 RES1   0.0000
    30 H8       4.0978   1.8867   0.1546   H         1 RES1   0.0000
    31 H9       4.2181   0.9461   1.4427   H         1 RES1   0.0000
    32 C14      4.5236   3.7096   2.6657   C.2       1 RES1   0.0000
    33 C15      2.1479   3.5109   2.7874   C.3       1 RES1   0.0000
    34 H10      1.8828   4.4167   2.4897   H         1 RES1   0.0000
    35 H11      2.2240   3.5112   3.7744   H         1 RES1   0.0000
    36 C16      1.1372   2.4962   2.3408   C.3       1 RES1   0.0000
    37 H12      1.4206   1.6029   2.6287   H         1 RES1   0.0000
    38 H13      1.0630   2.5165   1.3637   H         1 RES1   0.0000
    39 H14      0.2665   2.7057   2.7389   H         1 RES1   0.0000
    40 C17     11.2666   1.8862  -2.9643   C.3       1 RES1   0.0000
    41 H15     10.4645   1.4218  -3.2842   H         1 RES1   0.0000
    42 H16     12.0162   1.2542  -2.9281   H         1 RES1   0.0000
    43 H17     11.4864   2.6192  -3.5762   H         1 RES1   0.0000
    44 C18     13.1834   3.6791  -1.5570   C.2       1 RES1   0.0000
    45 C19     15.2043   4.9335  -1.3505   C.3       1 RES1   0.0000
    46 H18     15.1988   5.2790  -2.2775   H         1 RES1   0.0000
    47 H19     15.7467   4.1059  -1.3275   H         1 RES1   0.0000
    48 C20     15.7693   5.9385  -0.4335   C.3       1 RES1   0.0000
    49 H20     15.7873   5.5763   0.4770   H         1 RES1   0.0000
    50 H21     15.2165   6.7467  -0.4540   H         1 RES1   0.0000
    51 H22     16.6823   6.1601  -0.7147   H         1 RES1   0.0000
    52 N3       7.7924   4.0680  -0.7731   N.2       1 RES1   0.0000
    53 N4       6.2986   4.7705  -2.2273   N.pl3     1 RES1   0.0000
    54 H23      5.7524   4.7492  -2.9199   H         1 RES1   0.0000
    55 C21      7.5435   5.4098  -0.5675   C.2       1 RES1   0.0000
    56 H24      7.9535   5.9412   0.1045   H         1 RES1   0.0000
    57 C22      6.6289   5.8615  -1.4616   C.2       1 RES1   0.0000
    58 H25      6.2893   6.7440  -1.5414   H         1 RES1   0.0000
    59 C23      7.0215   3.7153  -1.7930   C.2       1 RES1   0.0000
    60 C24      6.9539   2.3754  -2.4181   C.3       1 RES1   0.0000
    61 H26      6.5311   1.7461  -1.7972   H         1 RES1   0.0000
    62 H27      7.8598   2.0678  -2.6303   H         1 RES1   0.0000
    63 H28      6.4246   2.4246  -3.2415   H         1 RES1   0.0000
    64 N5       9.4083   0.9033   1.8819   N.2       1 RES1   0.0000
    65 N6      10.2169  -0.9652   2.7225   N.pl3     1 RES1   0.0000
    66 H29     10.7511  -1.6434   2.7965   H         1 RES1   0.0000
    67 C25      8.5559   0.4284   2.8664   C.2       1 RES1   0.0000
    68 H30      7.7468   0.8460   3.1345   H         1 RES1   0.0000
    69 C26      9.0453  -0.7112   3.3854   C.2       1 RES1   0.0000
    70 H31      8.6567  -1.2353   4.0746   H         1 RES1   0.0000
    71 C27     10.3964   0.0305   1.8185   C.2       1 RES1   0.0000
    72 C28     11.5543   0.0676   0.8924   C.3       1 RES1   0.0000
    73 H32     11.9270   0.9731   0.8718   H         1 RES1   0.0000
    74 H33     11.2596  -0.1865  -0.0082   H         1 RES1   0.0000
    75 H34     12.2395  -0.5622   1.2008   H         1 RES1   0.0000
@<TRIPOS>BOND
     1     1     2    1
     2     2    10    1
     3     3     1    1
     4     4    32    2
     5     5    32    1
     6     6    44    2
     7     7    44    1
     8     8     1    1
     9     9     1    1
    10    10    11    2
    11    11    12    1
    12    12     8    2
    13    13    12    1
    14    14     8    1
    15    15    14   ar
    16    16    15    1
    17    17    15   ar
    18    18    17    1
    19    19    17   ar
    20    20    19    1
    21    21    19   ar
    22    22    21    1
    23    23     9    1
    24    24     9    2
    25    25    24    1
    26    26    24    1
    27    27     3    1
    28    28    10    1
    29    29    28    1
    30    30    28    1
    31    31    28    1
    32    32    11    1
    33    33     5    1
    34    34    33    1
    35    35    33    1
    36    36    33    1
    37    37    36    1
    38    38    36    1
    39    39    36    1
    40    40    27    1
    41    41    40    1
    42    42    40    1
    43    43    40    1
    44    44    26    1
    45    45     7    1
    46    46    45    1
    47    47    45    1
    48    48    45    1
    49    49    48    1
    50    50    48    1
    51    51    48    1
    52    52     1    1
    53    53    54    1
    54    55    52    1
    55    56    55    1
    56    57    53    1
    57    58    57    1
    58    59    52    2
    59    60    59    1
    60    61    60    1
    61    62    60    1
    62    63    60    1
    63    64     1    1
    64    65    66    1
    65    67    64    1
    66    68    67    1
    67    69    65    1
    68    70    69    1
    69    71    64    2
    70    72    71    1
    71    73    72    1
    72    74    72    1
    73    75    72    1
    74    14    23   ar
    75    21    23   ar
    76    26    27    2
    77    53    59    1
    78    55    57    2
    79    65    71    1
    80    67    69    2
@<TRIPOS>SUBSTRUCTURE
     1 RES1        1 GROUP             0 ****  ****    0  
@<TRIPOS>CRYSIN
   12.9090   27.0300    8.2340   90.0000   92.6860   90.0000    14     1
