@<TRIPOS>MOLECULE
SOFZOF
    75    80     1     0     0
SMALL
NO_CHARGES
****
Generated from the CSD

@<TRIPOS>ATOM
     1 C1      -4.1287   4.3193  10.2215   C.ar      1 RES1   0.0000
     2 H1      -4.5202   5.1622  10.2276   H         1 RES1   0.0000
     3 C2      -4.9492   3.2210  10.3082   C.ar      1 RES1   0.0000
     4 H2      -5.8712   3.3249  10.3814   H         1 RES1   0.0000
     5 C3      -4.3786   1.9400  10.2852   C.ar      1 RES1   0.0000
     6 H3      -4.9133   1.1831  10.3577   H         1 RES1   0.0000
     7 C4      -3.0220   1.8230  10.1544   C.ar      1 RES1   0.0000
     8 H4      -2.6291   0.9802  10.1167   H         1 RES1   0.0000
     9 C5      -2.2152   2.9820  10.0757   C.ar      1 RES1   0.0000
    10 C6      -0.7968   2.9573   9.9648   C.2       1 RES1   0.0000
    11 C7      -0.0577   1.6561   9.9042   C.3       1 RES1   0.0000
    12 H5      -0.6848   0.9300   9.9481   H         1 RES1   0.0000
    13 H6       0.4335   1.6057   9.0817   H         1 RES1   0.0000
    14 H7       0.5505   1.5986  10.6445   H         1 RES1   0.0000
    15 C8       1.2172   4.2623   9.9348   C.ar      1 RES1   0.0000
    16 C9       1.9119   4.4212   8.7213   C.ar      1 RES1   0.0000
    17 C10      3.2887   4.6321   8.7754   C.ar      1 RES1   0.0000
    18 H8       3.7609   4.7587   7.9845   H         1 RES1   0.0000
    19 C11      3.9700   4.6572   9.9806   C.ar      1 RES1   0.0000
    20 H9       4.8871   4.8088   9.9969   H         1 RES1   0.0000
    21 C12      3.2809   4.4556  11.1575   C.ar      1 RES1   0.0000
    22 H10      3.7471   4.4602  11.9620   H         1 RES1   0.0000
    23 C13      1.9042   4.2460  11.1700   C.ar      1 RES1   0.0000
    24 C14      1.2125   4.3038   7.3786   C.3       1 RES1   0.0000
    25 H11      0.2470   4.3755   7.5276   H         1 RES1   0.0000
    26 C15      1.5012   2.9345   6.7447   C.3       1 RES1   0.0000
    27 H12      1.0546   2.8724   5.8967   H         1 RES1   0.0000
    28 H13      2.4469   2.8342   6.6153   H         1 RES1   0.0000
    29 H14      1.1828   2.2397   7.3251   H         1 RES1   0.0000
    30 C16      1.6290   5.4058   6.4108   C.3       1 RES1   0.0000
    31 H15      1.1644   5.2935   5.5788   H         1 RES1   0.0000
    32 H16      1.4091   6.2617   6.7868   H         1 RES1   0.0000
    33 H17      2.5762   5.3568   6.2575   H         1 RES1   0.0000
    34 C17      1.2222   3.9266  12.4890   C.3       1 RES1   0.0000
    35 H18      0.2549   3.9039  12.3346   H         1 RES1   0.0000
    36 C18      1.5049   4.9604  13.5750   C.3       1 RES1   0.0000
    37 H19      1.0510   4.7085  14.3825   H         1 RES1   0.0000
    38 H20      2.4501   5.0022  13.7393   H         1 RES1   0.0000
    39 H21      1.1911   5.8212  13.2868   H         1 RES1   0.0000
    40 C19      1.6629   2.5345  12.9648   C.3       1 RES1   0.0000
    41 H22      1.2334   2.3304  13.7984   H         1 RES1   0.0000
    42 H23      1.4154   1.8791  12.3080   H         1 RES1   0.0000
    43 H24      2.6150   2.5238  13.0843   H         1 RES1   0.0000
    44 C20     -1.1465   7.0067   8.3836   C.2       1 RES1   0.0000
    45 H25     -0.7902   7.8902   8.5656   H         1 RES1   0.0000
    46 H26     -0.7849   6.5996   7.5809   H         1 RES1   0.0000
    47 C21     -2.5170   6.8186   8.6203   C.2       1 RES1   0.0000
    48 H27     -2.9580   6.2534   7.9520   H         1 RES1   0.0000
    49 C22     -2.8751   9.7669   9.3892   C.3       1 RES1   0.0000
    50 H28     -2.6679  10.0176   8.4858   H         1 RES1   0.0000
    51 H29     -3.4880  10.4020   9.7662   H         1 RES1   0.0000
    52 H30     -2.0672   9.7514   9.9097   H         1 RES1   0.0000
    53 C23     -5.2755   8.1134   8.5020   C.3       1 RES1   0.0000
    54 H31     -5.1283   8.3558   7.5853   H         1 RES1   0.0000
    55 H32     -5.6847   7.2455   8.5420   H         1 RES1   0.0000
    56 H33     -5.8526   8.7581   8.9146   H         1 RES1   0.0000
    57 C24     -4.3064   6.2152  13.3877   C.3       1 RES1   0.0000
    58 H34     -3.8609   6.0039  14.2110   H         1 RES1   0.0000
    59 H35     -5.1291   6.6724  13.5766   H         1 RES1   0.0000
    60 H36     -4.4951   5.4046  12.9083   H         1 RES1   0.0000
    61 C25     -2.9627   8.9336  13.2113   C.3       1 RES1   0.0000
    62 H37     -2.5061   8.7903  14.0439   H         1 RES1   0.0000
    63 H38     -2.4365   9.5090  12.6525   H         1 RES1   0.0000
    64 H39     -3.8154   9.3419  13.3800   H         1 RES1   0.0000
    65 C26     -1.6005   6.4659  12.0185   C.2       1 RES1   0.0000
    66 H40     -1.3156   5.8355  12.7131   H         1 RES1   0.0000
    67 C27     -0.5438   7.0998  11.3348   C.2       1 RES1   0.0000
    68 H41      0.3541   6.8921  11.6382   H         1 RES1   0.0000
    69 H42     -0.6694   8.0382  11.1207   H         1 RES1   0.0000
    70 Fe1     -1.4223   5.7347  10.0467   Fe        1 RES1   0.0000
    71 N1      -2.7772   4.2372  10.1275   N.ar      1 RES1   0.0000
    72 N2      -0.2155   4.1638   9.9265   N.2       1 RES1   0.0000
    73 Si1     -3.6507   8.0729   9.3997   Si        1 RES1   0.0000
    74 Si2     -3.2162   7.3030  12.3560   Si        1 RES1   0.0000
    75 O1      -4.0006   7.6517  10.9494   O.3       1 RES1   0.0000
@<TRIPOS>BOND
     1     1     2    1
     2     3     1   ar
     3     4     3    1
     4     5     3   ar
     5     6     5    1
     6     7     5   ar
     7     8     7    1
     8     9     7   ar
     9    10     9    1
    10    11    10    1
    11    12    11    1
    12    13    11    1
    13    14    11    1
    14    15    16   ar
    15    16    17   ar
    16    17    18    1
    17    19    17   ar
    18    20    19    1
    19    21    19   ar
    20    22    21    1
    21    23    15   ar
    22    24    16    1
    23    25    24    1
    24    26    24    1
    25    27    26    1
    26    28    26    1
    27    29    26    1
    28    30    24    1
    29    31    30    1
    30    32    30    1
    31    33    30    1
    32    34    23    1
    33    35    34    1
    34    36    34    1
    35    37    36    1
    36    38    36    1
    37    39    36    1
    38    40    34    1
    39    41    40    1
    40    42    40    1
    41    43    40    1
    42    44    45    1
    43    46    44    1
    44    47    44    2
    45    48    47    1
    46    49    50    1
    47    51    49    1
    48    52    49    1
    49    53    54    1
    50    55    53    1
    51    56    53    1
    52    57    58    1
    53    59    57    1
    54    60    57    1
    55    61    62    1
    56    63    61    1
    57    64    61    1
    58    65    66    1
    59    67    65    2
    60    68    67    1
    61    69    67    1
    62    70    44   un
    63    71     1   ar
    64    72    10    2
    65    73    47    1
    66    74    57    1
    67    75    73    1
    68     9    71   ar
    69    15    72    1
    70    21    23   ar
    71    47    70   un
    72    49    73    1
    73    53    73    1
    74    61    74    1
    75    65    70   un
    76    65    74    1
    77    67    70   un
    78    70    71    1
    79    70    72    1
    80    74    75    1
@<TRIPOS>SUBSTRUCTURE
     1 RES1        1 GROUP             0 ****  ****    0  
@<TRIPOS>CRYSIN
   16.2160   11.9385   16.7276   90.0000  117.8790   90.0000    14     1
