@<TRIPOS>MOLECULE
SOFZIZ
    99   104     2     0     0
SMALL
NO_CHARGES
****
Generated from the CSD

@<TRIPOS>ATOM
     1 C1       0.6608  12.0881   4.9019   C.ar      1 RES1   0.0000
     2 H1       0.4877  11.7998   4.0345   H         1 RES1   0.0000
     3 C2      -0.3937  12.1546   5.7801   C.ar      1 RES1   0.0000
     4 H2      -1.2560  11.9450   5.4977   H         1 RES1   0.0000
     5 C3      -0.1527  12.5417   7.1236   C.ar      1 RES1   0.0000
     6 H3      -0.8423  12.5760   7.7449   H         1 RES1   0.0000
     7 C4       1.1170  12.8623   7.4706   C.ar      1 RES1   0.0000
     8 H4       1.3067  13.1062   8.3474   H         1 RES1   0.0000
     9 C5       2.1578  12.8320   6.5144   C.ar      1 RES1   0.0000
    10 C6       3.4859  13.2393   6.7659   C.2       1 RES1   0.0000
    11 C7       3.9239  13.7130   8.1268   C.3       1 RES1   0.0000
    12 H5       3.8827  12.9812   8.7481   H         1 RES1   0.0000
    13 H6       3.3423  14.4166   8.4227   H         1 RES1   0.0000
    14 H7       4.8245  14.0416   8.0771   H         1 RES1   0.0000
    15 C8       5.6830  13.5296   5.8366   C.ar      1 RES1   0.0000
    16 C9       6.5684  12.6990   6.5426   C.ar      1 RES1   0.0000
    17 C10      7.9129  13.0538   6.5614   C.ar      1 RES1   0.0000
    18 H8       8.5044  12.5014   7.0187   H         1 RES1   0.0000
    19 C11      8.4202  14.1767   5.9415   C.ar      1 RES1   0.0000
    20 C12      7.4800  15.0053   5.2744   C.ar      1 RES1   0.0000
    21 H9       7.7797  15.7815   4.8602   H         1 RES1   0.0000
    22 C13      6.1479  14.6969   5.2220   C.ar      1 RES1   0.0000
    23 C14      6.1285  11.4329   7.2258   C.3       1 RES1   0.0000
    24 H10      6.6268  10.6910   6.8748   H         1 RES1   0.0000
    25 H11      5.1921  11.2938   7.0684   H         1 RES1   0.0000
    26 H12      6.2881  11.5075   8.1699   H         1 RES1   0.0000
    27 C15      5.2013  15.6142   4.4917   C.3       1 RES1   0.0000
    28 H13      5.6826  16.3823   4.1730   H         1 RES1   0.0000
    29 H14      4.5050  15.8984   5.0889   H         1 RES1   0.0000
    30 H15      4.8135  15.1484   3.7467   H         1 RES1   0.0000
    31 C16      9.8757  14.5194   5.9993   C.3       1 RES1   0.0000
    32 H16     10.1955  14.4126   6.8977   H         1 RES1   0.0000
    33 H17     10.0019  15.4307   5.7209   H         1 RES1   0.0000
    34 H18     10.3659  13.9368   5.4143   H         1 RES1   0.0000
    35 C17      6.3001  12.1647   3.2612   C.ar      1 RES1   0.0000
    36 H19      6.4671  11.7938   4.0977   H         1 RES1   0.0000
    37 C18      7.3754  12.3341   2.4032   C.ar      1 RES1   0.0000
    38 H20      8.2342  12.0942   2.6682   H         1 RES1   0.0000
    39 C19      7.1481  12.8703   1.1350   C.ar      1 RES1   0.0000
    40 H21      7.8504  12.9852   0.5366   H         1 RES1   0.0000
    41 C20      5.8784  13.2231   0.7908   C.ar      1 RES1   0.0000
    42 H22      5.7068  13.5659  -0.0578   H         1 RES1   0.0000
    43 C21      4.8116  13.0719   1.7214   C.ar      1 RES1   0.0000
    44 C22      3.4817  13.4711   1.4981   C.2       1 RES1   0.0000
    45 C23      3.0507  14.1384   0.2071   C.3       1 RES1   0.0000
    46 H23      2.1717  14.5094   0.3160   H         1 RES1   0.0000
    47 H24      3.0397  13.4913  -0.5003   H         1 RES1   0.0000
    48 H25      3.6686  14.8420  -0.0108   H         1 RES1   0.0000
    49 C24      1.3011  13.6868   2.4261   C.ar      1 RES1   0.0000
    50 C25      0.3671  12.9389   1.6864   C.ar      1 RES1   0.0000
    51 C26     -0.9713  13.3300   1.6985   C.ar      1 RES1   0.0000
    52 H26     -1.5894  12.8240   1.2225   H         1 RES1   0.0000
    53 C27     -1.4177  14.4449   2.3951   C.ar      1 RES1   0.0000
    54 C28     -0.4835  15.2009   3.0689   C.ar      1 RES1   0.0000
    55 H27     -0.7611  15.9649   3.5194   H         1 RES1   0.0000
    56 C29      0.8704  14.8501   3.0985   C.ar      1 RES1   0.0000
    57 C30      0.7824  11.7454   0.8822   C.3       1 RES1   0.0000
    58 H28      0.0408  11.1386   0.8042   H         1 RES1   0.0000
    59 H29      1.5124  11.3019   1.3220   H         1 RES1   0.0000
    60 H30      1.0581  12.0276   0.0081   H         1 RES1   0.0000
    61 C31     -2.8842  14.8319   2.3763   C.3       1 RES1   0.0000
    62 H31     -3.0001  15.6666   2.8349   H         1 RES1   0.0000
    63 H32     -3.3999  14.1505   2.8147   H         1 RES1   0.0000
    64 H33     -3.1789  14.9206   1.4672   H         1 RES1   0.0000
    65 C32      1.8542  15.6988   3.8395   C.3       1 RES1   0.0000
    66 H34      1.4056  16.4689   4.1972   H         1 RES1   0.0000
    67 H35      2.5478  15.9831   3.2397   H         1 RES1   0.0000
    68 H36      2.2391  15.1908   4.5576   H         1 RES1   0.0000
    69 C33      3.9691  10.4551   4.7352   C.2       1 RES1   0.0000
    70 H37      4.8411  10.1366   4.6706   H         1 RES1   0.0000
    71 H38      3.6987  10.9188   5.4950   H         1 RES1   0.0000
    72 C34      3.0564  10.2334   3.6795   C.2       1 RES1   0.0000
    73 H39      2.1918  10.5620   3.7696   H         1 RES1   0.0000
    74 C35      3.4014   9.5116   2.4449   C.2       1 RES1   0.0000
    75 C36      2.4524   8.8423   1.7550   C.2       1 RES1   0.0000
    76 H40      1.5727   8.8363   2.0616   H         1 RES1   0.0000
    77 H41      2.6750   8.3887   0.9763   H         1 RES1   0.0000
    78 C37      4.8358   9.4149   1.9904   C.3       1 RES1   0.0000
    79 H42      5.3916   9.9390   2.5727   H         1 RES1   0.0000
    80 H43      5.1190   8.4976   2.0186   H         1 RES1   0.0000
    81 H44      4.9104   9.7455   1.0934   H         1 RES1   0.0000
    82 Fe1      3.4817  12.3270   4.0804   Fe        1 RES1   0.0000
    83 N1       1.9349  12.4167   5.2153   N.ar      1 RES1   0.0000
    84 N2       4.2919  13.1627   5.6873   N.2       1 RES1   0.0000
    85 N3       5.0228  12.5014   2.9627   N.ar      1 RES1   0.0000
    86 N4       2.6781  13.2635   2.5417   N.2       1 RES1   0.0000
    87 C38      9.4606   9.7717   5.0162   C.2       2 RES2   0.0000
    88 H45     10.3656   9.9330   5.1534   H         2 RES2   0.0000
    89 H46      8.8710   9.7838   5.7371   H         2 RES2   0.0000
    90 C39      9.0088   9.5217   3.7951   C.2       2 RES2   0.0000
    91 H47      8.0961   9.3665   3.7064   H         2 RES2   0.0000
    92 C40      9.8127   9.4713   2.5767   C.2       2 RES2   0.0000
    93 C41      9.2194   9.3322   1.4040   C.2       2 RES2   0.0000
    94 H48      8.2930   9.2677   1.3569   H         2 RES2   0.0000
    95 H49      9.7277   9.2979   0.6267   H         2 RES2   0.0000
    96 C42     11.3012   9.6104   2.7193   C.3       2 RES2   0.0000
    97 H50     11.5283   9.6971   3.6472   H         2 RES2   0.0000
    98 H51     11.7318   8.8302   2.3575   H         2 RES2   0.0000
    99 H52     11.5985  10.3886   2.2418   H         2 RES2   0.0000
@<TRIPOS>BOND
     1     1     2    1
     2     3     1   ar
     3     4     3    1
     4     5     3   ar
     5     6     5    1
     6     7     5   ar
     7     8     7    1
     8     9     7   ar
     9    10     9    1
    10    11    10    1
    11    12    11    1
    12    13    11    1
    13    14    11    1
    14    15    16   ar
    15    16    17   ar
    16    17    18    1
    17    19    17   ar
    18    20    19   ar
    19    21    20    1
    20    22    15   ar
    21    23    16    1
    22    24    23    1
    23    25    23    1
    24    26    23    1
    25    27    22    1
    26    28    27    1
    27    29    27    1
    28    30    27    1
    29    31    19    1
    30    32    31    1
    31    33    31    1
    32    34    31    1
    33    35    36    1
    34    37    35   ar
    35    38    37    1
    36    39    37   ar
    37    40    39    1
    38    41    39   ar
    39    42    41    1
    40    43    41   ar
    41    44    43    1
    42    45    44    1
    43    46    45    1
    44    47    45    1
    45    48    45    1
    46    49    50   ar
    47    50    51   ar
    48    51    52    1
    49    53    51   ar
    50    54    53   ar
    51    55    54    1
    52    56    49   ar
    53    57    50    1
    54    58    57    1
    55    59    57    1
    56    60    57    1
    57    61    53    1
    58    62    61    1
    59    63    61    1
    60    64    61    1
    61    65    56    1
    62    66    65    1
    63    67    65    1
    64    68    65    1
    65    69    70    1
    66    71    69    1
    67    72    69    2
    68    73    72    1
    69    74    72    1
    70    75    74    2
    71    76    75    1
    72    77    75    1
    73    78    74    1
    74    79    78    1
    75    80    78    1
    76    81    78    1
    77    82    69   un
    78    83     1   ar
    79    84    10    2
    80    85    35   ar
    81    86    44    2
    82     9    83   ar
    83    15    84    1
    84    20    22   ar
    85    43    85   ar
    86    49    86    1
    87    54    56   ar
    88    72    82   un
    89    82    83    1
    90    82    84    1
    91    82    85    1
    92    82    86    1
    93    87    88    1
    94    89    87    1
    95    90    87    2
    96    91    90    1
    97    92    90    1
    98    93    92    2
    99    94    93    1
   100    95    93    1
   101    96    92    1
   102    97    96    1
   103    98    96    1
   104    99    96    1
@<TRIPOS>SUBSTRUCTURE
     1 RES1        1 GROUP             0 ****  ****    0  
     2 RES2       87 GROUP             0 ****  ****    0  
@<TRIPOS>CRYSIN
   13.2585   20.1603   14.9568   90.0000  115.9540   90.0000    14     1
