@<TRIPOS>MOLECULE
SOGQEM
    94    97     5     0     0
SMALL
USER_CHARGES
****
Generated from the CSD

@<TRIPOS>ATOM
     1 Fe1      0.8308   2.7019  11.2743   Fe        1 RES1   1.0000
     2 N1       2.5433   2.6719  10.3771   N.ar      1 RES1   0.0000
     3 O1      -0.9832   4.4753   8.1266   O.2       1 RES1   0.0000
     4 N2       1.4264   1.3541  12.5025   N.1       1 RES1   0.0000
     5 N3       0.2821   1.4681   9.8340   N.3       1 RES1   0.0000
     6 N4       1.2081   4.2249  12.4400   N.ar      1 RES1   0.0000
     7 N5       0.2110   4.0646  10.0945   N.am      1 RES1   0.0000
     8 N6      -0.9683   2.3534  11.9451   N.ar      1 RES1   0.0000
     9 C1       1.7652   0.6166  13.3243   C.1       1 RES1   0.0000
    10 C2       1.8653   5.4327  14.4521   C.ar      1 RES1   0.0000
    11 H1       2.2159   5.4001  15.3351   H         1 RES1   0.0000
    12 C3      -0.4216   3.7645   8.9536   C.2       1 RES1   0.0000
    13 C4       0.8280   5.4652  11.9021   C.ar      1 RES1   0.0000
    14 C5      -0.7861   0.5770  10.3862   C.3       1 RES1   0.0000
    15 H2      -1.3433   0.2234   9.6478   H         1 RES1   0.0000
    16 H3      -0.3746  -0.1885  10.8590   H         1 RES1   0.0000
    17 C6       1.7346   4.2577  13.6889   C.ar      1 RES1   0.0000
    18 H4       2.0328   3.4411  14.0705   H         1 RES1   0.0000
    19 C7       0.3064   5.3954  10.5607   C.ar      1 RES1   0.0000
    20 C8      -1.6212   1.3448  11.3174   C.ar      1 RES1   0.0000
    21 C9      -1.6559   3.0386  12.9531   C.ar      1 RES1   0.0000
    22 H5      -1.2214   3.7528  13.3998   H         1 RES1   0.0000
    23 C10      1.4713   6.6332  13.8908   C.ar      1 RES1   0.0000
    24 H6       1.5571   7.4336  14.3961   H         1 RES1   0.0000
    25 C11      3.8302   1.5146   8.6359   C.ar      1 RES1   0.0000
    26 H7       3.8723   0.8446   7.9638   H         1 RES1   0.0000
    27 C12      4.8087   3.3713   9.8067   C.ar      1 RES1   0.0000
    28 H8       5.5386   3.9576   9.9629   H         1 RES1   0.0000
    29 C13      0.9393   6.6960  12.5663   C.ar      1 RES1   0.0000
    30 C14      2.1454  -0.3234  14.4235   C.3       1 RES1   0.0000
    31 H9       3.0822  -0.1745  14.6709   H         1 RES1   0.0000
    32 H10      2.0317  -1.2471  14.1161   H         1 RES1   0.0000
    33 H11      1.5729  -0.1652  15.2023   H         1 RES1   0.0000
    34 C15      4.9121   2.3825   8.8677   C.ar      1 RES1   0.0000
    35 H12      5.7169   2.2824   8.3728   H         1 RES1   0.0000
    36 C16     -2.9293   2.7082  13.3126   C.ar      1 RES1   0.0000
    37 H13     -3.3627   3.1782  14.0158   H         1 RES1   0.0000
    38 C17     -0.3271   2.2685   8.6515   C.3       1 RES1   0.0000
    39 H14      0.2333   2.1335   7.8453   H         1 RES1   0.0000
    40 H15     -1.2318   1.9171   8.4535   H         1 RES1   0.0000
    41 C18      2.6897   1.6775   9.4290   C.ar      1 RES1   0.0000
    42 C19      3.6139   3.5155  10.5451   C.ar      1 RES1   0.0000
    43 H16      3.5495   4.2205  11.1793   H         1 RES1   0.0000
    44 C20      0.5882   7.8710  11.8904   C.ar      1 RES1   0.0000
    45 H17      0.6600   8.7132  12.3267   H         1 RES1   0.0000
    46 C21      0.1397   7.8012  10.5946   C.ar      1 RES1   0.0000
    47 H18     -0.0634   8.6062  10.1322   H         1 RES1   0.0000
    48 C22      1.5015   0.7375   9.3782   C.3       1 RES1   0.0000
    49 H19      1.3713   0.4095   8.4535   H         1 RES1   0.0000
    50 H20      1.6658  -0.0419   9.9655   H         1 RES1   0.0000
    51 C23     -0.0267   6.5680   9.9330   C.ar      1 RES1   0.0000
    52 H21     -0.3720   6.5494   9.0474   H         1 RES1   0.0000
    53 C24     -3.5933   1.6821  12.6458   C.ar      1 RES1   0.0000
    54 H22     -4.4868   1.4495  12.8698   H         1 RES1   0.0000
    55 C25     -2.9060   1.0028  11.6391   C.ar      1 RES1   0.0000
    56 H23     -3.3342   0.2955  11.1715   H         1 RES1   0.0000
    57 Cl1     -4.1372   0.2715   7.9128   Cl        2 RES2   0.0000
    58 O2      -3.6752   1.5472   8.3923   O.3       2 RES2  -1.0000
    59 O3      -4.6612  -0.4800   9.0266   O.2       2 RES2   0.0000
    60 O4      -3.0436  -0.4469   7.3049   O.2       2 RES2   0.0000
    61 O5      -5.1727   0.4630   6.9428   O.2       2 RES2   0.0000
    62 Cl2      5.3175   2.9388  14.5572   Cl        3 RES3   0.0000
    63 O6       4.7989   3.9822  15.3651   O.3       3 RES3  -1.0000
    64 O7       6.5721   2.4965  15.1306   O.2       3 RES3   0.0000
    65 O8       5.5193   3.3783  13.1941   O.2       3 RES3   0.0000
    66 O9       4.4120   1.8243  14.5667   O.2       3 RES3   0.0000
    67 N7      -2.7698   4.5330   6.1275   N.3       4 RES4   1.0000
    68 C26     -3.1827   3.2782   5.4308   C.3       4 RES4   0.0000
    69 H24     -3.6633   3.5178   4.5999   H         4 RES4   0.0000
    70 H25     -3.8111   2.7826   6.0116   H         4 RES4   0.0000
    71 C27     -3.9360   5.3536   6.5912   C.3       4 RES4   0.0000
    72 H26     -3.5934   6.1679   7.0353   H         4 RES4   0.0000
    73 H27     -4.4578   5.6397   5.7993   H         4 RES4   0.0000
    74 C28     -4.8416   4.6416   7.5289   C.3       4 RES4   0.0000
    75 H28     -5.5750   5.2372   7.7880   H         4 RES4   0.0000
    76 H29     -4.3405   4.3740   8.3272   H         4 RES4   0.0000
    77 H30     -5.2056   3.8459   7.0887   H         4 RES4   0.0000
    78 C29     -1.7959   5.3838   5.3344   C.3       4 RES4   0.0000
    79 H31     -0.9967   4.8347   5.1338   H         4 RES4   0.0000
    80 H32     -1.5016   6.1353   5.9087   H         4 RES4   0.0000
    81 C30     -2.0235   2.3801   5.0844   C.3       4 RES4   0.0000
    82 H33     -2.3576   1.5774   4.6337   H         4 RES4   0.0000
    83 H34     -1.5532   2.1242   5.9048   H         4 RES4   0.0000
    84 H35     -1.4073   2.8571   4.4905   H         4 RES4   0.0000
    85 C31     -2.2994   5.9445   4.0659   C.3       4 RES4   0.0000
    86 H36     -1.5946   6.4750   3.6388   H         4 RES4   0.0000
    87 H37     -3.0743   6.5169   4.2469   H         4 RES4   0.0000
    88 H38     -2.5663   5.2140   3.4681   H         4 RES4   0.0000
    89 C32      3.9781   7.8942  11.2418   C.1       5 RES5   0.0000
    90 N8       4.0394   6.7449  11.3317   N.1       5 RES5   0.0000
    91 C33      3.9554   9.3065  11.1207   C.3       5 RES5   0.0000
    92 H39      4.2440   9.5601  10.2195   H         5 RES5   0.0000
    93 H40      4.5634   9.6997  11.7810   H         5 RES5   0.0000
    94 H41      3.0449   9.6322  11.2783   H         5 RES5   0.0000
@<TRIPOS>BOND
     1     1     2    1
     2     2    41   ar
     3     3    12    2
     4     4     1    1
     5     5     1    1
     6     6     1    1
     7     7     1    1
     8     8     1    1
     9     9     4    3
    10    10    11    1
    11    12     7   am
    12    13     6   ar
    13    14     5    1
    14    15    14    1
    15    16    14    1
    16    17     6   ar
    17    18    17    1
    18    19     7    1
    19    20     8   ar
    20    21     8   ar
    21    22    21    1
    22    23    10   ar
    23    24    23    1
    24    25    26    1
    25    27    28    1
    26    29    13   ar
    27    30     9    1
    28    31    30    1
    29    32    30    1
    30    33    30    1
    31    34    25   ar
    32    35    34    1
    33    36    21   ar
    34    37    36    1
    35    38     5    1
    36    39    38    1
    37    40    38    1
    38    41    25   ar
    39    42     2   ar
    40    43    42    1
    41    44    29   ar
    42    45    44    1
    43    46    44   ar
    44    47    46    1
    45    48     5    1
    46    49    48    1
    47    50    48    1
    48    51    19   ar
    49    52    51    1
    50    53    36   ar
    51    54    53    1
    52    55    20   ar
    53    56    55    1
    54    10    17   ar
    55    12    38    1
    56    13    19   ar
    57    14    20    1
    58    23    29   ar
    59    27    34   ar
    60    27    42   ar
    61    41    48    1
    62    46    51   ar
    63    53    55   ar
    64    57    58    1
    65    59    57    2
    66    60    57    2
    67    61    57    2
    68    62    63    1
    69    64    62    2
    70    65    62    2
    71    66    62    2
    72    67    68    1
    73    68    69    1
    74    70    68    1
    75    71    67    1
    76    72    71    1
    77    73    71    1
    78    74    71    1
    79    75    74    1
    80    76    74    1
    81    77    74    1
    82    78    67    1
    83    79    78    1
    84    80    78    1
    85    81    68    1
    86    82    81    1
    87    83    81    1
    88    84    81    1
    89    85    78    1
    90    86    85    1
    91    87    85    1
    92    88    85    1
    93    89    90    3
    94    91    89    1
    95    92    91    1
    96    93    91    1
    97    94    91    1
@<TRIPOS>SUBSTRUCTURE
     1 RES1        1 GROUP             0 ****  ****    0  
     2 RES2       57 GROUP             0 ****  ****    0  
     3 RES3       62 GROUP             0 ****  ****    0  
     4 RES4       67 GROUP             0 ****  ****    0  
     5 RES5       89 GROUP             0 ****  ****    0  
@<TRIPOS>CRYSIN
   12.1581   23.2662   13.2420   90.0000  100.4240   90.0000    14     1
