@<TRIPOS>MOLECULE
SOKDEB
   102   109     2     0     0
SMALL
NO_CHARGES
****
Generated from the CSD

@<TRIPOS>ATOM
     1 Fe1      5.9522   2.9464   2.8918   Fe        1 RES1   0.0000
     2 N1       5.7379   0.9791   3.0443   N.2       1 RES1   0.0000
     3 N2       5.3511   3.1449   4.7669   N.2       1 RES1   0.0000
     4 N3       6.2498   4.9012   2.7750   N.2       1 RES1   0.0000
     5 N4       6.5523   2.7449   1.0215   N.2       1 RES1   0.0000
     6 N5       7.9258   2.6853   3.5176   N.ar      1 RES1   0.0000
     7 N6       3.0641   3.2230   1.8760   N.1       1 RES1   0.0000
     8 C1       4.1341   3.1300   2.2577   C.1       1 RES1   0.0000
     9 C2       6.1538   0.0369   2.1346   C.2       1 RES1   0.0000
    10 C3       5.2032   0.2693   4.0884   C.2       1 RES1   0.0000
    11 C4       4.7589   2.1811   5.5562   C.2       1 RES1   0.0000
    12 C5       5.4021   4.2849   5.5355   C.2       1 RES1   0.0000
    13 C6       6.1891   5.8243   3.8082   C.2       1 RES1   0.0000
    14 C7       6.4997   5.6486   1.6512   C.2       1 RES1   0.0000
    15 C8       6.8355   3.7576   0.1233   C.2       1 RES1   0.0000
    16 C9       6.8538   1.5730   0.3563   C.2       1 RES1   0.0000
    17 C10      5.9261  -1.2934   2.6418   C.2       1 RES1   0.0000
    18 C11      5.3276  -1.1458   3.8576   C.2       1 RES1   0.0000
    19 C12      4.3819   2.7495   6.8263   C.2       1 RES1   0.0000
    20 C13      4.8363   4.0179   6.8451   C.2       1 RES1   0.0000
    21 C14      6.4286   7.1534   3.2920   C.2       1 RES1   0.0000
    22 C15      6.5804   7.0551   1.9576   C.2       1 RES1   0.0000
    23 C16      7.3538   3.1972  -1.1055   C.2       1 RES1   0.0000
    24 C17      7.3698   1.8566  -0.9503   C.2       1 RES1   0.0000
    25 C18      4.6727   0.8510   5.2291   C.2       1 RES1   0.0000
    26 C19      5.8432   5.5090   5.1036   C.2       1 RES1   0.0000
    27 C20      6.7434   5.1035   0.4052   C.2       1 RES1   0.0000
    28 C21      6.6807   0.3186   0.8968   C.2       1 RES1   0.0000
    29 C22      6.3504  -2.5462   1.9398   C.3       1 RES1   0.0000
    30 C23      7.8204  -2.8228   2.0804   C.3       1 RES1   0.0000
    31 C24      4.9128  -2.2098   4.8365   C.3       1 RES1   0.0000
    32 C25      5.9618  -2.4732   5.8978   C.3       1 RES1   0.0000
    33 C26      3.6266   2.0181   7.8906   C.3       1 RES1   0.0000
    34 C27      2.1470   1.9807   7.6183   C.3       1 RES1   0.0000
    35 C28      4.8537   5.0202   8.0243   C.3       1 RES1   0.0000
    36 C29      3.7072   5.8137   7.9760   C.3       1 RES1   0.0000
    37 C30      6.4508   8.4006   4.1719   C.3       1 RES1   0.0000
    38 C31      7.7431   8.5789   4.8941   C.3       1 RES1   0.0000
    39 C32      6.8280   8.1574   0.9424   C.3       1 RES1   0.0000
    40 C33      8.3079   8.3459   0.6758   C.3       1 RES1   0.0000
    41 C34      7.9134   4.0271  -2.2222   C.3       1 RES1   0.0000
    42 C35      9.2935   4.5542  -1.9167   C.3       1 RES1   0.0000
    43 C36      7.9147   0.8210  -1.8924   C.3       1 RES1   0.0000
    44 C37      9.3368   0.4808  -1.5770   C.3       1 RES1   0.0000
    45 C38      8.2148   2.0781   4.6714   C.ar      1 RES1   0.0000
    46 C39      9.5017   1.8037   5.0635   C.ar      1 RES1   0.0000
    47 C40     10.5455   2.1444   4.2518   C.ar      1 RES1   0.0000
    48 C41     10.2694   2.7623   3.0495   C.ar      1 RES1   0.0000
    49 C42      8.9484   3.0276   2.7403   C.ar      1 RES1   0.0000
    50 H1       4.2344   0.2743   5.8359   H         1 RES1   0.0000
    51 H2       5.9191   6.1838   5.7650   H         1 RES1   0.0000
    52 H3       6.8721   5.7119  -0.3056   H         1 RES1   0.0000
    53 H4       6.9538  -0.4203   0.3656   H         1 RES1   0.0000
    54 H5       6.1635  -2.4644   1.0068   H         1 RES1   0.0000
    55 H6       5.8432  -3.2888   2.2836   H         1 RES1   0.0000
    56 H7       4.8058  -3.0174   4.3735   H         1 RES1   0.0000
    57 H8       4.0940  -1.9423   5.2411   H         1 RES1   0.0000
    58 H9       3.7734   2.4511   8.7307   H         1 RES1   0.0000
    59 H10      3.9568   1.1267   7.9422   H         1 RES1   0.0000
    60 H11      5.6634   5.5836   7.9504   H         1 RES1   0.0000
    61 H12      4.9172   4.5630   8.8534   H         1 RES1   0.0000
    62 H13      5.7431   8.3149   4.8182   H         1 RES1   0.0000
    63 H14      6.2305   9.1629   3.6123   H         1 RES1   0.0000
    64 H15      6.4912   8.9579   1.2932   H         1 RES1   0.0000
    65 H16      6.3859   7.9226   0.1419   H         1 RES1   0.0000
    66 H17      7.3406   4.7577  -2.3982   H         1 RES1   0.0000
    67 H18      7.9686   3.4791  -3.0148   H         1 RES1   0.0000
    68 H19      7.8617   1.1651  -2.7802   H         1 RES1   0.0000
    69 H20      7.3703   0.0383  -1.8307   H         1 RES1   0.0000
    70 H21      7.9992  -2.9570   3.0339   H         1 RES1   0.0000
    71 H22      8.3187  -2.1429   1.7516   H         1 RES1   0.0000
    72 H23      8.0225  -3.6619   1.6506   H         1 RES1   0.0000
    73 H24      6.0597  -1.6179   6.4389   H         1 RES1   0.0000
    74 H25      6.7608  -2.7018   5.5794   H         1 RES1   0.0000
    75 H26      5.6130  -3.0986   6.5453   H         1 RES1   0.0000
    76 H27      2.0014   1.5249   6.8290   H         1 RES1   0.0000
    77 H28      1.8165   2.8390   7.6311   H         1 RES1   0.0000
    78 H29      1.7513   1.4719   8.3596   H         1 RES1   0.0000
    79 H30      2.9585   5.2916   8.0540   H         1 RES1   0.0000
    80 H31      3.7036   6.3077   7.1510   H         1 RES1   0.0000
    81 H32      3.7448   6.4655   8.6925   H         1 RES1   0.0000
    82 H33      8.4742   8.7072   4.2044   H         1 RES1   0.0000
    83 H34      7.9836   7.8681   5.4130   H         1 RES1   0.0000
    84 H35      7.7578   9.4019   5.3912   H         1 RES1   0.0000
    85 H36      8.6552   7.4979   0.3192   H         1 RES1   0.0000
    86 H37      8.7596   8.5361   1.4678   H         1 RES1   0.0000
    87 H38      8.4261   9.0037   0.0246   H         1 RES1   0.0000
    88 H39      9.8945   3.7991  -1.7188   H         1 RES1   0.0000
    89 H40      9.2675   5.0777  -1.1022   H         1 RES1   0.0000
    90 H41      9.6562   5.0497  -2.6028   H         1 RES1   0.0000
    91 H42      9.3851   0.1386  -0.6739   H         1 RES1   0.0000
    92 H43      9.8754   1.2624  -1.6234   H         1 RES1   0.0000
    93 H44      9.6586  -0.1726  -2.1663   H         1 RES1   0.0000
    94 H45      7.4916   1.8258   5.2329   H         1 RES1   0.0000
    95 H46      9.5942   1.3804   5.9178   H         1 RES1   0.0000
    96 H47     11.4392   1.9866   4.5072   H         1 RES1   0.0000
    97 H48     10.9728   2.9761   2.4364   H         1 RES1   0.0000
    98 H49      8.7597   3.4805   1.9398   H         1 RES1   0.0000
    99 C43      1.7441   5.7679   3.3261   C.3       2 RES2   0.0000
   100 Cl1      0.1693   6.3644   2.8896   Cl        2 RES2   0.0000
   101 Cl2      2.9629   6.9566   2.9774   Cl        2 RES2   0.0000
   102 Cl3      1.7634   5.3908   5.0204   Cl        2 RES2   0.0000
@<TRIPOS>BOND
     1     1     2    1
     2     2     9    1
     3     3     1    1
     4     4     1    1
     5     5     1    1
     6     6     1    1
     7     7     8    3
     8     8     1    1
     9     9    17    1
    10    10     2    1
    11    11     3    2
    12    12     3    1
    13    13     4    1
    14    14     4    1
    15    15     5    1
    16    16     5    2
    17    17    18    2
    18    18    10    1
    19    19    11    1
    20    20    12    1
    21    21    13    2
    22    22    14    2
    23    23    15    1
    24    24    16    1
    25    25    10    2
    26    26    12    2
    27    27    14    1
    28    28     9    2
    29    29    17    1
    30    30    29    1
    31    31    18    1
    32    32    31    1
    33    33    19    1
    34    34    33    1
    35    35    20    1
    36    36    35    1
    37    37    21    1
    38    38    37    1
    39    39    22    1
    40    40    39    1
    41    41    23    1
    42    42    41    1
    43    43    24    1
    44    44    43    1
    45    45     6   ar
    46    46    45   ar
    47    47    46   ar
    48    48    47   ar
    49    49     6   ar
    50    50    25    1
    51    51    26    1
    52    52    27    1
    53    53    28    1
    54    54    29    1
    55    55    29    1
    56    56    31    1
    57    57    31    1
    58    58    33    1
    59    59    33    1
    60    60    35    1
    61    61    35    1
    62    62    37    1
    63    63    37    1
    64    64    39    1
    65    65    39    1
    66    66    41    1
    67    67    41    1
    68    68    43    1
    69    69    43    1
    70    70    30    1
    71    71    30    1
    72    72    30    1
    73    73    32    1
    74    74    32    1
    75    75    32    1
    76    76    34    1
    77    77    34    1
    78    78    34    1
    79    79    36    1
    80    80    36    1
    81    81    36    1
    82    82    38    1
    83    83    38    1
    84    84    38    1
    85    85    40    1
    86    86    40    1
    87    87    40    1
    88    88    42    1
    89    89    42    1
    90    90    42    1
    91    91    44    1
    92    92    44    1
    93    93    44    1
    94    94    45    1
    95    95    46    1
    96    96    47    1
    97    97    48    1
    98    98    49    1
    99    11    25    1
   100    13    26    1
   101    15    27    2
   102    16    28    1
   103    19    20    2
   104    21    22    1
   105    23    24    2
   106    48    49   ar
   107    99   100    1
   108   101    99    1
   109   102    99    1
@<TRIPOS>SUBSTRUCTURE
     1 RES1        1 GROUP             0 ****  ****    0  
     2 RES2       99 GROUP             0 ****  ****    0  
@<TRIPOS>CRYSIN
   10.3450   14.7480   27.3020   90.0000   92.1200   90.0000   231     1
