@<TRIPOS>MOLECULE
SONWEY
   127   132     4     0     0
SMALL
USER_CHARGES
****
Generated from the CSD

@<TRIPOS>ATOM
     1 C1       7.3828  11.7231  17.2577   C.2       1 RES1   0.0000
     2 N1       7.2727  10.6305  17.9781   N.pl3     1 RES1   1.0000
     3 H1       6.5136  10.4797  18.3976   H         1 RES1   0.0000
     4 C2       8.3574   9.6461  18.1184   C.3       1 RES1   0.0000
     5 H2       7.9763   8.7382  18.2113   H         1 RES1   0.0000
     6 H3       8.8870   9.8445  18.9303   H         1 RES1   0.0000
     7 C3       9.2544   9.7059  16.8920   C.3       1 RES1   0.0000
     8 H4       8.7716   9.3441  16.1078   H         1 RES1   0.0000
     9 H5      10.0613   9.1524  17.0406   H         1 RES1   0.0000
    10 C4       9.6600  11.1383  16.6235   C.3       1 RES1   0.0000
    11 H6      10.2513  11.4599  17.3492   H         1 RES1   0.0000
    12 H7      10.1600  11.1903  15.7698   H         1 RES1   0.0000
    13 N2       8.4642  11.9785  16.5485   N.pl3     1 RES1   0.0000
    14 H8       8.4666  12.6767  16.0129   H         1 RES1   0.0000
    15 C5       6.2540  12.6850  17.2442   C.ar      1 RES1   0.0000
    16 C6       5.7100  13.1142  18.4581   C.ar      1 RES1   0.0000
    17 H9       6.0533  12.7910  19.2821   H         1 RES1   0.0000
    18 C7       4.6629  14.0189  18.4391   C.ar      1 RES1   0.0000
    19 H10      4.2856  14.3159  19.2580   H         1 RES1   0.0000
    20 C1A      3.0286  15.4569  17.2270   C.2       1 RES1   0.0000
    21 N1A      3.1386  16.5494  16.5066   N.pl3     1 RES1   0.0000
    22 H1A      3.8978  16.7002  16.0871   H         1 RES1   0.0000
    23 C2A      2.0539  17.5338  16.3662   C.3       1 RES1   0.0000
    24 H2A      2.4350  18.4418  16.2733   H         1 RES1   0.0000
    25 H3A      1.5243  17.3354  15.5543   H         1 RES1   0.0000
    26 C3A      1.1569  17.4741  17.5927   C.3       1 RES1   0.0000
    27 H4A      1.6398  17.8358  18.3769   H         1 RES1   0.0000
    28 H5A      0.3501  18.0275  17.4441   H         1 RES1   0.0000
    29 C4A      0.7514  16.0416  17.8612   C.3       1 RES1   0.0000
    30 H6A      0.1600  15.7200  17.1354   H         1 RES1   0.0000
    31 H7A      0.2514  15.9896  18.7148   H         1 RES1   0.0000
    32 N2A      1.9472  15.2014  17.9362   N.pl3     1 RES1   1.0000
    33 H8A      1.9448  14.5033  18.4717   H         1 RES1   0.0000
    34 C5A      4.1574  14.4949  17.2404   C.ar      1 RES1   0.0000
    35 C6A      4.7014  14.0657  16.0266   C.ar      1 RES1   0.0000
    36 H9A      4.3581  14.3889  15.2026   H         1 RES1   0.0000
    37 C7A      5.7484  13.1610  16.0455   C.ar      1 RES1   0.0000
    38 H10A     6.1257  12.8640  15.2267   H         1 RES1   0.0000
    39 C8       5.9373   1.5419   6.9354   C.2       2 RES2   0.0000
    40 N3       7.0168   2.0390   7.4992   N.pl3     2 RES2   1.0000
    41 H11      7.0195   2.1716   8.3694   H         2 RES2   0.0000
    42 C9       8.2136   2.3784   6.7295   C.3       2 RES2   0.0000
    43 H12      8.8222   1.5988   6.6969   H         2 RES2   0.0000
    44 H13      8.6923   3.1255   7.1694   H         2 RES2   0.0000
    45 C10      7.8223   2.7779   5.3318   C.3       2 RES2   0.0000
    46 H14      8.6361   2.8763   4.7761   H         2 RES2   0.0000
    47 H15      7.3597   3.6536   5.3555   H         2 RES2   0.0000
    48 C11      6.9088   1.7382   4.7123   C.3       2 RES2   0.0000
    49 H16      6.5341   2.0872   3.8640   H         2 RES2   0.0000
    50 H17      7.4260   0.9195   4.5071   H         2 RES2   0.0000
    51 N4       5.8149   1.4130   5.6389   N.pl3     2 RES2   0.0000
    52 H18      5.0524   1.1220   5.3106   H         2 RES2   0.0000
    53 C12      4.8020   1.1237   7.8085   C.ar      2 RES2   0.0000
    54 C13      4.3413   1.9916   8.7927   C.ar      2 RES2   0.0000
    55 H19      4.7522   2.8413   8.9074   H         2 RES2   0.0000
    56 C14      3.2788   1.6170   9.6107   C.ar      2 RES2   0.0000
    57 H20      2.9531   2.2073  10.2799   H         2 RES2   0.0000
    58 C8A      1.5653  -0.0519  10.3069   C.2       2 RES2   0.0000
    59 N3A      0.4858  -0.5489   9.7431   N.pl3     2 RES2   0.0000
    60 H11A     0.4831  -0.6816   8.8729   H         2 RES2   0.0000
    61 C9A     -0.7110  -0.8883  10.5128   C.3       2 RES2   0.0000
    62 H12A    -1.3196  -0.1087  10.5454   H         2 RES2   0.0000
    63 H13A    -1.1897  -1.6354  10.0730   H         2 RES2   0.0000
    64 C10A    -0.3197  -1.2878  11.9105   C.3       2 RES2   0.0000
    65 H14A    -1.1335  -1.3862  12.4662   H         2 RES2   0.0000
    66 H15A     0.1429  -2.1635  11.8869   H         2 RES2   0.0000
    67 C11A     0.5938  -0.2482  12.5300   C.3       2 RES2   0.0000
    68 H16A     0.9684  -0.5971  13.3783   H         2 RES2   0.0000
    69 H17A     0.0766   0.5706  12.7352   H         2 RES2   0.0000
    70 N4A      1.6877   0.0771  11.6034   N.pl3     2 RES2   1.0000
    71 H18A     2.4502   0.3680  11.9317   H         2 RES2   0.0000
    72 C12A     2.7006   0.3664   9.4338   C.ar      2 RES2   0.0000
    73 C13A     3.1613  -0.5016   8.4496   C.ar      2 RES2   0.0000
    74 H19A     2.7504  -1.3512   8.3349   H         2 RES2   0.0000
    75 C14A     4.2238  -0.1270   7.6316   C.ar      2 RES2   0.0000
    76 H20A     4.5495  -0.7172   6.9625   H         2 RES2   0.0000
    77 C15      2.9498   7.5690  10.3535   C.2       3 RES3   0.0000
    78 N5       2.8275   7.4173  11.6489   N.pl3     3 RES3   1.0000
    79 H21      2.0605   7.1214  11.9644   H         3 RES3   0.0000
    80 C16      3.9026   7.7148  12.6000   C.3       3 RES3   0.0000
    81 H22      4.4209   6.8924  12.7869   H         3 RES3   0.0000
    82 H23      3.5153   8.0365  13.4525   H         3 RES3   0.0000
    83 C17      4.8200   8.7779  12.0208   C.3       3 RES3   0.0000
    84 H24      4.3540   9.6519  12.0110   H         3 RES3   0.0000
    85 H25      5.6286   8.8654  12.5852   H         3 RES3   0.0000
    86 C18      5.2192   8.3971  10.6101   C.3       3 RES3   0.0000
    87 H26      5.7149   9.1464  10.1937   H         3 RES3   0.0000
    88 H27      5.8172   7.6093  10.6368   H         3 RES3   0.0000
    89 N6       4.0459   8.0890   9.8119   N.pl3     3 RES3   0.0000
    90 H28      4.0621   8.2509   8.9470   H         3 RES3   0.0000
    91 C19      1.8356   7.1675   9.4590   C.ar      3 RES3   0.0000
    92 C20      1.2348   5.9244   9.6219   C.ar      3 RES3   0.0000
    93 H29      1.5343   5.3322  10.3023   H         3 RES3   0.0000
    94 C21      1.4041   8.0334   8.4599   C.ar      3 RES3   0.0000
    95 H30      1.8231   8.8795   8.3522   H         3 RES3   0.0000
    96 C15A    -1.3510   6.0209   6.8888   C.2       3 RES3   0.0000
    97 N5A     -1.2287   6.1726   5.5934   N.pl3     3 RES3   0.0000
    98 H21A    -0.4618   6.4685   5.2779   H         3 RES3   0.0000
    99 C16A    -2.3039   5.8752   4.6423   C.3       3 RES3   0.0000
   100 H22A    -2.8222   6.6975   4.4554   H         3 RES3   0.0000
   101 H23A    -1.9165   5.5535   3.7899   H         3 RES3   0.0000
   102 C17A    -3.2212   4.8120   5.2215   C.3       3 RES3   0.0000
   103 H24A    -2.7552   3.9381   5.2313   H         3 RES3   0.0000
   104 H25A    -4.0298   4.7245   4.6572   H         3 RES3   0.0000
   105 C18A    -3.6204   5.1929   6.6323   C.3       3 RES3   0.0000
   106 H26A    -4.1161   4.4436   7.0487   H         3 RES3   0.0000
   107 H27A    -4.2184   5.9807   6.6055   H         3 RES3   0.0000
   108 N6A     -2.4471   5.5010   7.4304   N.pl3     3 RES3   1.0000
   109 H28A    -2.4633   5.3390   8.2953   H         3 RES3   0.0000
   110 C19A    -0.2369   6.4225   7.7834   C.ar      3 RES3   0.0000
   111 C20A     0.3640   7.6656   7.6204   C.ar      3 RES3   0.0000
   112 H29A     0.0645   8.2578   6.9400   H         3 RES3   0.0000
   113 C21A     0.1947   5.5566   8.7824   C.ar      3 RES3   0.0000
   114 H30A    -0.2243   4.7104   8.8901   H         3 RES3   0.0000
   115 Fe1      5.8646   3.7725  12.7109   Fe        4 RES4   0.0000
   116 C22      4.7885   4.5656  14.1311   C.1       4 RES4  -1.0000
   117 N7       4.1830   5.0371  14.9908   N.1       4 RES4   0.0000
   118 C23      6.9837   5.3655  12.7600   C.1       4 RES4   0.0000
   119 N8       7.6264   6.3304  12.7798   N.1       4 RES4   0.0000
   120 C24      4.8591   4.5744  11.2506   C.1       4 RES4   0.0000
   121 N9       4.3605   5.0047  10.2964   N.1       4 RES4   0.0000
   122 C25      6.8963   2.9944  11.2670   C.1       4 RES4   0.0000
   123 N10      7.4156   2.5651  10.3238   N.1       4 RES4   0.0000
   124 C26      4.7370   2.1833  12.6764   C.1       4 RES4  -1.0000
   125 N11      4.0998   1.2227  12.6647   N.1       4 RES4   0.0000
   126 C27      6.9022   2.8504  14.0816   C.1       4 RES4  -1.0000
   127 N12      7.4389   2.2355  14.8881   N.1       4 RES4   0.0000
@<TRIPOS>BOND
     1     1     2   un
     2     2     3    1
     3     4     2    1
     4     5     4    1
     5     6     4    1
     6     7     4    1
     7     8     7    1
     8     9     7    1
     9    10     7    1
    10    11    10    1
    11    12    10    1
    12    13     1   un
    13    14    13    1
    14    15     1    1
    15    16    15   ar
    16    17    16    1
    17    18    16   ar
    18    19    18    1
    19    20    21   un
    20    21    22    1
    21    23    21    1
    22    24    23    1
    23    25    23    1
    24    26    23    1
    25    27    26    1
    26    28    26    1
    27    29    26    1
    28    30    29    1
    29    31    29    1
    30    32    20   un
    31    33    32    1
    32    34    18   ar
    33    35    34   ar
    34    36    35    1
    35    37    15   ar
    36    38    37    1
    37    10    13    1
    38    20    34    1
    39    29    32    1
    40    35    37   ar
    41    39    40   un
    42    40    41    1
    43    42    40    1
    44    43    42    1
    45    44    42    1
    46    45    42    1
    47    46    45    1
    48    47    45    1
    49    48    45    1
    50    49    48    1
    51    50    48    1
    52    51    39   un
    53    52    51    1
    54    53    39    1
    55    54    53   ar
    56    55    54    1
    57    56    54   ar
    58    57    56    1
    59    58    59   un
    60    59    60    1
    61    61    59    1
    62    62    61    1
    63    63    61    1
    64    64    61    1
    65    65    64    1
    66    66    64    1
    67    67    64    1
    68    68    67    1
    69    69    67    1
    70    70    58   un
    71    71    70    1
    72    72    56   ar
    73    73    72   ar
    74    74    73    1
    75    75    53   ar
    76    76    75    1
    77    48    51    1
    78    58    72    1
    79    67    70    1
    80    73    75   ar
    81    77    78   un
    82    78    79    1
    83    80    78    1
    84    81    80    1
    85    82    80    1
    86    83    80    1
    87    84    83    1
    88    85    83    1
    89    86    83    1
    90    87    86    1
    91    88    86    1
    92    89    77   un
    93    90    89    1
    94    91    77    1
    95    92    91   ar
    96    93    92    1
    97    94    91   ar
    98    95    94    1
    99    96    97   un
   100    97    98    1
   101    99    97    1
   102   100    99    1
   103   101    99    1
   104   102    99    1
   105   103   102    1
   106   104   102    1
   107   105   102    1
   108   106   105    1
   109   107   105    1
   110   108    96   un
   111   109   108    1
   112   110    96    1
   113   111    94   ar
   114   112   111    1
   115   113    92   ar
   116   114   113    1
   117    86    89    1
   118   105   108    1
   119   110   111   ar
   120   110   113   ar
   121   115   116    1
   122   116   117    3
   123   118   115    1
   124   119   118    3
   125   120   115    1
   126   121   120    3
   127   122   115    1
   128   123   122    3
   129   124   115    1
   130   125   124    3
   131   126   115    1
   132   127   126    3
@<TRIPOS>SUBSTRUCTURE
     1 RES1        1 GROUP             0 ****  ****    0  
     2 RES2       39 GROUP             0 ****  ****    0  
     3 RES3       77 GROUP             0 ****  ****    0  
     4 RES4      115 GROUP             0 ****  ****    0  
@<TRIPOS>CRYSIN
    7.2138   12.1706   17.3090   84.9870   89.0440   83.8210     2     1
