@<TRIPOS>MOLECULE
SOQDUA
   102   108     1     0     0
SMALL
NO_CHARGES
****
Generated from the CSD

@<TRIPOS>ATOM
     1 Fe1      3.2467   9.9320   9.4537   Fe        1 RES1   0.0000
     2 O1       4.6064   8.6496   9.3340   O.3       1 RES1   0.0000
     3 N1       2.0290   8.7674   7.9341   N.3       1 RES1   0.0000
     4 C1       4.4765   7.3212   9.1744   C.ar      1 RES1   0.0000
     5 O2       4.3521  11.2071  10.3444   O.3       1 RES1   0.0000
     6 N2       3.2084  11.2547   7.8452   N.2       1 RES1   0.0000
     7 C2       5.1831   6.4076   9.9894   C.ar      1 RES1   0.0000
     8 O3       2.2180   9.2150  11.1164   O.co2     1 RES1   0.0000
     9 C3       5.0098   5.0512   9.7238   C.ar      1 RES1   0.0000
    10 H1       5.4952   4.4280  10.2515   H         1 RES1   0.0000
    11 O4       1.3555  10.9138  10.0650   O.co2     1 RES1   0.0000
    12 C4       4.1637   4.5474   8.7257   C.ar      1 RES1   0.0000
    13 C5       3.4747   5.4760   7.9580   C.ar      1 RES1   0.0000
    14 H2       2.8784   5.1706   7.2841   H         1 RES1   0.0000
    15 C6       3.6390   6.8470   8.1542   C.ar      1 RES1   0.0000
    16 C7       6.0855   6.8964  11.1278   C.3       1 RES1   0.0000
    17 C8       5.2779   7.7071  12.1514   C.3       1 RES1   0.0000
    18 H3       4.8590   8.4733  11.7053   H         1 RES1   0.0000
    19 H4       5.8757   8.0292  12.8594   H         1 RES1   0.0000
    20 H5       4.5836   7.1386  12.5443   H         1 RES1   0.0000
    21 C9       7.2179   7.7629  10.5719   C.3       1 RES1   0.0000
    22 H6       7.7253   7.2502   9.9073   H         1 RES1   0.0000
    23 H7       7.8139   8.0292  11.3027   H         1 RES1   0.0000
    24 H8       6.8403   8.5622  10.1501   H         1 RES1   0.0000
    25 C10      6.7197   5.7234  11.8819   C.3       1 RES1   0.0000
    26 H9       6.0143   5.1569  12.2585   H         1 RES1   0.0000
    27 H10      7.2844   6.0680  12.6058   H         1 RES1   0.0000
    28 H11      7.2667   5.1956  11.2627   H         1 RES1   0.0000
    29 C11      4.0259   3.0272   8.5562   C.3       1 RES1   0.0000
    30 C12      3.0773   2.6671   7.4094   C.3       1 RES1   0.0000
    31 H12      2.1901   3.0431   7.5884   H         1 RES1   0.0000
    32 H13      3.0103   1.6924   7.3348   H         1 RES1   0.0000
    33 H14      3.4252   3.0363   6.5711   H         1 RES1   0.0000
    34 C13      3.4712   2.4252   9.8561   C.3       1 RES1   0.0000
    35 H15      4.0891   2.6126  10.5927   H         1 RES1   0.0000
    36 H16      3.3736   1.4555   9.7521   H         1 RES1   0.0000
    37 H17      2.5971   2.8222  10.0533   H         1 RES1   0.0000
    38 C14      5.3915   2.4047   8.2673   C.3       1 RES1   0.0000
    39 H18      5.7548   2.7834   7.4393   H         1 RES1   0.0000
    40 H19      5.2948   1.4350   8.1693   H         1 RES1   0.0000
    41 H20      6.0029   2.5989   9.0083   H         1 RES1   0.0000
    42 C15      2.9988   7.8556   7.2369   C.3       1 RES1   0.0000
    43 H21      3.7085   8.4027   6.8185   H         1 RES1   0.0000
    44 H22      2.5233   7.3755   6.5142   H         1 RES1   0.0000
    45 C16      0.8723   7.9939   8.4889   C.3       1 RES1   0.0000
    46 H23      0.3222   8.5986   9.0467   H         1 RES1   0.0000
    47 H24      1.2207   7.2775   9.0759   H         1 RES1   0.0000
    48 C17     -0.0096   7.3723   7.4315   C.3       1 RES1   0.0000
    49 H25     -0.7934   6.9518   7.8650   H         1 RES1   0.0000
    50 H26      0.4949   6.6625   6.9599   H         1 RES1   0.0000
    51 C18     -0.4905   8.4114   6.4151   C.3       1 RES1   0.0000
    52 H27     -0.9418   7.9495   5.6644   H         1 RES1   0.0000
    53 H28     -1.1524   9.0086   6.8477   H         1 RES1   0.0000
    54 C19      0.6637   9.2530   5.8677   C.3       1 RES1   0.0000
    55 H29      1.2438   8.6920   5.2956   H         1 RES1   0.0000
    56 H30      0.3049   9.9903   5.3140   H         1 RES1   0.0000
    57 C20      1.4719   9.8209   7.0141   C.3       1 RES1   0.0000
    58 H31      0.8353  10.3639   7.5623   H         1 RES1   0.0000
    59 C21      2.6002  10.7698   6.6064   C.3       1 RES1   0.0000
    60 H32      3.2711  10.2910   6.0563   H         1 RES1   0.0000
    61 H33      2.2417  11.5256   6.0793   H         1 RES1   0.0000
    62 C22      3.3482  12.5214   8.0044   C.2       1 RES1   0.0000
    63 H34      3.1590  13.0653   7.2503   H         1 RES1   0.0000
    64 C23      3.7597  13.2036   9.1989   C.ar      1 RES1   0.0000
    65 C24      4.2497  12.5271  10.3454   C.ar      1 RES1   0.0000
    66 C25      4.6521  13.2890  11.4759   C.ar      1 RES1   0.0000
    67 C26      4.4309  14.6616  11.4341   C.ar      1 RES1   0.0000
    68 H35      4.6765  15.1723  12.1970   H         1 RES1   0.0000
    69 C27      3.8679  15.3493  10.3378   C.ar      1 RES1   0.0000
    70 C28      3.5864  14.6049   9.2166   C.ar      1 RES1   0.0000
    71 H36      3.2678  15.0425   8.4367   H         1 RES1   0.0000
    72 C29      3.5167  16.8360  10.4633   C.3       1 RES1   0.0000
    73 C30      2.4574  16.9913  11.5570   C.3       1 RES1   0.0000
    74 H37      1.6580  16.4820  11.3119   H         1 RES1   0.0000
    75 H38      2.2242  17.9375  11.6530   H         1 RES1   0.0000
    76 H39      2.8132  16.6528  12.4060   H         1 RES1   0.0000
    77 C31      2.9603  17.4070   9.1605   C.3       1 RES1   0.0000
    78 H40      3.6268  17.3089   8.4490   H         1 RES1   0.0000
    79 H41      2.7515  18.3566   9.2834   H         1 RES1   0.0000
    80 H42      2.1453  16.9216   8.9130   H         1 RES1   0.0000
    81 C32      4.7565  17.6512  10.8544   C.3       1 RES1   0.0000
    82 H43      5.1307  17.2952  11.6868   H         1 RES1   0.0000
    83 H44      4.5023  18.5890  10.9846   H         1 RES1   0.0000
    84 H45      5.4262  17.5890  10.1424   H         1 RES1   0.0000
    85 C33      5.2845  12.6016  12.7109   C.3       1 RES1   0.0000
    86 C34      5.6527  13.6154  13.8042   C.3       1 RES1   0.0000
    87 H46      6.0469  13.1451  14.5667   H         1 RES1   0.0000
    88 H47      4.8460  14.0903  14.0949   H         1 RES1   0.0000
    89 H48      6.2996  14.2589  13.4479   H         1 RES1   0.0000
    90 C35      6.5733  11.8727  12.2957   C.3       1 RES1   0.0000
    91 H49      7.2149  12.5210  11.9389   H         1 RES1   0.0000
    92 H50      6.3647  11.2067  11.6085   H         1 RES1   0.0000
    93 H51      6.9617  11.4253  13.0761   H         1 RES1   0.0000
    94 C36      4.3027  11.5903  13.3264   C.3       1 RES1   0.0000
    95 H52      4.0309  10.9402  12.6442   H         1 RES1   0.0000
    96 H53      3.5115  12.0631  13.6585   H         1 RES1   0.0000
    97 H54      4.7386  11.1224  14.0688   H         1 RES1   0.0000
    98 C37      1.3224  10.1104  11.0254   C.2       1 RES1   0.0000
    99 C38      0.2256  10.1851  12.0529   C.3       1 RES1   0.0000
   100 H55     -0.1733  11.0814  12.0403   H         1 RES1   0.0000
   101 H56      0.5971  10.0040  12.9408   H         1 RES1   0.0000
   102 H57     -0.4624   9.5188  11.8451   H         1 RES1   0.0000
@<TRIPOS>BOND
     1     1     2    1
     2     2     4    1
     3     3     1    1
     4     4     7   ar
     5     5     1    1
     6     6     1    1
     7     7     9   ar
     8     8     1    1
     9     9    10    1
    10    11     1    1
    11    12     9   ar
    12    13    12   ar
    13    14    13    1
    14    15     4   ar
    15    16     7    1
    16    17    16    1
    17    18    17    1
    18    19    17    1
    19    20    17    1
    20    21    16    1
    21    22    21    1
    22    23    21    1
    23    24    21    1
    24    25    16    1
    25    26    25    1
    26    27    25    1
    27    28    25    1
    28    29    12    1
    29    30    29    1
    30    31    30    1
    31    32    30    1
    32    33    30    1
    33    34    29    1
    34    35    34    1
    35    36    34    1
    36    37    34    1
    37    38    29    1
    38    39    38    1
    39    40    38    1
    40    41    38    1
    41    42     3    1
    42    43    42    1
    43    44    42    1
    44    45     3    1
    45    46    45    1
    46    47    45    1
    47    48    45    1
    48    49    48    1
    49    50    48    1
    50    51    48    1
    51    52    51    1
    52    53    51    1
    53    54    51    1
    54    55    54    1
    55    56    54    1
    56    57     3    1
    57    58    57    1
    58    59     6    1
    59    60    59    1
    60    61    59    1
    61    62     6    2
    62    63    62    1
    63    64    62    1
    64    65     5    1
    65    66    65   ar
    66    67    66   ar
    67    68    67    1
    68    69    67   ar
    69    70    64   ar
    70    71    70    1
    71    72    69    1
    72    73    72    1
    73    74    73    1
    74    75    73    1
    75    76    73    1
    76    77    72    1
    77    78    77    1
    78    79    77    1
    79    80    77    1
    80    81    72    1
    81    82    81    1
    82    83    81    1
    83    84    81    1
    84    85    66    1
    85    86    85    1
    86    87    86    1
    87    88    86    1
    88    89    86    1
    89    90    85    1
    90    91    90    1
    91    92    90    1
    92    93    90    1
    93    94    85    1
    94    95    94    1
    95    96    94    1
    96    97    94    1
    97    98     8   un
    98    99    98    1
    99   100    99    1
   100   101    99    1
   101   102    99    1
   102    11    98   un
   103    13    15   ar
   104    15    42    1
   105    54    57    1
   106    57    59    1
   107    64    65   ar
   108    69    70   ar
@<TRIPOS>SUBSTRUCTURE
     1 RES1        1 GROUP             0 ****  ****    0  
@<TRIPOS>CRYSIN
   10.5080   22.7778   15.3749   90.0000   91.7990   90.0000   231     1
