@<TRIPOS>MOLECULE
SOQGAJ
    90    95     1     0     0
SMALL
NO_CHARGES
****
Generated from the CSD

@<TRIPOS>ATOM
     1 Fe1      8.2076   5.1627  11.2296   Fe        1 RES1   0.0000
     2 O1       7.0779   6.0426   9.9854   O.3       1 RES1   0.0000
     3 N1       8.5152   3.7713   9.7026   N.2       1 RES1   0.0000
     4 C1       7.1282   6.1497   8.6697   C.ar      1 RES1   0.0000
     5 O2       7.4425   5.9526  12.7670   O.3       1 RES1   0.0000
     6 N2       7.7239   3.3083  12.1425   N.2       1 RES1   0.0000
     7 C2       6.5573   7.2773   8.0291   C.ar      1 RES1   0.0000
     8 O3       9.7627   6.5632  10.9412   O.co2     1 RES1   0.0000
     9 C3       6.5304   7.2885   6.6395   C.ar      1 RES1   0.0000
    10 H1       6.1329   8.0379   6.2116   H         1 RES1   0.0000
    11 O4      10.1959   4.7631  12.0801   O.co2     1 RES1   0.0000
    12 C4       7.0491   6.2724   5.8266   C.ar      1 RES1   0.0000
    13 C5       7.6464   5.2093   6.4697   C.ar      1 RES1   0.0000
    14 H2       8.0253   4.5093   5.9505   H         1 RES1   0.0000
    15 C6       7.7106   5.1316   7.8715   C.ar      1 RES1   0.0000
    16 C7       5.9860   8.4436   8.8531   C.3       1 RES1   0.0000
    17 C8       7.0697   9.0099   9.7873   C.3       1 RES1   0.0000
    18 H3       6.6803   9.7092  10.3534   H         1 RES1   0.0000
    19 H4       7.7971   9.3907   9.2512   H         1 RES1   0.0000
    20 H5       7.4218   8.2910  10.3521   H         1 RES1   0.0000
    21 C9       4.7820   7.9693   9.6795   C.3       1 RES1   0.0000
    22 H6       4.4431   8.7136  10.2205   H         1 RES1   0.0000
    23 H7       5.0579   7.2368  10.2685   H         1 RES1   0.0000
    24 H8       4.0758   7.6559   9.0775   H         1 RES1   0.0000
    25 C10      5.5072   9.5936   7.9667   C.3       1 RES1   0.0000
    26 H9       4.7976   9.2735   7.3720   H         1 RES1   0.0000
    27 H10      6.2570   9.9273   7.4302   H         1 RES1   0.0000
    28 H11      5.1600  10.3173   8.5293   H         1 RES1   0.0000
    29 C11      6.9922   6.3399   4.2888   C.3       1 RES1   0.0000
    30 C12      6.5173   4.9977   3.7309   C.3       1 RES1   0.0000
    31 H12      6.4300   5.0619   2.7570   H         1 RES1   0.0000
    32 H13      5.6483   4.7701   4.1234   H         1 RES1   0.0000
    33 H14      7.1693   4.3014   3.9546   H         1 RES1   0.0000
    34 C13      6.0475   7.4337   3.7964   C.3       1 RES1   0.0000
    35 H15      6.0035   7.4109   2.8179   H         1 RES1   0.0000
    36 H16      6.3804   8.3086   4.0876   H         1 RES1   0.0000
    37 H17      5.1528   7.2850   4.1685   H         1 RES1   0.0000
    38 C14      8.3886   6.6557   3.7448   C.3       1 RES1   0.0000
    39 H18      9.0194   5.9689   4.0463   H         1 RES1   0.0000
    40 H19      8.6769   7.5319   4.0750   H         1 RES1   0.0000
    41 H20      8.3635   6.6677   2.7654   H         1 RES1   0.0000
    42 C15      8.2750   3.9315   8.4510   C.2       1 RES1   0.0000
    43 H21      8.4825   3.2131   7.8653   H         1 RES1   0.0000
    44 C16      8.8902   2.4482  10.2117   C.3       1 RES1   0.0000
    45 H22      9.8057   2.4676  10.5871   H         1 RES1   0.0000
    46 H23      8.8587   1.7749   9.4870   H         1 RES1   0.0000
    47 C17      7.8746   2.1170  11.2951   C.3       1 RES1   0.0000
    48 H24      7.0057   1.8758  10.8871   H         1 RES1   0.0000
    49 H25      8.1900   1.3500  11.8360   H         1 RES1   0.0000
    50 C18      7.5570   3.1597  13.4111   C.2       1 RES1   0.0000
    51 H26      7.5302   2.2674  13.7361   H         1 RES1   0.0000
    52 C19      7.4067   4.2085  14.3872   C.ar      1 RES1   0.0000
    53 C20      7.3099   3.8231  15.7363   C.ar      1 RES1   0.0000
    54 H27      7.3689   2.9016  15.9607   H         1 RES1   0.0000
    55 C21      7.1328   4.7442  16.7350   C.ar      1 RES1   0.0000
    56 C22      7.0057   6.0874  16.3445   C.ar      1 RES1   0.0000
    57 H28      6.8588   6.7329  17.0254   H         1 RES1   0.0000
    58 C23      7.0791   6.5361  15.0351   C.ar      1 RES1   0.0000
    59 C24      7.3189   5.5701  14.0214   C.ar      1 RES1   0.0000
    60 C25      7.0808   4.3751  18.2272   C.3       1 RES1   0.0000
    61 C26      8.1925   5.1101  18.9800   C.3       1 RES1   0.0000
    62 H29      8.1253   4.9109  19.9373   H         1 RES1   0.0000
    63 H30      8.0990   6.0759  18.8404   H         1 RES1   0.0000
    64 H31      9.0650   4.8150  18.6444   H         1 RES1   0.0000
    65 C27      7.2315   2.8827  18.4427   C.3       1 RES1   0.0000
    66 H32      6.5322   2.4080  17.9473   H         1 RES1   0.0000
    67 H33      7.1491   2.6802  19.3981   H         1 RES1   0.0000
    68 H34      8.1120   2.5933  18.1218   H         1 RES1   0.0000
    69 C28      5.7280   4.8259  18.8067   C.3       1 RES1   0.0000
    70 H35      5.0040   4.3347  18.3662   H         1 RES1   0.0000
    71 H36      5.6113   5.7870  18.6538   H         1 RES1   0.0000
    72 H37      5.7072   4.6437  19.7694   H         1 RES1   0.0000
    73 C29      6.8986   8.0225  14.6714   C.3       1 RES1   0.0000
    74 C30      6.6066   8.8852  15.9166   C.3       1 RES1   0.0000
    75 H38      5.7831   8.5708  16.3467   H         1 RES1   0.0000
    76 H39      6.4970   9.8212  15.6473   H         1 RES1   0.0000
    77 H40      7.3523   8.8118  16.5468   H         1 RES1   0.0000
    78 C31      5.7078   8.1778  13.7117   C.3       1 RES1   0.0000
    79 H41      5.8830   7.6720  12.8903   H         1 RES1   0.0000
    80 H42      5.5861   9.1248  13.4924   H         1 RES1   0.0000
    81 H43      4.8958   7.8342  14.1404   H         1 RES1   0.0000
    82 C32      8.1725   8.5653  14.0207   C.3       1 RES1   0.0000
    83 H44      8.9244   8.4635  14.6402   H         1 RES1   0.0000
    84 H45      8.0517   9.5142  13.8071   H         1 RES1   0.0000
    85 H46      8.3579   8.0663  13.1977   H         1 RES1   0.0000
    86 C33     10.5551   5.8962  11.6703   C.2       1 RES1   0.0000
    87 C34     11.8738   6.4789  12.0766   C.3       1 RES1   0.0000
    88 H47     11.7424   7.0863  12.8343   H         1 RES1   0.0000
    89 H48     12.2587   6.9741  11.3232   H         1 RES1   0.0000
    90 H49     12.4830   5.7571  12.3377   H         1 RES1   0.0000
@<TRIPOS>BOND
     1     1     2    1
     2     2     4    1
     3     3     1    1
     4     4     7   ar
     5     5     1    1
     6     6     1    1
     7     7     9   ar
     8     8     1    1
     9     9    10    1
    10    11     1    1
    11    12     9   ar
    12    13    12   ar
    13    14    13    1
    14    15     4   ar
    15    16     7    1
    16    17    16    1
    17    18    17    1
    18    19    17    1
    19    20    17    1
    20    21    16    1
    21    22    21    1
    22    23    21    1
    23    24    21    1
    24    25    16    1
    25    26    25    1
    26    27    25    1
    27    28    25    1
    28    29    12    1
    29    30    29    1
    30    31    30    1
    31    32    30    1
    32    33    30    1
    33    34    29    1
    34    35    34    1
    35    36    34    1
    36    37    34    1
    37    38    29    1
    38    39    38    1
    39    40    38    1
    40    41    38    1
    41    42     3    2
    42    43    42    1
    43    44     3    1
    44    45    44    1
    45    46    44    1
    46    47     6    1
    47    48    47    1
    48    49    47    1
    49    50     6    2
    50    51    50    1
    51    52    50    1
    52    53    52   ar
    53    54    53    1
    54    55    53   ar
    55    56    55   ar
    56    57    56    1
    57    58    56   ar
    58    59     5    1
    59    60    55    1
    60    61    60    1
    61    62    61    1
    62    63    61    1
    63    64    61    1
    64    65    60    1
    65    66    65    1
    66    67    65    1
    67    68    65    1
    68    69    60    1
    69    70    69    1
    70    71    69    1
    71    72    69    1
    72    73    58    1
    73    74    73    1
    74    75    74    1
    75    76    74    1
    76    77    74    1
    77    78    73    1
    78    79    78    1
    79    80    78    1
    80    81    78    1
    81    82    73    1
    82    83    82    1
    83    84    82    1
    84    85    82    1
    85    86     8   un
    86    87    86    1
    87    88    87    1
    88    89    87    1
    89    90    87    1
    90    11    86   un
    91    13    15   ar
    92    15    42    1
    93    44    47    1
    94    52    59   ar
    95    58    59   ar
@<TRIPOS>SUBSTRUCTURE
     1 RES1        1 GROUP             0 ****  ****    0  
@<TRIPOS>CRYSIN
   19.0502   10.2223   34.8712   90.0000   90.0000   90.0000    61     1
