@<TRIPOS>MOLECULE
SORDOS03
   100   108     2     0     0
SMALL
USER_CHARGES
****
Generated from the CSD

@<TRIPOS>ATOM
     1 Fe1      8.7067   9.7608   4.9555   Fe        1 RES1   1.0000
     2 O1       7.7700  10.6448   6.3804   O.3       1 RES1   0.0000
     3 O2       9.4799   8.4102   6.0676   O.3       1 RES1   0.0000
     4 N1       9.3769   8.7024   3.2943   N.ar      1 RES1   0.0000
     5 N2       7.0530   8.6719   4.5205   N.2       1 RES1   0.0000
     6 N3       8.2717  11.3109   3.6187   N.ar      1 RES1   0.0000
     7 N4      10.3713  10.9056   5.1485   N.2       1 RES1   0.0000
     8 C1      10.6193   8.7879   2.7733   C.ar      1 RES1   0.0000
     9 C2      10.9909   8.1084   1.6518   C.ar      1 RES1   0.0000
    10 C3      10.0561   7.3270   1.0065   C.ar      1 RES1   0.0000
    11 C4       8.8048   7.2070   1.5390   C.ar      1 RES1   0.0000
    12 C5       8.4796   7.8994   2.6996   C.ar      1 RES1   0.0000
    13 C6       7.1589   7.7748   3.3668   C.3       1 RES1   0.0000
    14 C7       5.9316   8.6603   5.2175   C.2       1 RES1   0.0000
    15 C8       5.7372   9.4653   6.3482   C.2       1 RES1   0.0000
    16 C9       6.6087  10.3844   6.8739   C.2       1 RES1   0.0000
    17 C10      4.7894   7.7623   4.8092   C.3       1 RES1   0.0000
    18 C11      6.2297  11.1934   8.0851   C.3       1 RES1   0.0000
    19 C12      7.1410  11.4142   2.8860   C.ar      1 RES1   0.0000
    20 C13      6.9285  12.4553   2.0233   C.ar      1 RES1   0.0000
    21 C14      7.8659  13.4572   1.9313   C.ar      1 RES1   0.0000
    22 C15      9.0028  13.3730   2.6927   C.ar      1 RES1   0.0000
    23 C16      9.1945  12.2755   3.5071   C.ar      1 RES1   0.0000
    24 C17     10.4514  12.0972   4.3019   C.3       1 RES1   0.0000
    25 C18     11.3943  10.6525   5.9376   C.2       1 RES1   0.0000
    26 C19     11.4549   9.4871   6.7290   C.2       1 RES1   0.0000
    27 C20     10.5906   8.4378   6.7290   C.2       1 RES1   0.0000
    28 C21     12.5755  11.5685   5.9882   C.3       1 RES1   0.0000
    29 C22     10.8945   7.1880   7.5180   C.3       1 RES1   0.0000
    30 H1      11.2462   9.3433   3.2782   H         1 RES1   0.0000
    31 H2      11.9033   8.1796   1.2998   H         1 RES1   0.0000
    32 H3      10.2930   6.8734   0.2185   H         1 RES1   0.0000
    33 H4       8.1403   6.6961   1.2078   H         1 RES1   0.0000
    34 H5       7.0236   6.9086   3.6348   H         1 RES1   0.0000
    35 H6       6.4568   7.9388   2.7261   H         1 RES1   0.0000
    36 H7       4.8903   9.4264   6.7635   H         1 RES1   0.0000
    37 H8       5.0676   6.8915   4.7965   H         1 RES1   0.0000
    38 H9       4.1135   7.8439   5.4522   H         1 RES1   0.0000
    39 H10      4.5456   7.8190   3.9914   H         1 RES1   0.0000
    40 H11      5.8513  10.5843   8.6499   H         1 RES1   0.0000
    41 H12      5.6605  11.8736   7.8562   H         1 RES1   0.0000
    42 H13      6.9157  11.4269   8.5349   H         1 RES1   0.0000
    43 H14      6.4880  10.7329   3.0482   H         1 RES1   0.0000
    44 H15      6.1361  12.4611   1.5068   H         1 RES1   0.0000
    45 H16      7.7362  14.2086   1.3343   H         1 RES1   0.0000
    46 H17      9.6092  14.0149   2.6801   H         1 RES1   0.0000
    47 H18     11.1752  12.0615   3.7038   H         1 RES1   0.0000
    48 H19     10.5739  12.8927   4.8426   H         1 RES1   0.0000
    49 H20     12.1627   9.3714   7.2581   H         1 RES1   0.0000
    50 H21     13.1000  11.3159   6.6600   H         1 RES1   0.0000
    51 H22     12.3626  12.3996   6.0733   H         1 RES1   0.0000
    52 H23     13.0710  11.5203   5.1876   H         1 RES1   0.0000
    53 H24     11.7282   7.2609   7.7527   H         1 RES1   0.0000
    54 H25     10.1706   6.9576   7.8447   H         1 RES1   0.0000
    55 H26     11.1099   6.5322   6.8325   H         1 RES1   0.0000
    56 B1       8.5948   3.4009  -1.1595   B         2 RES2  -1.0000
    57 C23      7.9667   2.1132  -1.9819   C.ar      2 RES2   0.0000
    58 C24      7.5695   2.1073  -3.3173   C.ar      2 RES2   0.0000
    59 C25      7.1120   0.9422  -3.9523   C.ar      2 RES2   0.0000
    60 C26      7.0322  -0.2314  -3.2713   C.ar      2 RES2   0.0000
    61 C27      7.3657  -0.2657  -1.9370   C.ar      2 RES2   0.0000
    62 C28      7.8006   0.8838  -1.3239   C.ar      2 RES2   0.0000
    63 C29     10.0690   2.9684  -0.5533   C.ar      2 RES2   0.0000
    64 C30     10.8452   1.9457  -1.1077   C.ar      2 RES2   0.0000
    65 C31     12.1171   1.6342  -0.6625   C.ar      2 RES2   0.0000
    66 C32     12.6868   2.3359   0.3554   C.ar      2 RES2   0.0000
    67 C33     11.9745   3.3571   0.9444   C.ar      2 RES2   0.0000
    68 C34     10.6993   3.6641   0.4877   C.ar      2 RES2   0.0000
    69 C35      8.8979   4.6787  -2.1521   C.ar      2 RES2   0.0000
    70 C36      9.6867   4.5362  -3.2851   C.ar      2 RES2   0.0000
    71 C37     10.0445   5.5764  -4.1375   C.ar      2 RES2   0.0000
    72 C38      9.6206   6.8563  -3.8453   C.ar      2 RES2   0.0000
    73 C39      8.8392   7.0491  -2.7341   C.ar      2 RES2   0.0000
    74 C40      8.4914   5.9891  -1.9186   C.ar      2 RES2   0.0000
    75 C41      7.4976   3.7685   0.0138   C.ar      2 RES2   0.0000
    76 C42      7.6489   3.5498   1.3838   C.ar      2 RES2   0.0000
    77 C43      6.6734   3.8719   2.3155   C.ar      2 RES2   0.0000
    78 C44      5.4902   4.4115   1.9209   C.ar      2 RES2   0.0000
    79 C45      5.2806   4.6024   0.5924   C.ar      2 RES2   0.0000
    80 C46      6.2573   4.2921  -0.3347   C.ar      2 RES2   0.0000
    81 H27      7.6743   2.9014  -3.8303   H         2 RES2   0.0000
    82 H28      6.9469   1.0740  -4.7850   H         2 RES2   0.0000
    83 H29      6.7283  -1.0906  -3.6463   H         2 RES2   0.0000
    84 H30      7.2990  -1.1180  -1.4033   H         2 RES2   0.0000
    85 H31      8.0207   0.8821  -0.4256   H         2 RES2   0.0000
    86 H32     10.4669   1.4386  -1.7714   H         2 RES2   0.0000
    87 H33     12.5457   0.9373  -1.0812   H         2 RES2   0.0000
    88 H34     13.5273   2.1605   0.6671   H         2 RES2   0.0000
    89 H35     12.3566   3.9726   1.6449   H         2 RES2   0.0000
    90 H36     10.2280   4.3569   0.9087   H         2 RES2   0.0000
    91 H37      9.9666   3.7053  -3.4853   H         2 RES2   0.0000
    92 H38     10.5973   5.3606  -4.9576   H         2 RES2   0.0000
    93 H39      9.8621   7.6229  -4.3825   H         2 RES2   0.0000
    94 H40      8.5923   7.9067  -2.4845   H         2 RES2   0.0000
    95 H41      7.9066   6.1997  -1.1963   H         2 RES2   0.0000
    96 H42      8.4761   3.1732   1.7254   H         2 RES2   0.0000
    97 H43      6.8494   3.7748   3.1977   H         2 RES2   0.0000
    98 H44      4.8534   4.6177   2.5996   H         2 RES2   0.0000
    99 H45      4.4782   4.8918   0.2991   H         2 RES2   0.0000
   100 H46      6.0950   4.3199  -1.2078   H         2 RES2   0.0000
@<TRIPOS>BOND
     1     1     2    1
     2     2    16    1
     3     3     1    1
     4     4     1    1
     5     5     1    1
     6     6     1    1
     7     7     1    1
     8     8     4   ar
     9     9     8   ar
    10    10     9   ar
    11    11    10   ar
    12    12     4   ar
    13    13     5    1
    14    14     5    2
    15    15    14    1
    16    16    15    2
    17    17    14    1
    18    18    16    1
    19    19     6   ar
    20    20    19   ar
    21    21    20   ar
    22    22    21   ar
    23    23     6   ar
    24    24     7    1
    25    25     7    2
    26    26    25    1
    27    27     3    1
    28    28    25    1
    29    29    27    1
    30    30     8    1
    31    31     9    1
    32    32    10    1
    33    33    11    1
    34    34    13    1
    35    35    13    1
    36    36    15    1
    37    37    17    1
    38    38    17    1
    39    39    17    1
    40    40    18    1
    41    41    18    1
    42    42    18    1
    43    43    19    1
    44    44    20    1
    45    45    21    1
    46    46    22    1
    47    47    24    1
    48    48    24    1
    49    49    26    1
    50    50    28    1
    51    51    28    1
    52    52    28    1
    53    53    29    1
    54    54    29    1
    55    55    29    1
    56    11    12   ar
    57    12    13    1
    58    22    23   ar
    59    23    24    1
    60    26    27    2
    61    56    57    1
    62    57    58   ar
    63    58    59   ar
    64    59    60   ar
    65    60    61   ar
    66    61    62   ar
    67    62    57   ar
    68    63    56    1
    69    64    63   ar
    70    65    64   ar
    71    66    65   ar
    72    67    66   ar
    73    68    63   ar
    74    69    56    1
    75    70    69   ar
    76    71    70   ar
    77    72    71   ar
    78    73    72   ar
    79    74    69   ar
    80    75    56    1
    81    76    75   ar
    82    77    76   ar
    83    78    77   ar
    84    79    78   ar
    85    80    75   ar
    86    81    58    1
    87    82    59    1
    88    83    60    1
    89    84    61    1
    90    85    62    1
    91    86    64    1
    92    87    65    1
    93    88    66    1
    94    89    67    1
    95    90    68    1
    96    91    70    1
    97    92    71    1
    98    93    72    1
    99    94    73    1
   100    95    74    1
   101    96    76    1
   102    97    77    1
   103    98    78    1
   104    99    79    1
   105   100    80    1
   106    67    68   ar
   107    73    74   ar
   108    79    80   ar
@<TRIPOS>SUBSTRUCTURE
     1 RES1        1 GROUP             0 ****  ****    0  
     2 RES2       56 GROUP             0 ****  ****    0  
@<TRIPOS>CRYSIN
   12.9820   13.5920   11.7910   92.8700  101.7700   98.7400     2     1
