@<TRIPOS>MOLECULE
SORDOS01
   100   108     2     0     0
SMALL
USER_CHARGES
****
Generated from the CSD

@<TRIPOS>ATOM
     1 Fe1      8.6855   9.5744   4.8378   Fe        1 RES1   1.0000
     2 O1       7.8633  10.5169   6.2631   O.3       1 RES1   0.0000
     3 O2       9.2721   8.1639   5.9527   O.3       1 RES1   0.0000
     4 N1       9.4102   8.5950   3.2787   N.ar      1 RES1   0.0000
     5 N2       7.1077   8.5089   4.4628   N.2       1 RES1   0.0000
     6 N3       8.2433  11.0425   3.5695   N.ar      1 RES1   0.0000
     7 N4      10.2672  10.6546   5.1365   N.2       1 RES1   0.0000
     8 C1      10.6612   8.6874   2.7970   C.ar      1 RES1   0.0000
     9 C2      11.0755   8.0177   1.6773   C.ar      1 RES1   0.0000
    10 C3      10.1680   7.2251   0.9979   C.ar      1 RES1   0.0000
    11 C4       8.8961   7.0909   1.5014   C.ar      1 RES1   0.0000
    12 C5       8.5433   7.7707   2.6545   C.ar      1 RES1   0.0000
    13 C6       7.2089   7.6209   3.2971   C.3       1 RES1   0.0000
    14 C7       6.0187   8.4623   5.1928   C.2       1 RES1   0.0000
    15 C8       5.8532   9.2641   6.3447   C.2       1 RES1   0.0000
    16 C9       6.7245  10.2223   6.7965   C.2       1 RES1   0.0000
    17 C10      4.8833   7.5470   4.8203   C.3       1 RES1   0.0000
    18 C11      6.3596  11.0569   7.9944   C.3       1 RES1   0.0000
    19 C12      7.1172  11.1466   2.8338   C.ar      1 RES1   0.0000
    20 C13      6.8987  12.1881   1.9612   C.ar      1 RES1   0.0000
    21 C14      7.8383  13.1917   1.8670   C.ar      1 RES1   0.0000
    22 C15      8.9818  13.1075   2.6315   C.ar      1 RES1   0.0000
    23 C16      9.1684  12.0148   3.4569   C.ar      1 RES1   0.0000
    24 C17     10.4070  11.8332   4.2708   C.3       1 RES1   0.0000
    25 C18     11.2172  10.4098   6.0182   C.2       1 RES1   0.0000
    26 C19     11.1924   9.2456   6.8287   C.2       1 RES1   0.0000
    27 C20     10.3067   8.2083   6.7298   C.2       1 RES1   0.0000
    28 C21     12.4087  11.3144   6.1343   C.3       1 RES1   0.0000
    29 C22     10.5285   6.9549   7.5311   C.3       1 RES1   0.0000
    30 H1      11.2455   9.2305   3.3109   H         1 RES1   0.0000
    31 H2      11.9611   8.1206   1.4255   H         1 RES1   0.0000
    32 H3      10.4319   6.7909   0.1954   H         1 RES1   0.0000
    33 H4       8.2165   6.5455   1.1266   H         1 RES1   0.0000
    34 H5       6.5320   7.7987   2.6096   H         1 RES1   0.0000
    35 H6       7.1100   6.6980   3.6213   H         1 RES1   0.0000
    36 H7       5.0017   9.1545   6.8402   H         1 RES1   0.0000
    37 H8       5.1917   6.7015   4.7249   H         1 RES1   0.0000
    38 H9       4.1529   7.6124   5.4722   H         1 RES1   0.0000
    39 H10      4.6072   7.6902   3.9202   H         1 RES1   0.0000
    40 H11      7.0836  11.0996   8.5761   H         1 RES1   0.0000
    41 H12      5.6121  10.6720   8.4726   H         1 RES1   0.0000
    42 H13      6.1384  11.9304   7.7599   H         1 RES1   0.0000
    43 H14      6.4780  10.4823   2.9545   H         1 RES1   0.0000
    44 H15      6.1060  12.1700   1.4715   H         1 RES1   0.0000
    45 H16      7.6999  13.9002   1.2416   H         1 RES1   0.0000
    46 H17      9.6674  13.7975   2.6326   H         1 RES1   0.0000
    47 H18     11.1377  11.7133   3.6788   H         1 RES1   0.0000
    48 H19     10.5855  12.6695   4.7939   H         1 RES1   0.0000
    49 H20     11.9388   9.1742   7.4840   H         1 RES1   0.0000
    50 H21     12.1993  12.2596   6.0700   H         1 RES1   0.0000
    51 H22     12.8678  11.0965   6.8977   H         1 RES1   0.0000
    52 H23     12.9576  11.2374   5.3802   H         1 RES1   0.0000
    53 H24     10.6893   6.1897   6.9552   H         1 RES1   0.0000
    54 H25     11.2773   7.0876   8.1278   H         1 RES1   0.0000
    55 H26      9.7657   6.6929   7.9553   H         1 RES1   0.0000
    56 B1       8.5553   3.3372  -1.1726   B         2 RES2  -1.0000
    57 C23      7.9161   2.0459  -1.9888   C.ar      2 RES2   0.0000
    58 C24      7.5048   2.0453  -3.3235   C.ar      2 RES2   0.0000
    59 C25      7.0568   0.8758  -3.9535   C.ar      2 RES2   0.0000
    60 C26      7.0064  -0.3158  -3.2752   C.ar      2 RES2   0.0000
    61 C27      7.3466  -0.3413  -1.9451   C.ar      2 RES2   0.0000
    62 C28      7.7703   0.8223  -1.3232   C.ar      2 RES2   0.0000
    63 C29     10.0288   2.8990  -0.5622   C.ar      2 RES2   0.0000
    64 C30     10.7990   1.8749  -1.1312   C.ar      2 RES2   0.0000
    65 C31     12.0803   1.5645  -0.6852   C.ar      2 RES2   0.0000
    66 C32     12.6521   2.2620   0.3495   C.ar      2 RES2   0.0000
    67 C33     11.9396   3.2741   0.9484   C.ar      2 RES2   0.0000
    68 C34     10.6580   3.5881   0.4909   C.ar      2 RES2   0.0000
    69 C35      8.8831   4.5941  -2.1969   C.ar      2 RES2   0.0000
    70 C36      9.6319   4.3917  -3.3557   C.ar      2 RES2   0.0000
    71 C37      9.9972   5.4113  -4.2352   C.ar      2 RES2   0.0000
    72 C38      9.6244   6.7134  -3.9627   C.ar      2 RES2   0.0000
    73 C39      8.9069   6.9677  -2.8212   C.ar      2 RES2   0.0000
    74 C40      8.5359   5.9320  -1.9681   C.ar      2 RES2   0.0000
    75 C41      7.4807   3.7414  -0.0046   C.ar      2 RES2   0.0000
    76 C42      7.6153   3.5070   1.3646   C.ar      2 RES2   0.0000
    77 C43      6.6574   3.8505   2.3015   C.ar      2 RES2   0.0000
    78 C44      5.4850   4.4502   1.9061   C.ar      2 RES2   0.0000
    79 C45      5.2861   4.6620   0.5668   C.ar      2 RES2   0.0000
    80 C46      6.2567   4.3173  -0.3575   C.ar      2 RES2   0.0000
    81 H27      7.5850   2.8725  -3.8282   H         2 RES2   0.0000
    82 H28      6.8489   1.0037  -4.8169   H         2 RES2   0.0000
    83 H29      6.7344  -1.1743  -3.7592   H         2 RES2   0.0000
    84 H30      7.2902  -1.1537  -1.4140   H         2 RES2   0.0000
    85 H31      7.9778   0.8179  -0.3909   H         2 RES2   0.0000
    86 H32     10.4183   1.3795  -1.8739   H         2 RES2   0.0000
    87 H33     12.5059   0.8597  -1.1266   H         2 RES2   0.0000
    88 H34     13.5317   2.0751   0.6208   H         2 RES2   0.0000
    89 H35     12.2944   3.8491   1.6325   H         2 RES2   0.0000
    90 H36     10.1977   4.2862   0.9197   H         2 RES2   0.0000
    91 H37      9.9004   3.5235  -3.5638   H         2 RES2   0.0000
    92 H38     10.5093   5.1757  -5.0928   H         2 RES2   0.0000
    93 H39      9.9069   7.4173  -4.5525   H         2 RES2   0.0000
    94 H40      8.6139   7.8806  -2.5521   H         2 RES2   0.0000
    95 H41      7.9936   6.1438  -1.2531   H         2 RES2   0.0000
    96 H42      8.4274   3.1029   1.6784   H         2 RES2   0.0000
    97 H43      6.8410   3.7404   3.2304   H         2 RES2   0.0000
    98 H44      4.8229   4.6459   2.6096   H         2 RES2   0.0000
    99 H45      4.4911   5.0359   0.2644   H         2 RES2   0.0000
   100 H46      6.0525   4.4127  -1.2991   H         2 RES2   0.0000
@<TRIPOS>BOND
     1     1     2    1
     2     2    16    1
     3     3     1    1
     4     4     1    1
     5     5     1    1
     6     6     1    1
     7     7     1    1
     8     8     4   ar
     9     9     8   ar
    10    10     9   ar
    11    11    10   ar
    12    12     4   ar
    13    13     5    1
    14    14     5    2
    15    15    14    1
    16    16    15    2
    17    17    14    1
    18    18    16    1
    19    19     6   ar
    20    20    19   ar
    21    21    20   ar
    22    22    21   ar
    23    23     6   ar
    24    24     7    1
    25    25     7    2
    26    26    25    1
    27    27     3    1
    28    28    25    1
    29    29    27    1
    30    30     8    1
    31    31     9    1
    32    32    10    1
    33    33    11    1
    34    34    13    1
    35    35    13    1
    36    36    15    1
    37    37    17    1
    38    38    17    1
    39    39    17    1
    40    40    18    1
    41    41    18    1
    42    42    18    1
    43    43    19    1
    44    44    20    1
    45    45    21    1
    46    46    22    1
    47    47    24    1
    48    48    24    1
    49    49    26    1
    50    50    28    1
    51    51    28    1
    52    52    28    1
    53    53    29    1
    54    54    29    1
    55    55    29    1
    56    11    12   ar
    57    12    13    1
    58    22    23   ar
    59    23    24    1
    60    26    27    2
    61    56    57    1
    62    57    58   ar
    63    58    59   ar
    64    59    60   ar
    65    60    61   ar
    66    61    62   ar
    67    62    57   ar
    68    63    56    1
    69    64    63   ar
    70    65    64   ar
    71    66    65   ar
    72    67    66   ar
    73    68    63   ar
    74    69    56    1
    75    70    69   ar
    76    71    70   ar
    77    72    71   ar
    78    73    72   ar
    79    74    69   ar
    80    75    56    1
    81    76    75   ar
    82    77    76   ar
    83    78    77   ar
    84    79    78   ar
    85    80    75   ar
    86    81    58    1
    87    82    59    1
    88    83    60    1
    89    84    61    1
    90    85    62    1
    91    86    64    1
    92    87    65    1
    93    88    66    1
    94    89    67    1
    95    90    68    1
    96    91    70    1
    97    92    71    1
    98    93    72    1
    99    94    73    1
   100    95    74    1
   101    96    76    1
   102    97    77    1
   103    98    78    1
   104    99    79    1
   105   100    80    1
   106    67    68   ar
   107    73    74   ar
   108    79    80   ar
@<TRIPOS>SUBSTRUCTURE
     1 RES1        1 GROUP             0 ****  ****    0  
     2 RES2       56 GROUP             0 ****  ****    0  
@<TRIPOS>CRYSIN
   12.8680   13.3830   11.8200   93.3800  102.3700   98.1700     2     1
