@<TRIPOS>MOLECULE
SOSNIA
   132   134     4     0     0
SMALL
USER_CHARGES
****
Generated from the CSD

@<TRIPOS>ATOM
     1 S1       7.2559  12.3200  15.2255   S.o2      1 RES1   0.0000
     2 F1       7.9045  13.9151  13.2642   F         1 RES1   0.0000
     3 O1       7.0705  13.5243  16.0231   O.3       1 RES1  -1.0000
     4 F2       5.8232  13.4556  13.3780   F         1 RES1   0.0000
     5 F3       7.2287  11.9828  12.6384   F         1 RES1   0.0000
     6 O2       6.1872  11.3878  15.3821   O.2       1 RES1   0.0000
     7 C1       7.0431  12.9526  13.5436   C.3       1 RES1   0.0000
     8 O3       8.5963  11.8138  15.2342   O.2       1 RES1   0.0000
     9 H1      -0.0083  19.8881   7.9951   H         2 RES2   0.0000
    10 N1       4.2716  17.3869   6.5194   N.3       2 RES2   0.0000
    11 O4       3.6759  14.1991   5.9864   O.2       2 RES2   0.0000
    12 N2       5.6902  14.5384   5.0037   N.am      2 RES2   0.0000
    13 H2       6.4609  14.1869   4.7651   H         2 RES2   0.0000
    14 O5       1.1607  14.3784   7.3964   O.2       2 RES2   0.0000
    15 N3      -0.8592  13.4146   6.9385   N.am      2 RES2   0.0000
    16 N4       0.2188  19.0328   8.1642   N.am      2 RES2   0.0000
    17 N5       1.8845  19.3868   6.6250   N.am      2 RES2   0.0000
    18 O6       2.5339  16.2739   3.2967   O.2       2 RES2   0.0000
    19 N6       4.9718  12.4092   5.4428   N.am      2 RES2   0.0000
    20 C2       0.2339  14.1165   6.6203   C.2       2 RES2   0.0000
    21 C3       4.7436  13.7387   5.4886   C.2       2 RES2   0.0000
    22 C4       1.8528  15.3462   3.6864   C.2       2 RES2   0.0000
    23 C5       5.4972  15.9698   4.8523   C.3       2 RES2   0.0000
    24 H3       4.6138  16.1274   4.4354   H         2 RES2   0.0000
    25 H4       6.1871  16.3179   4.2337   H         2 RES2   0.0000
    26 C6       1.1278  18.5184   7.3248   C.2       2 RES2   0.0000
    27 C7       5.5681  16.7567   6.1507   C.3       2 RES2   0.0000
    28 H5       5.8513  16.1504   6.8801   H         2 RES2   0.0000
    29 H6       6.2560  17.4636   6.0613   H         2 RES2   0.0000
    30 C8       3.8261  13.7666   1.9994   C.3       2 RES2   0.0000
    31 H7       4.2669  13.5006   1.1657   H         2 RES2   0.0000
    32 H8       4.0370  13.1171   2.7023   H         2 RES2   0.0000
    33 H9       4.1429  14.6538   2.2683   H         2 RES2   0.0000
    34 C9       5.3012  16.8075  10.0109   C.ar      2 RES2   0.0000
    35 H10      5.8360  17.5689  10.2036   H         2 RES2   0.0000
    36 C10      3.6965  14.6947   9.4756   C.ar      2 RES2   0.0000
    37 H11      3.1069  13.9682   9.3088   H         2 RES2   0.0000
    38 O7       1.2934  17.2736   7.2109   O.2       2 RES2   0.0000
    39 N7       3.6750  15.7456   8.6467   N.ar      2 RES2   0.0000
    40 Fe1      2.6272  15.7771   6.7517   Fe        2 RES2   2.0000
    41 C11      1.8095  12.4202   1.4335   C.3       2 RES2   0.0000
    42 H12      2.2051  12.1329   0.5847   H         2 RES2   0.0000
    43 H13      0.8330  12.4393   1.3493   H         2 RES2   0.0000
    44 H14      2.0634  11.7919   2.1419   H         2 RES2   0.0000
    45 C12      2.7518  11.3346   5.2690   C.3       2 RES2   0.0000
    46 H15      2.3265  12.2105   5.3817   H         2 RES2   0.0000
    47 H16      2.1802  10.6414   5.6601   H         2 RES2   0.0000
    48 H17      2.8775  11.1536   4.3138   H         2 RES2   0.0000
    49 C13     -1.6649  17.4504   8.1701   C.3       2 RES2   0.0000
    50 H18     -2.1324  18.0495   7.5516   H         2 RES2   0.0000
    51 H19     -2.3178  17.0064   8.7511   H         2 RES2   0.0000
    52 H20     -1.1695  16.7759   7.6605   H         2 RES2   0.0000
    53 C14      3.9240  11.4839   7.4598   C.3       2 RES2   0.0000
    54 H21      3.3938  12.2874   7.6455   H         2 RES2   0.0000
    55 H22      4.8015  11.5657   7.8876   H         2 RES2   0.0000
    56 H23      3.4592  10.6973   7.8145   H         2 RES2   0.0000
    57 C15      5.3352  15.7108  10.8304   C.ar      2 RES2   0.0000
    58 H24      5.9101  15.6992  11.5865   H         2 RES2   0.0000
    59 C16     -2.4490  11.9930   8.0151   C.3       2 RES2   0.0000
    60 H25     -2.4092  11.4168   7.2230   H         2 RES2   0.0000
    61 H26     -3.1492  12.6677   7.8929   H         2 RES2   0.0000
    62 H27     -2.6532  11.4493   8.8043   H         2 RES2   0.0000
    63 C17      0.0794  17.3595   9.9569   C.3       2 RES2   0.0000
    64 H28      0.5540  16.6760   9.4403   H         2 RES2   0.0000
    65 H29     -0.5387  16.9258  10.5825   H         2 RES2   0.0000
    66 H30      0.7260  17.8985  10.4586   H         2 RES2   0.0000
    67 C18     -1.2152  13.6765   9.3441   C.3       2 RES2   0.0000
    68 H31     -0.3542  14.1321   9.4542   H         2 RES2   0.0000
    69 H32     -1.4442  13.2060  10.1722   H         2 RES2   0.0000
    70 H33     -1.9099  14.3367   9.1399   H         2 RES2   0.0000
    71 C19      4.8380  10.0304   5.6717   C.3       2 RES2   0.0000
    72 H34      4.3024   9.2737   5.9895   H         2 RES2   0.0000
    73 H35      5.7041  10.0330   6.1300   H         2 RES2   0.0000
    74 H36      4.9795   9.9476   4.7057   H         2 RES2   0.0000
    75 N8       1.2037  15.5090   4.9591   N.am      2 RES2   0.0000
    76 H37     -0.5183  14.6501   4.9544   H         2 RES2   0.0000
    77 N9       0.2535  14.5187   5.2984   N.am      2 RES2   0.0000
    78 H38     -1.3920  13.2833   6.2576   H         2 RES2   0.0000
    79 C20     -1.4848  19.3009   9.8219   C.3       2 RES2   0.0000
    80 H39     -1.9224  19.9253   9.2064   H         2 RES2   0.0000
    81 H40     -0.8696  19.7937  10.4044   H         2 RES2   0.0000
    82 H41     -2.1633  18.8523  10.3690   H         2 RES2   0.0000
    83 C21     -0.0249  11.6673   8.4530   C.3       2 RES2   0.0000
    84 H42     -0.2347  11.1487   9.2570   H         2 RES2   0.0000
    85 H43      0.8294  12.1319   8.5773   H         2 RES2   0.0000
    86 H44      0.0415  11.0639   7.6829   H         2 RES2   0.0000
    87 C22     -1.1161  12.6789   8.2065   C.3       2 RES2   0.0000
    88 N10      1.6648  14.1778   3.0666   N.am      2 RES2   0.0000
    89 C23      4.0388  18.5422   5.5966   C.3       2 RES2   0.0000
    90 H45      4.4039  18.3060   4.7067   H         2 RES2   0.0000
    91 H46      4.5564  19.3165   5.9319   H         2 RES2   0.0000
    92 C24      4.4809  16.7919   8.9003   C.ar      2 RES2   0.0000
    93 C25      2.3148  13.8099   1.7845   C.3       2 RES2   0.0000
    94 C26      4.1031  11.3329   5.9676   C.3       2 RES2   0.0000
    95 C27      4.4191  17.9112   7.8930   C.3       2 RES2   0.0000
    96 H47      3.6526  18.5010   8.1038   H         2 RES2   0.0000
    97 H48      5.2464  18.4517   7.9513   H         2 RES2   0.0000
    98 C28      2.6007  18.9759   5.4170   C.3       2 RES2   0.0000
    99 H49      2.5839  19.7311   4.7774   H         2 RES2   0.0000
   100 H50      2.1024  18.2276   5.0032   H         2 RES2   0.0000
   101 C29     -0.6999  18.2524   9.0165   C.3       2 RES2   0.0000
   102 C30      4.5377  14.6292  10.5557   C.ar      2 RES2   0.0000
   103 H51      4.5671  13.8524  11.1017   H         2 RES2   0.0000
   104 C31      1.9275  14.8035   0.7032   C.3       2 RES2   0.0000
   105 H52      2.4017  14.5855  -0.1258   H         2 RES2   0.0000
   106 H53      2.1699  15.7087   0.9904   H         2 RES2   0.0000
   107 H54      0.9608  14.7577   0.5491   H         2 RES2   0.0000
   108 H55      1.7967  20.2891   6.7272   H         2 RES2   0.0000
   109 H56      0.8797  16.2092   4.9427   H         2 RES2   0.0000
   110 H57      1.2689  13.6516   3.4399   H         2 RES2   0.0000
   111 H58      5.5325  12.2070   5.0483   H         2 RES2   0.0000
   112 S2       7.8081  18.1092  15.8009   S.o2      3 RES3   0.0000
   113 O8       6.5111  18.7014  15.9656   O.2       3 RES3   0.0000
   114 O9       8.8864  19.0631  15.9269   O.3       3 RES3  -1.0000
   115 O10      7.9971  16.8640  16.4587   O.2       3 RES3   0.0000
   116 F4       7.6395  18.7034  13.2571   F         3 RES3   0.0000
   117 F5       6.9102  16.7510  13.7631   F         3 RES3   0.0000
   118 F6       9.0266  17.1234  13.7197   F         3 RES3   0.0000
   119 C32      7.8543  17.6578  14.0425   C.3       3 RES3   0.0000
   120 O11      5.4843  20.6370   9.6012   O.3       4 RES4   0.0000
   121 C33      4.1503  21.0253   9.5930   C.3       4 RES4   0.0000
   122 H59      3.5983  20.3781  10.0990   H         4 RES4   0.0000
   123 H60      3.8098  21.0758   8.6650   H         4 RES4   0.0000
   124 C34      5.3015  22.5263  10.9701   C.3       4 RES4   0.0000
   125 H61      5.1521  22.3304  11.9295   H         4 RES4   0.0000
   126 H62      5.6433  23.4512  10.8845   H         4 RES4   0.0000
   127 C35      6.2525  21.5663  10.3878   C.3       4 RES4   0.0000
   128 H63      6.9111  22.0374   9.8187   H         4 RES4   0.0000
   129 H64      6.7406  21.0883  11.1049   H         4 RES4   0.0000
   130 C36      4.1056  22.3680  10.2399   C.3       4 RES4   0.0000
   131 H65      4.0283  23.0781   9.5533   H         4 RES4   0.0000
   132 H66      3.3241  22.4320  10.8453   H         4 RES4   0.0000
@<TRIPOS>BOND
     1     1     3    1
     2     2     7    1
     3     4     7    1
     4     5     7    1
     5     6     1    2
     6     7     1    1
     7     8     1    2
     8     9    16    1
     9    10    27    1
    10    11    21    2
    11    12    13    1
    12    14    20    2
    13    15    20   am
    14    16    26   am
    15    17    26   am
    16    18    22    2
    17    19    21   am
    18    20    77   am
    19    21    12   am
    20    22    75   am
    21    23    12    1
    22    24    23    1
    23    25    23    1
    24    26    38    2
    25    27    23    1
    26    28    27    1
    27    29    27    1
    28    30    31    1
    29    32    30    1
    30    33    30    1
    31    34    35    1
    32    36    37    1
    33    38    40    1
    34    39    36   ar
    35    40    10    1
    36    41    42    1
    37    43    41    1
    38    44    41    1
    39    45    46    1
    40    47    45    1
    41    48    45    1
    42    49    50    1
    43    51    49    1
    44    52    49    1
    45    53    54    1
    46    55    53    1
    47    56    53    1
    48    57    34   ar
    49    58    57    1
    50    59    60    1
    51    61    59    1
    52    62    59    1
    53    63    64    1
    54    65    63    1
    55    66    63    1
    56    67    68    1
    57    69    67    1
    58    70    67    1
    59    71    72    1
    60    73    71    1
    61    74    71    1
    62    75    40    1
    63    76    77    1
    64    77    75    1
    65    78    15    1
    66    79    80    1
    67    81    79    1
    68    82    79    1
    69    83    84    1
    70    85    83    1
    71    86    83    1
    72    87    15    1
    73    88    22   am
    74    89    10    1
    75    90    89    1
    76    91    89    1
    77    92    34   ar
    78    93    30    1
    79    94    19    1
    80    95    10    1
    81    96    95    1
    82    97    95    1
    83    98    17    1
    84    99    98    1
    85   100    98    1
    86   101    16    1
    87   102    36   ar
    88   103   102    1
    89   104    93    1
    90   105   104    1
    91   106   104    1
    92   107   104    1
    93   108    17    1
    94   109    75    1
    95   110    88    1
    96   111    19    1
    97    11    40    1
    98    14    40    1
    99    39    40    1
   100    39    92   ar
   101    41    93    1
   102    45    94    1
   103    49   101    1
   104    53    94    1
   105    57   102   ar
   106    59    87    1
   107    63   101    1
   108    67    87    1
   109    71    94    1
   110    79   101    1
   111    83    87    1
   112    88    93    1
   113    89    98    1
   114    92    95    1
   115   112   113    2
   116   114   112    1
   117   115   112    2
   118   116   119    1
   119   117   119    1
   120   118   119    1
   121   119   112    1
   122   120   121    1
   123   121   122    1
   124   123   121    1
   125   124   125    1
   126   126   124    1
   127   127   120    1
   128   128   127    1
   129   129   127    1
   130   130   121    1
   131   131   130    1
   132   132   130    1
   133   124   127    1
   134   124   130    1
@<TRIPOS>SUBSTRUCTURE
     1 RES1        1 GROUP             0 ****  ****    0  
     2 RES2        9 GROUP             0 ****  ****    0  
     3 RES3      112 GROUP             0 ****  ****    0  
     4 RES4      120 GROUP             0 ****  ****    0  
@<TRIPOS>CRYSIN
   10.5026   40.9220   11.7968   90.0000   95.6110   90.0000    14     1
