@<TRIPOS>MOLECULE
SPCNFE
    69    79     2     0     0
SMALL
NO_CHARGES
****
Generated from the CSD

@<TRIPOS>ATOM
     1 Fe1      0.0000   0.0000   0.0000   Fe        1 RES1   0.0000
     2 S1      -1.9308  -1.2503   0.1806   S.o       1 RES1   0.0000
     3 O1      -2.8725  -0.7635   1.2052   O.2       1 RES1   0.0000
     4 N1      -0.1790   0.3833   1.8842   N.2       1 RES1   0.0000
     5 N2       1.0747  -1.5674   0.4422   N.2       1 RES1   0.0000
     6 N3       1.0107  -1.4913   2.8574   N.2       1 RES1   0.0000
     7 N4      -1.4993   2.4295   1.8188   N.2       1 RES1   0.0000
     8 C1      -0.8658   1.4380   2.4369   C.2       1 RES1   0.0000
     9 C2      -0.8683   1.3312   3.8929   C.2       1 RES1   0.0000
    10 C3      -1.4614   2.1157   4.8739   C.2       1 RES1   0.0000
    11 C4      -1.2829   1.6919   6.1866   C.2       1 RES1   0.0000
    12 C5      -0.5355   0.5645   6.4824   C.2       1 RES1   0.0000
    13 C6       0.0904  -0.1909   5.5232   C.2       1 RES1   0.0000
    14 C7      -0.1073   0.2345   4.1887   C.2       1 RES1   0.0000
    15 C8       0.3075  -0.3720   2.9337   C.2       1 RES1   0.0000
    16 C9       1.3429  -2.0364   1.7207   C.2       1 RES1   0.0000
    17 C10      2.0909  -3.2674   1.5976   C.ar      1 RES1   0.0000
    18 C11      2.6093  -4.1408   2.5459   C.ar      1 RES1   0.0000
    19 C12      3.2774  -5.2908   2.1022   C.ar      1 RES1   0.0000
    20 C13      3.3991  -5.5383   0.7568   C.ar      1 RES1   0.0000
    21 C14      2.9064  -4.6859  -0.1978   C.ar      1 RES1   0.0000
    22 C15      2.2254  -3.5520   0.2429   C.ar      1 RES1   0.0000
    23 C16      1.5798  -2.4796  -0.4858   C.2       1 RES1   0.0000
    24 C17     -2.8535  -1.4784  -1.4155   C.3       1 RES1   0.0000
    25 C18     -1.7131  -3.0377   0.5528   C.3       1 RES1   0.0000
    26 H1      -1.9860   2.9374   4.6497   H         1 RES1   0.0000
    27 H2      -1.7028   2.2127   6.9309   H         1 RES1   0.0000
    28 H3      -0.4472   0.2895   7.4401   H         1 RES1   0.0000
    29 H4       0.6493  -0.9883   5.7506   H         1 RES1   0.0000
    30 H5       2.5089  -3.9516   3.5223   H         1 RES1   0.0000
    31 H6       3.6646  -5.9314   2.7639   H         1 RES1   0.0000
    32 H7       3.8667  -6.3713   0.4609   H         1 RES1   0.0000
    33 H8       3.0307  -4.8719  -1.1741   H         1 RES1   0.0000
    34 S1B      1.9308   1.2503  -0.1806   S.o       1 RES1   0.0000
    35 N1B      0.1790  -0.3833  -1.8842   N.2       1 RES1   0.0000
    36 N2B     -1.0747   1.5674  -0.4422   N.2       1 RES1   0.0000
    37 C16B    -1.5798   2.4796   0.4858   C.2       1 RES1   0.0000
    38 N4B      1.4993  -2.4295  -1.8188   N.2       1 RES1   0.0000
    39 O1B      2.8725   0.7635  -1.2052   O.2       1 RES1   0.0000
    40 C17B     2.8535   1.4784   1.4155   C.3       1 RES1   0.0000
    41 C18B     1.7131   3.0377  -0.5528   C.3       1 RES1   0.0000
    42 C1B      0.8658  -1.4380  -2.4369   C.2       1 RES1   0.0000
    43 C8B     -0.3075   0.3720  -2.9337   C.2       1 RES1   0.0000
    44 C9B     -1.3429   2.0364  -1.7207   C.2       1 RES1   0.0000
    45 C15B    -2.2254   3.5520  -0.2429   C.ar      1 RES1   0.0000
    46 C2B      0.8683  -1.3312  -3.8929   C.ar      1 RES1   0.0000
    47 N3B     -1.0107   1.4913  -2.8574   N.2       1 RES1   0.0000
    48 C7B      0.1073  -0.2345  -4.1887   C.ar      1 RES1   0.0000
    49 C10B    -2.0909   3.2674  -1.5976   C.ar      1 RES1   0.0000
    50 C14B    -2.9064   4.6859   0.1978   C.ar      1 RES1   0.0000
    51 C3B      1.4614  -2.1157  -4.8739   C.ar      1 RES1   0.0000
    52 C6B     -0.0904   0.1909  -5.5232   C.ar      1 RES1   0.0000
    53 C11B    -2.6093   4.1408  -2.5459   C.ar      1 RES1   0.0000
    54 C13B    -3.3991   5.5383  -0.7568   C.ar      1 RES1   0.0000
    55 H8B     -3.0307   4.8719   1.1741   H         1 RES1   0.0000
    56 C4B      1.2829  -1.6919  -6.1866   C.ar      1 RES1   0.0000
    57 H1B      1.9860  -2.9374  -4.6497   H         1 RES1   0.0000
    58 C5B      0.5355  -0.5645  -6.4824   C.ar      1 RES1   0.0000
    59 H4B     -0.6493   0.9883  -5.7506   H         1 RES1   0.0000
    60 C12B    -3.2774   5.2908  -2.1022   C.ar      1 RES1   0.0000
    61 H5B     -2.5089   3.9516  -3.5223   H         1 RES1   0.0000
    62 H7B     -3.8667   6.3713  -0.4609   H         1 RES1   0.0000
    63 H2B      1.7028  -2.2127  -6.9309   H         1 RES1   0.0000
    64 H3B      0.4472  -0.2895  -7.4401   H         1 RES1   0.0000
    65 H6B     -3.6646   5.9314  -2.7639   H         1 RES1   0.0000
    66 S2       1.1817   5.9201   2.2314   S.o       2 RES2   0.0000
    67 O2       2.2914   5.0337   1.9714   O.2       2 RES2   0.0000
    68 C19      0.1627   5.1550   3.4771   C.3       2 RES2   0.0000
    69 C20      1.8783   7.2367   3.2108   C.3       2 RES2   0.0000
@<TRIPOS>BOND
     1     1     2    1
     2     2     3    2
     3     4     1    1
     4     5     1    1
     5     6    15    1
     6     7     8    1
     7     8     4    1
     8     9     8    2
     9    10     9    1
    10    11    10    2
    11    12    11    1
    12    13    12    2
    13    14     9    1
    14    15     4    1
    15    16     5    1
    16    17    16    1
    17    18    17   ar
    18    19    18   ar
    19    20    19   ar
    20    21    20   ar
    21    22    17   ar
    22    23     5    2
    23    24     2    1
    24    25     2    1
    25    26    10    1
    26    27    11    1
    27    28    12    1
    28    29    13    1
    29    30    18    1
    30    31    19    1
    31    32    20    1
    32    33    21    1
    33    34     1    1
    34    35     1    1
    35    36     1    1
    36    37     7    2
    37    38    23    1
    38    39    34    2
    39    40    34    1
    40    41    34    1
    41    42    35    1
    42    43    35    1
    43    44    36    2
    44    45    37    1
    45    46    42    1
    46    47    43    2
    47    48    43    1
    48    49    44    1
    49    50    45   ar
    50    51    46   ar
    51    52    48   ar
    52    53    49   ar
    53    54    50   ar
    54    55    50    1
    55    56    51   ar
    56    57    51    1
    57    58    52   ar
    58    59    52    1
    59    60    53   ar
    60    61    53    1
    61    62    54    1
    62    63    56    1
    63    64    58    1
    64    65    60    1
    65     6    16    2
    66    13    14    1
    67    14    15    2
    68    21    22   ar
    69    22    23    1
    70    36    37    1
    71    38    42    2
    72    44    47    1
    73    45    49   ar
    74    46    48   ar
    75    54    60   ar
    76    56    58   ar
    77    66    67    2
    78    68    66    1
    79    69    66    1
@<TRIPOS>SUBSTRUCTURE
     1 RES1        1 GROUP             0 ****  ****    0  
     2 RES2       66 GROUP             0 ****  ****    0  
@<TRIPOS>CRYSIN
    7.9930   16.1750   16.0860   90.0000  104.5300   90.0000    14     1
