@<TRIPOS>MOLECULE
SUCCUO
    46    49     5     0     0
SMALL
USER_CHARGES
****
Generated from the CSD

@<TRIPOS>ATOM
     1 Fe1     14.3388  14.3339  14.3339   Fe        1 RES1   0.0000
     2 O1      15.3586  15.9572  13.7880   O.3       1 RES1   0.0000
     3 O2      14.7585  13.8726  12.4105   O.3       1 RES1  -1.0000
     4 O3      18.3260  18.5957  12.6196   O.2       1 RES1   0.0000
     5 N1      17.3172  17.6827  14.3754   N.am      1 RES1   0.0000
     6 N2      17.3826  17.3826  17.3826   N.3       1 RES1   0.0000
     7 C1      16.0546  15.7657  12.6563   C.ar      1 RES1   0.0000
     8 C2      15.6571  14.6483  11.8741   C.ar      1 RES1   0.0000
     9 C3      16.2461  14.4584  10.6355   C.ar      1 RES1   0.0000
    10 C4      17.1959  15.3299  10.1854   C.ar      1 RES1   0.0000
    11 C5      17.6588  16.4137  10.9787   C.ar      1 RES1   0.0000
    12 C6      17.0825  16.5925  12.2269   C.ar      1 RES1   0.0000
    13 C7      17.6268  17.7003  13.0872   C.2       1 RES1   0.0000
    14 C8      17.8136  18.7442  15.2756   C.3       1 RES1   0.0000
    15 C9      18.3771  18.1153  16.5207   C.3       1 RES1   0.0000
    16 O1A     13.7880  15.3586  15.9572   O.3       1 RES1  -1.0000
    17 O1B     15.9572  13.7880  15.3586   O.3       1 RES1  -1.0000
    18 O2A     12.4105  14.7585  13.8726   O.3       1 RES1   0.0000
    19 O2B     13.8726  12.4105  14.7585   O.3       1 RES1   0.0000
    20 C9A     16.5207  18.3771  18.1153   C.3       1 RES1   0.0000
    21 C9B     18.1153  16.5207  18.3771   C.3       1 RES1   0.0000
    22 C1A     12.6563  16.0546  15.7657   C.ar      1 RES1   0.0000
    23 C1B     15.7657  12.6563  16.0546   C.ar      1 RES1   0.0000
    24 C2A     11.8741  15.6571  14.6483   C.ar      1 RES1   0.0000
    25 C2B     14.6483  11.8741  15.6571   C.ar      1 RES1   0.0000
    26 C8A     15.2756  17.8136  18.7442   C.3       1 RES1   0.0000
    27 C8B     18.7442  15.2756  17.8136   C.3       1 RES1   0.0000
    28 C6A     12.2269  17.0825  16.5925   C.ar      1 RES1   0.0000
    29 C6B     16.5925  12.2269  17.0825   C.ar      1 RES1   0.0000
    30 C3A     10.6355  16.2461  14.4584   C.ar      1 RES1   0.0000
    31 C3B     14.4584  10.6355  16.2461   C.ar      1 RES1   0.0000
    32 N1A     14.3754  17.3172  17.6827   N.am      1 RES1   0.0000
    33 N1B     17.6827  14.3754  17.3172   N.am      1 RES1   0.0000
    34 C5A     10.9787  17.6588  16.4137   C.ar      1 RES1   0.0000
    35 C7A     13.0872  17.6268  17.7003   C.2       1 RES1   0.0000
    36 C5B     16.4137  10.9787  17.6588   C.ar      1 RES1   0.0000
    37 C7B     17.7003  13.0872  17.6268   C.2       1 RES1   0.0000
    38 C4A     10.1854  17.1959  15.3299   C.ar      1 RES1   0.0000
    39 C4B     15.3299  10.1854  17.1959   C.ar      1 RES1   0.0000
    40 O3A     12.6196  18.3260  18.5957   O.2       1 RES1   0.0000
    41 O3B     18.5957  12.6196  18.3260   O.2       1 RES1   0.0000
    42 K1      12.4136  12.4184  12.4184   K         2 RES2   1.0000
    43 K2      11.4719  12.9372  16.1504   K         3 RES3   1.0000
    44 O4       9.6091  14.3339   1.6265   O.3       4 RES4   0.0000
    45 O5      13.1128  14.2748  18.4122   O.3       5 RES5   0.0000
    46 C10     13.8949  13.3921  19.2438   C.3       5 RES5   0.0000
@<TRIPOS>BOND
     1     1     2    1
     2     2     7    1
     3     3     1    1
     4     4    13    2
     5     5    13   am
     6     6    15    1
     7     7     8   ar
     8     8     3    1
     9     9     8   ar
    10    10     9   ar
    11    11    10   ar
    12    12     7   ar
    13    13    12    1
    14    14     5    1
    15    15    14    1
    16    16     1    1
    17    17     1    1
    18    18     1    1
    19    19     1    1
    20    20     6    1
    21    21     6    1
    22    22    16    1
    23    23    17    1
    24    24    18    1
    25    25    19    1
    26    26    20    1
    27    27    21    1
    28    28    22   ar
    29    29    23   ar
    30    30    24   ar
    31    31    25   ar
    32    32    26    1
    33    33    27    1
    34    34    28   ar
    35    35    28    1
    36    36    29   ar
    37    37    29    1
    38    38    30   ar
    39    39    31   ar
    40    40    35    2
    41    41    37    2
    42    11    12   ar
    43    22    24   ar
    44    23    25   ar
    45    32    35   am
    46    33    37   am
    47    34    38   ar
    48    36    39   ar
    49    45    46    1
@<TRIPOS>SUBSTRUCTURE
     1 RES1        1 GROUP             0 ****  ****    0  
     2 RES2       42 GROUP             0 ****  ****    0  
     3 RES3       43 GROUP             0 ****  ****    0  
     4 RES4       44 GROUP             0 ****  ****    0  
     5 RES5       45 GROUP             0 ****  ****    0  
@<TRIPOS>CRYSIN
   15.9620   15.9620   15.9620   90.0000   90.0000   90.0000   198     1
