@<TRIPOS>MOLECULE
SUFLOU
   119   128     3     0     0
SMALL
USER_CHARGES
****
Generated from the CSD

@<TRIPOS>ATOM
     1 Fe1      2.3753   4.6680  13.4290   Fe        1 RES1   1.0000
     2 O1       2.7070   4.4178  11.4324   O.co2     1 RES1   0.0000
     3 O2       0.8640   3.4833  12.1620   O.co2     1 RES1   0.0000
     4 N1       1.2133   4.3963  15.2357   N.3       1 RES1   0.0000
     5 N2       1.1643   6.5529  13.4822   N.ar      1 RES1   0.0000
     6 N3       3.0025   2.6225  14.1555   N.ar      1 RES1   0.0000
     7 N4       3.7549   5.5549  14.8025   N.ar      1 RES1   0.0000
     8 C1       1.6829   3.6887  11.2355   C.2       1 RES1   0.0000
     9 C2       1.4992   3.0715   9.8984   C.ar      1 RES1   0.0000
    10 C3       2.1928   3.5374   8.8088   C.ar      1 RES1   0.0000
    11 C4       2.0584   2.9250   7.5804   C.ar      1 RES1   0.0000
    12 C5       1.2533   1.8317   7.4360   C.ar      1 RES1   0.0000
    13 C6       0.5377   1.3771   8.4956   C.ar      1 RES1   0.0000
    14 C7       0.6384   2.0054   9.7371   C.ar      1 RES1   0.0000
    15 C8      -0.0180   5.1843  15.1063   C.3       1 RES1   0.0000
    16 C9       0.2123   6.5063  14.4424   C.ar      1 RES1   0.0000
    17 C10     -0.6275   7.5715  14.7200   C.ar      1 RES1   0.0000
    18 C11     -0.4805   8.7254  13.9736   C.ar      1 RES1   0.0000
    19 C12      0.4890   8.7889  13.0040   C.ar      1 RES1   0.0000
    20 C13      1.2987   7.6751  12.7602   C.ar      1 RES1   0.0000
    21 C14      2.3360   7.7218  11.6931   C.3       1 RES1   0.0000
    22 C15      0.8980   2.9427  15.2995   C.3       1 RES1   0.0000
    23 C16      2.1169   2.1109  15.0238   C.ar      1 RES1   0.0000
    24 C17      2.2572   0.8514  15.5996   C.ar      1 RES1   0.0000
    25 C18      3.3597   0.0990  15.2301   C.ar      1 RES1   0.0000
    26 C19      4.2550   0.6152  14.3431   C.ar      1 RES1   0.0000
    27 C20      4.0682   1.8681  13.8123   C.ar      1 RES1   0.0000
    28 C21      5.0450   2.4796  12.8709   C.3       1 RES1   0.0000
    29 C22      2.0354   4.8052  16.4004   C.3       1 RES1   0.0000
    30 C23      3.3302   5.5110  16.0778   C.ar      1 RES1   0.0000
    31 C24      4.0671   6.0311  17.1243   C.ar      1 RES1   0.0000
    32 C25      5.2955   6.6286  16.8448   C.ar      1 RES1   0.0000
    33 C26      5.7368   6.6678  15.5433   C.ar      1 RES1   0.0000
    34 C27      4.9561   6.1235  14.5381   C.ar      1 RES1   0.0000
    35 C28      5.4181   6.1571  13.1072   C.3       1 RES1   0.0000
    36 H1       2.7684   4.2880   8.9006   H         1 RES1   0.0000
    37 H2       2.5299   3.2667   6.8283   H         1 RES1   0.0000
    38 H3       1.1958   1.3901   6.5958   H         1 RES1   0.0000
    39 H4      -0.0363   0.6283   8.3924   H         1 RES1   0.0000
    40 H5       0.1167   1.7001  10.4704   H         1 RES1   0.0000
    41 H6      -0.3723   5.3383  15.9747   H         1 RES1   0.0000
    42 H7      -0.6443   4.6885  14.5925   H         1 RES1   0.0000
    43 H8      -1.2855   7.5117  15.4027   H         1 RES1   0.0000
    44 H9      -1.0477   9.4714  14.1293   H         1 RES1   0.0000
    45 H10      0.6098   9.5862  12.5014   H         1 RES1   0.0000
    46 H11      0.2324   2.7420  14.6525   H         1 RES1   0.0000
    47 H12      0.5705   2.7345  16.1659   H         1 RES1   0.0000
    48 H13      1.6208   0.5209  16.2222   H         1 RES1   0.0000
    49 H14      3.4919  -0.7693  15.5939   H         1 RES1   0.0000
    50 H15      5.0142   0.1046  14.0880   H         1 RES1   0.0000
    51 H16      2.2457   4.0238  16.8973   H         1 RES1   0.0000
    52 H17      1.5107   5.3897  16.9349   H         1 RES1   0.0000
    53 H18      3.7429   5.9816  18.0170   H         1 RES1   0.0000
    54 H19      5.8197   7.0039  17.5425   H         1 RES1   0.0000
    55 H20      6.5736   7.0655  15.3351   H         1 RES1   0.0000
    56 H21      2.0584   8.3193  11.0086   H         1 RES1   0.0000
    57 H22      2.4521   6.8526  11.3255   H         1 RES1   0.0000
    58 H23      3.1569   8.0224  12.0626   H         1 RES1   0.0000
    59 H24      4.5866   3.0463  12.2632   H         1 RES1   0.0000
    60 H25      5.4923   1.7925  12.3889   H         1 RES1   0.0000
    61 H26      5.6813   2.9875  13.3603   H         1 RES1   0.0000
    62 H27      4.7476   5.7809  12.5483   H         1 RES1   0.0000
    63 H28      6.2198   5.6557  13.0209   H         1 RES1   0.0000
    64 H29      5.5782   7.0571  12.8465   H         1 RES1   0.0000
    65 C29      3.5119   3.9193   2.9406   C.ar      2 RES2   0.0000
    66 C30      3.6327   3.1920   4.1259   C.ar      2 RES2   0.0000
    67 C31      3.5057   1.8065   4.1859   C.ar      2 RES2   0.0000
    68 C32      3.2852   1.0746   3.0400   C.ar      2 RES2   0.0000
    69 C33      3.1833   1.7412   1.8454   C.ar      2 RES2   0.0000
    70 C34      3.2979   3.1341   1.7985   C.ar      2 RES2   0.0000
    71 C35      5.2182   5.9265   2.3405   C.ar      2 RES2   0.0000
    72 C36      5.9656   5.1003   1.4984   C.ar      2 RES2   0.0000
    73 C37      7.1947   5.4672   0.9752   C.ar      2 RES2   0.0000
    74 C38      7.7341   6.7051   1.2828   C.ar      2 RES2   0.0000
    75 C39      7.0374   7.5472   2.1286   C.ar      2 RES2   0.0000
    76 C40      5.8126   7.1607   2.6387   C.ar      2 RES2   0.0000
    77 C41      2.6264   6.1832   1.7516   C.ar      2 RES2   0.0000
    78 C42      2.8793   7.3698   1.0390   C.ar      2 RES2   0.0000
    79 C43      1.9853   7.9319   0.1332   C.ar      2 RES2   0.0000
    80 C44      0.7564   7.3250  -0.0919   C.ar      2 RES2   0.0000
    81 C45      0.4563   6.1646   0.5870   C.ar      2 RES2   0.0000
    82 C46      1.3583   5.6221   1.4928   C.ar      2 RES2   0.0000
    83 C47      3.4199   6.2336   4.3078   C.ar      2 RES2   0.0000
    84 C48      4.3355   6.0973   5.3618   C.ar      2 RES2   0.0000
    85 C49      4.0935   6.5753   6.6464   C.ar      2 RES2   0.0000
    86 C50      2.9264   7.2242   6.9296   C.ar      2 RES2   0.0000
    87 C51      1.9923   7.4212   5.9206   C.ar      2 RES2   0.0000
    88 C52      2.2516   6.9404   4.6397   C.ar      2 RES2   0.0000
    89 B1       3.6948   5.5615   2.8337   B         2 RES2  -1.0000
    90 H30      3.8112   3.6644   4.9323   H         2 RES2   0.0000
    91 H31      3.5727   1.3621   5.0223   H         2 RES2   0.0000
    92 H32      3.2042   0.1288   3.0757   H         2 RES2   0.0000
    93 H33      3.0340   1.2520   1.0446   H         2 RES2   0.0000
    94 H34      3.2272   3.5673   0.9546   H         2 RES2   0.0000
    95 H35      5.6162   4.2460   1.2734   H         2 RES2   0.0000
    96 H36      7.6656   4.8706   0.4070   H         2 RES2   0.0000
    97 H37      8.5696   6.9712   0.9152   H         2 RES2   0.0000
    98 H38      7.4025   8.3931   2.3611   H         2 RES2   0.0000
    99 H39      5.3534   7.7573   3.2201   H         2 RES2   0.0000
   100 H40      3.7058   7.8124   1.1871   H         2 RES2   0.0000
   101 H41      2.2147   8.7282  -0.3319   H         2 RES2   0.0000
   102 H42      0.1353   7.7022  -0.7033   H         2 RES2   0.0000
   103 H43     -0.3754   5.7314   0.4351   H         2 RES2   0.0000
   104 H44      1.1089   4.8342   1.9617   H         2 RES2   0.0000
   105 H45      5.1607   5.6585   5.1892   H         2 RES2   0.0000
   106 H46      4.7436   6.4493   7.3272   H         2 RES2   0.0000
   107 H47      2.7547   7.5398   7.8092   H         2 RES2   0.0000
   108 H48      1.1815   7.8805   6.1044   H         2 RES2   0.0000
   109 H49      1.6095   7.0972   3.9590   H         2 RES2   0.0000
   110 O3       7.2883   4.2152   7.8748   O.2       3 RES3   0.0000
   111 C53      7.2242   4.5961   9.0357   C.2       3 RES3   0.0000
   112 C54      5.9993   4.4813   9.7089   C.3       3 RES3   0.0000
   113 C55      8.2467   5.4616   9.6114   C.3       3 RES3   0.0000
   114 H50      6.0568   4.9313  10.5491   H         3 RES3   0.0000
   115 H51      5.7888   3.5720   9.8515   H         3 RES3   0.0000
   116 H52      5.3104   4.8911   9.1895   H         3 RES3   0.0000
   117 H53      7.9489   5.7631  10.4647   H         3 RES3   0.0000
   118 H54      8.3840   6.2038   9.0413   H         3 RES3   0.0000
   119 H55      9.0504   4.9724   9.7108   H         3 RES3   0.0000
@<TRIPOS>BOND
     1     1     2    1
     2     2     8   un
     3     3     1    1
     4     4     1    1
     5     5     1    1
     6     6     1    1
     7     7     1    1
     8     8     3   un
     9     9     8    1
    10    10     9   ar
    11    11    10   ar
    12    12    11   ar
    13    13    12   ar
    14    14     9   ar
    15    15     4    1
    16    16     5   ar
    17    17    16   ar
    18    18    17   ar
    19    19    18   ar
    20    20     5   ar
    21    21    20    1
    22    22     4    1
    23    23     6   ar
    24    24    23   ar
    25    25    24   ar
    26    26    25   ar
    27    27     6   ar
    28    28    27    1
    29    29     4    1
    30    30     7   ar
    31    31    30   ar
    32    32    31   ar
    33    33    32   ar
    34    34     7   ar
    35    35    34    1
    36    36    10    1
    37    37    11    1
    38    38    12    1
    39    39    13    1
    40    40    14    1
    41    41    15    1
    42    42    15    1
    43    43    17    1
    44    44    18    1
    45    45    19    1
    46    46    22    1
    47    47    22    1
    48    48    24    1
    49    49    25    1
    50    50    26    1
    51    51    29    1
    52    52    29    1
    53    53    31    1
    54    54    32    1
    55    55    33    1
    56    56    21    1
    57    57    21    1
    58    58    21    1
    59    59    28    1
    60    60    28    1
    61    61    28    1
    62    62    35    1
    63    63    35    1
    64    64    35    1
    65    13    14   ar
    66    15    16    1
    67    19    20   ar
    68    22    23    1
    69    26    27   ar
    70    29    30    1
    71    33    34   ar
    72    65    66   ar
    73    66    67   ar
    74    67    68   ar
    75    68    69   ar
    76    69    70   ar
    77    70    65   ar
    78    71    72   ar
    79    72    73   ar
    80    73    74   ar
    81    74    75   ar
    82    75    76   ar
    83    76    71   ar
    84    77    78   ar
    85    78    79   ar
    86    79    80   ar
    87    80    81   ar
    88    81    82   ar
    89    82    77   ar
    90    83    84   ar
    91    84    85   ar
    92    85    86   ar
    93    86    87   ar
    94    87    88   ar
    95    88    83   ar
    96    89    65    1
    97    90    66    1
    98    91    67    1
    99    92    68    1
   100    93    69    1
   101    94    70    1
   102    95    72    1
   103    96    73    1
   104    97    74    1
   105    98    75    1
   106    99    76    1
   107   100    78    1
   108   101    79    1
   109   102    80    1
   110   103    81    1
   111   104    82    1
   112   105    84    1
   113   106    85    1
   114   107    86    1
   115   108    87    1
   116   109    88    1
   117    71    89    1
   118    77    89    1
   119    83    89    1
   120   110   111    2
   121   111   112    1
   122   112   114    1
   123   113   111    1
   124   115   112    1
   125   116   112    1
   126   117   113    1
   127   118   113    1
   128   119   113    1
@<TRIPOS>SUBSTRUCTURE
     1 RES1        1 GROUP             0 ****  ****    0  
     2 RES2       65 GROUP             0 ****  ****    0  
     3 RES3      110 GROUP             0 ****  ****    0  
@<TRIPOS>CRYSIN
   13.3470    9.3360   18.7600   90.0000   91.4500   90.0000     4     1
