@<TRIPOS>MOLECULE
SUKCEH
    93    90     9     0     0
SMALL
USER_CHARGES
****
Generated from the CSD

@<TRIPOS>ATOM
     1 Fe1      4.8567  10.8808   6.8875   Fe        1 RES1   0.0000
     2 N1       7.4345   9.7645   5.6188   N.1       1 RES1   0.0000
     3 N2       3.1816   9.2052   4.9204   N.1       1 RES1   0.0000
     4 N3       4.8017   8.4398   8.7732   N.1       1 RES1   0.0000
     5 C1       6.4578  10.1913   6.0831   C.1       1 RES1  -1.0000
     6 C2       3.8147   9.8451   5.6588   C.1       1 RES1  -1.0000
     7 C3       4.8404   9.3672   8.0846   C.1       1 RES1   0.0000
     8 N1A      2.2788  11.9972   8.1562   N.1       1 RES1   0.0000
     9 N2A      6.5317  12.5564   8.8546   N.1       1 RES1   0.0000
    10 N3A      4.9116  13.3219   5.0019   N.1       1 RES1   0.0000
    11 C1A      3.2555  11.5704   7.6920   C.1       1 RES1  -1.0000
    12 C2A      5.8986  11.9166   8.1163   C.1       1 RES1  -1.0000
    13 C3A      4.8729  12.3945   5.6905   C.1       1 RES1   0.0000
    14 N4       5.2871   9.5789   1.8437   N.ar      2 RES2   1.0000
    15 C4       5.5493  10.6744   2.5539   C.ar      2 RES2   0.0000
    16 H1       5.6767  10.6020   3.4727   H         2 RES2   0.0000
    17 C5       5.6360  11.9129   1.9602   C.ar      2 RES2   0.0000
    18 H2       5.8350  12.6645   2.4699   H         2 RES2   0.0000
    19 C6       5.4277  12.0255   0.6240   C.ar      2 RES2   0.0000
    20 H3       5.4990  12.8582   0.2163   H         2 RES2   0.0000
    21 C7       5.1103  10.9064  -0.1405   C.ar      2 RES2   0.0000
    22 C8       4.8388  10.9879  -1.5373   C.ar      2 RES2   0.0000
    23 H4       4.8728  11.8109  -1.9671   H         2 RES2   0.0000
    24 C9       4.5309   9.8650  -2.2467   C.ar      2 RES2   0.0000
    25 H5       4.3585   9.9253  -3.1586   H         2 RES2   0.0000
    26 C10      4.4735   8.6392  -1.6117   C.ar      2 RES2   0.0000
    27 H6       4.2542   7.8854  -2.1103   H         2 RES2   0.0000
    28 C11      4.7266   8.4959  -0.2727   C.ar      2 RES2   0.0000
    29 H7       4.6900   7.6589   0.1295   H         2 RES2   0.0000
    30 C12      5.0447   9.6436   0.4794   C.ar      2 RES2   0.0000
    31 C13      5.3168   8.2693   2.5470   C.3       2 RES2   0.0000
    32 H8       4.5661   7.7291   2.2536   H         2 RES2   0.0000
    33 H9       5.2259   8.4155   3.5016   H         2 RES2   0.0000
    34 C14      6.6046   7.5264   2.2747   C.ar      2 RES2   0.0000
    35 C15      7.8262   8.1407   2.4823   C.ar      2 RES2   0.0000
    36 H10      7.8605   9.0225   2.7757   H         2 RES2   0.0000
    37 C16      8.9932   7.4455   2.2577   C.ar      2 RES2   0.0000
    38 H11      9.8132   7.8670   2.3762   H         2 RES2   0.0000
    39 C17      8.9514   6.1302   1.8583   C.ar      2 RES2   0.0000
    40 H12      9.7417   5.6631   1.7095   H         2 RES2   0.0000
    41 C18      7.7466   5.5112   1.6792   C.ar      2 RES2   0.0000
    42 H13      7.7182   4.6170   1.4271   H         2 RES2   0.0000
    43 C19      6.5776   6.2067   1.8734   C.ar      2 RES2   0.0000
    44 H14      5.7614   5.7844   1.7329   H         2 RES2   0.0000
    45 N5       5.4244   3.6776   5.3873   N.ar      3 RES3   1.0000
    46 C20      4.3724   4.4728   5.5679   C.ar      3 RES3   0.0000
    47 H15      3.5210   4.0981   5.5940   H         3 RES3   0.0000
    48 C21      4.5083   5.8245   5.7180   C.ar      3 RES3   0.0000
    49 H16      3.7571   6.3564   5.8475   H         3 RES3   0.0000
    50 C22      5.7310   6.3832   5.6781   C.ar      3 RES3   0.0000
    51 H17      5.8242   7.3017   5.7924   H         3 RES3   0.0000
    52 C23      6.8865   5.5741   5.4629   C.ar      3 RES3   0.0000
    53 C24      8.1707   6.1038   5.3681   C.ar      3 RES3   0.0000
    54 H18      8.2979   7.0216   5.4425   H         3 RES3   0.0000
    55 C25      9.2261   5.2988   5.1711   C.ar      3 RES3   0.0000
    56 H19     10.0789   5.6640   5.1037   H         3 RES3   0.0000
    57 C26      9.0535   3.9073   5.0665   C.ar      3 RES3   0.0000
    58 H20      9.7995   3.3643   4.9494   H         3 RES3   0.0000
    59 C27      7.8191   3.3352   5.1329   C.ar      3 RES3   0.0000
    60 H21      7.7130   2.4152   5.0527   H         3 RES3   0.0000
    61 C28      6.7086   4.1774   5.3253   C.ar      3 RES3   0.0000
    62 C29      5.1665   2.2484   5.0968   C.3       3 RES3   0.0000
    63 H22      4.2478   2.0316   5.3227   H         3 RES3   0.0000
    64 H23      5.7489   1.6957   5.6409   H         3 RES3   0.0000
    65 C30      5.4088   1.9484   3.6318   C.ar      3 RES3   0.0000
    66 C31      5.9400   0.7270   3.2564   C.ar      3 RES3   0.0000
    67 H24      6.1306   0.0880   3.9052   H         3 RES3   0.0000
    68 C32      6.1875   0.4520   1.9340   C.ar      3 RES3   0.0000
    69 H25      6.5248  -0.3799   1.6902   H         3 RES3   0.0000
    70 C33      5.9439   1.3885   0.9780   C.ar      3 RES3   0.0000
    71 H26      6.1457   1.2089   0.0882   H         3 RES3   0.0000
    72 C34      5.3997   2.5959   1.3279   C.ar      3 RES3   0.0000
    73 H27      5.2132   3.2285   0.6722   H         3 RES3   0.0000
    74 C35      5.1255   2.8775   2.6600   C.ar      3 RES3   0.0000
    75 H28      4.7500   3.6952   2.8941   H         3 RES3   0.0000
    76 O1       8.8531  10.7411   8.1439   O.3       4 RES4   0.0000
    77 H29      8.6180  10.3807   7.4289   H         4 RES4   0.0000
    78 H30      8.2289  11.1907   8.4592   H         4 RES4   0.0000
    79 O2      10.1679   8.8121   5.4979   O.3       5 RES5   0.0000
    80 H31      9.3529   9.0140   5.4494   H         5 RES5   0.0000
    81 H32     10.6084   9.5046   5.6574   H         5 RES5   0.0000
    82 O3      12.1757   7.3293   4.1890   O.3       6 RES6   0.0000
    83 H33     11.6474   7.4874   4.8240   H         6 RES6   0.0000
    84 H34     12.7915   7.9038   4.2165   H         6 RES6   0.0000
    85 O4      12.5043   7.2741   1.3114   O.3       7 RES7   0.0000
    86 H35     13.1055   6.6493   1.3858   H         7 RES7   0.0000
    87 H36     12.4560   7.6578   2.0470   H         7 RES7   0.0000
    88 O5      14.0946   5.1277   1.0345   O.3       8 RES8   0.0000
    89 H37     13.7747   4.9169   1.7756   H         8 RES8   0.0000
    90 H38     13.5909   4.8819   0.4201   H         8 RES8   0.0000
    91 O6      12.6000   4.5975   3.3267   O.3       9 RES9   0.0000
    92 H39     12.4820   3.9726   3.8653   H         9 RES9   0.0000
    93 H40     12.4328   5.3241   3.6931   H         9 RES9   0.0000
@<TRIPOS>BOND
     1     1     5    1
     2     2     5    3
     3     3     6    3
     4     4     7    3
     5     6     1    1
     6     7     1    1
     7     8    11    3
     8     9    12    3
     9    10    13    3
    10    11     1    1
    11    12     1    1
    12    13     1    1
    13    14    15   ar
    14    15    16    1
    15    17    15   ar
    16    18    17    1
    17    19    17   ar
    18    20    19    1
    19    21    19   ar
    20    22    21   ar
    21    23    22    1
    22    24    22   ar
    23    25    24    1
    24    26    24   ar
    25    27    26    1
    26    28    26   ar
    27    29    28    1
    28    30    14   ar
    29    31    14    1
    30    32    31    1
    31    33    31    1
    32    34    31    1
    33    35    34   ar
    34    36    35    1
    35    37    35   ar
    36    38    37    1
    37    39    37   ar
    38    40    39    1
    39    41    39   ar
    40    42    41    1
    41    43    34   ar
    42    44    43    1
    43    21    30   ar
    44    28    30   ar
    45    41    43   ar
    46    45    46   ar
    47    46    47    1
    48    48    46   ar
    49    49    48    1
    50    50    48   ar
    51    51    50    1
    52    52    50   ar
    53    53    52   ar
    54    54    53    1
    55    55    53   ar
    56    56    55    1
    57    57    55   ar
    58    58    57    1
    59    59    57   ar
    60    60    59    1
    61    61    45   ar
    62    62    45    1
    63    63    62    1
    64    64    62    1
    65    65    62    1
    66    66    65   ar
    67    67    66    1
    68    68    66   ar
    69    69    68    1
    70    70    68   ar
    71    71    70    1
    72    72    70   ar
    73    73    72    1
    74    74    65   ar
    75    75    74    1
    76    52    61   ar
    77    59    61   ar
    78    72    74   ar
    79    76    77    1
    80    78    76    1
    81    79    80    1
    82    81    79    1
    83    82    83    1
    84    84    82    1
    85    85    86    1
    86    87    85    1
    87    88    89    1
    88    90    88    1
    89    91    92    1
    90    93    91    1
@<TRIPOS>SUBSTRUCTURE
     1 RES1        1 GROUP             0 ****  ****    0  
     2 RES2       14 GROUP             0 ****  ****    0  
     3 RES3       45 GROUP             0 ****  ****    0  
     4 RES4       76 GROUP             0 ****  ****    0  
     5 RES5       79 GROUP             0 ****  ****    0  
     6 RES6       82 GROUP             0 ****  ****    0  
     7 RES7       85 GROUP             0 ****  ****    0  
     8 RES8       88 GROUP             0 ****  ****    0  
     9 RES9       91 GROUP             0 ****  ****    0  
@<TRIPOS>CRYSIN
   10.9680   11.4660   14.0770   87.0140   78.1240   72.7080     2     1
