@<TRIPOS>MOLECULE
SUMCIO
   108   121     2     0     0
SMALL
NO_CHARGES
****
Generated from the CSD

@<TRIPOS>ATOM
     1 Fe1     -0.6213   3.0069   2.8788   Fe        1 RES1   0.0000
     2 C1      -1.4289   1.3818   1.8857   C.2       1 RES1   0.0000
     3 H1      -1.3101   1.4284   0.8938   H         1 RES1   0.0000
     4 C2      -1.0703  -0.1950   3.8310   C.ar      1 RES1   0.0000
     5 C3      -0.3203   6.2532   2.4501   C.ar      1 RES1   0.0000
     6 C4      -3.8119   0.8947   5.6429   C.ar      1 RES1   0.0000
     7 H2      -3.5121   0.4056   6.3994   H         1 RES1   0.0000
     8 C5      -0.7710  -1.4737   4.2991   C.ar      1 RES1   0.0000
     9 H3      -0.7871  -1.6470   5.2336   H         1 RES1   0.0000
    10 C6      -2.9031   1.2468   4.6532   C.ar      1 RES1   0.0000
    11 C7      -0.9646   5.5124   1.4375   C.ar      1 RES1   0.0000
    12 C8      -1.0744   0.0698   2.4522   C.ar      1 RES1   0.0000
    13 C9      -2.4607   2.2397   2.3670   C.2       1 RES1   0.0000
    14 H4      -2.9182   2.7559   1.6421   H         1 RES1   0.0000
    15 C10     -0.4495  -2.4978   3.4191   C.ar      1 RES1   0.0000
    16 H5      -0.2479  -3.3661   3.7473   H         1 RES1   0.0000
    17 C11     -0.7340  -0.9735   1.5808   C.ar      1 RES1   0.0000
    18 H6      -0.7156  -0.8097   0.6454   H         1 RES1   0.0000
    19 C12     -3.3389   1.9306   3.5070   C.ar      1 RES1   0.0000
    20 C13     -1.9919   6.1269   0.7129   C.ar      1 RES1   0.0000
    21 H7      -2.4434   5.6327   0.0382   H         1 RES1   0.0000
    22 C14     -1.7081   8.1686   1.9317   C.ar      1 RES1   0.0000
    23 H8      -1.9521   9.0720   2.0949   H         1 RES1   0.0000
    24 C15     -0.6922   7.5791   2.6725   C.ar      1 RES1   0.0000
    25 H9      -0.2440   8.0854   3.3401   H         1 RES1   0.0000
    26 C16     -0.4256  -2.2406   2.0526   C.ar      1 RES1   0.0000
    27 H10     -0.1968  -2.9326   1.4422   H         1 RES1   0.0000
    28 C17     -4.6908   2.2959   3.4301   C.ar      1 RES1   0.0000
    29 H11     -5.0009   2.7820   2.6756   H         1 RES1   0.0000
    30 C18     -5.1520   1.2472   5.5425   C.ar      1 RES1   0.0000
    31 H12     -5.7664   1.0014   6.2245   H         1 RES1   0.0000
    32 C19     -2.3662   7.4393   0.9550   C.ar      1 RES1   0.0000
    33 H13     -3.0688   7.8360   0.4543   H         1 RES1   0.0000
    34 C20     -5.5819   1.9599   4.4370   C.ar      1 RES1   0.0000
    35 H14     -6.4925   2.2202   4.3677   H         1 RES1   0.0000
    36 C21     -0.6374   4.1104   1.1442   C.2       1 RES1   0.0000
    37 H15     -1.1922   3.7097   0.4146   H         1 RES1   0.0000
    38 C22      0.6300   3.4931   1.3058   C.2       1 RES1   0.0000
    39 H16      0.7617   2.7271   0.6763   H         1 RES1   0.0000
    40 C23      1.8838   4.2166   1.5745   C.ar      1 RES1   0.0000
    41 C24      3.0251   3.8959   0.8268   C.ar      1 RES1   0.0000
    42 H17      2.9992   3.1630   0.2235   H         1 RES1   0.0000
    43 C25      4.1902   4.6341   0.9559   C.ar      1 RES1   0.0000
    44 H18      4.9493   4.4174   0.4263   H         1 RES1   0.0000
    45 C26      4.2550   5.6896   1.8556   C.ar      1 RES1   0.0000
    46 H19      5.0535   6.1953   1.9435   H         1 RES1   0.0000
    47 C27      1.9593   5.2741   2.4970   C.ar      1 RES1   0.0000
    48 C28      3.1376   6.0007   2.6277   C.ar      1 RES1   0.0000
    49 H20      3.1810   6.7164   3.2504   H         1 RES1   0.0000
    50 C29      0.7313   5.5923   3.3169   C.3       1 RES1   0.0000
    51 H21      0.9831   6.2127   4.0590   H         1 RES1   0.0000
    52 C30      1.0767   3.2000   7.8559   C.ar      1 RES1   0.0000
    53 C31      0.5400   3.9060   8.9313   C.ar      1 RES1   0.0000
    54 H22     -0.3820   3.8074   9.1383   H         1 RES1   0.0000
    55 C32      2.4415   3.3604   7.6017   C.ar      1 RES1   0.0000
    56 H23      2.8422   2.8814   6.8861   H         1 RES1   0.0000
    57 C33      2.3325  -0.8743   5.8587   C.ar      1 RES1   0.0000
    58 H24      2.6098  -1.2818   5.0469   H         1 RES1   0.0000
    59 C34      1.5365   0.3348   8.2101   C.ar      1 RES1   0.0000
    60 H25      1.2834   0.7527   9.0251   H         1 RES1   0.0000
    61 C35      1.5275   0.2653   5.8211   C.ar      1 RES1   0.0000
    62 H26      1.2695   0.6283   4.9822   H         1 RES1   0.0000
    63 C36      3.2188   4.2053   8.3756   C.ar      1 RES1   0.0000
    64 H27      4.1435   4.3000   8.1812   H         1 RES1   0.0000
    65 C37      1.0965   0.8791   6.9948   C.ar      1 RES1   0.0000
    66 C38      1.3263   4.7544   9.7088   C.ar      1 RES1   0.0000
    67 H28      0.9345   5.2242  10.4349   H         1 RES1   0.0000
    68 C39      2.6654   4.9170   9.4336   C.ar      1 RES1   0.0000
    69 H29      3.2002   5.5040   9.9557   H         1 RES1   0.0000
    70 C40      2.3334  -0.8020   8.2474   C.ar      1 RES1   0.0000
    71 H30      2.6084  -1.1613   9.0824   H         1 RES1   0.0000
    72 C41      2.7294  -1.4145   7.0635   C.ar      1 RES1   0.0000
    73 H31      3.2677  -2.1976   7.0845   H         1 RES1   0.0000
    74 C42     -1.1411   2.0438   7.6369   C.ar      1 RES1   0.0000
    75 C43     -1.5344   0.9825   8.4484   C.ar      1 RES1   0.0000
    76 H32     -0.9427   0.2514   8.5841   H         1 RES1   0.0000
    77 C44     -2.0524   3.0828   7.4313   C.ar      1 RES1   0.0000
    78 H33     -1.8137   3.8056   6.8640   H         1 RES1   0.0000
    79 C45     -2.7844   0.9794   9.0643   C.ar      1 RES1   0.0000
    80 H34     -3.0327   0.2520   9.6234   H         1 RES1   0.0000
    81 C46     -3.6701   2.0297   8.8691   C.ar      1 RES1   0.0000
    82 H35     -4.5183   2.0312   9.2956   H         1 RES1   0.0000
    83 C47     -3.2949   3.0776   8.0392   C.ar      1 RES1   0.0000
    84 H36     -3.8969   3.7974   7.8872   H         1 RES1   0.0000
    85 C48      0.5994   3.9898   5.1394   C.3       1 RES1   0.0000
    86 H37      0.3249   4.6862   5.7879   H         1 RES1   0.0000
    87 H38      1.5883   3.9437   5.1454   H         1 RES1   0.0000
    88 C49      0.0661   2.7151   5.5631   C.2       1 RES1   0.0000
    89 N1       0.1782   4.3550   3.8889   N.2       1 RES1   0.0000
    90 C50     -1.4396   0.8908   4.8213   C.3       1 RES1   0.0000
    91 H39     -1.2870   0.5550   5.7511   H         1 RES1   0.0000
    92 C51      0.2591   2.1879   7.0051   C.3       1 RES1   0.0000
    93 N2      -0.6245   2.1105   4.6035   N.2       1 RES1   0.0000
    94 C52      2.5836  11.2648   2.1111   C.ar      2 RES2   0.0000
    95 H40      1.6602  11.2163   1.8920   H         2 RES2   0.0000
    96 C53      3.2618  10.0936   2.4816   C.ar      2 RES2   0.0000
    97 H41      2.7734   9.2787   2.5080   H         2 RES2   0.0000
    98 C54      5.2069  11.3109   2.7080   C.ar      2 RES2   0.0000
    99 H42      6.1388  11.3556   2.8859   H         2 RES2   0.0000
   100 C55      3.2268  12.4919   2.0552   C.ar      2 RES2   0.0000
   101 C56      4.5857  10.0619   2.8065   C.ar      2 RES2   0.0000
   102 H43      5.0405   9.2720   3.0726   H         2 RES2   0.0000
   103 C57      2.5266  13.8400   1.5833   C.3       2 RES2   0.0000
   104 H44      1.6422  13.6364   1.2143   H         2 RES2   0.0000
   105 H45      3.0766  14.2700   0.8938   H         2 RES2   0.0000
   106 H46      2.4316  14.4443   2.3478   H         2 RES2   0.0000
   107 C58      4.5191  12.5578   2.3463   C.ar      2 RES2   0.0000
   108 H47      4.9854  13.3861   2.3228   H         2 RES2   0.0000
@<TRIPOS>BOND
     1     1     2   un
     2     2     3    1
     3     4     8   ar
     4     5    11   ar
     5     6     7    1
     6     8     9    1
     7    10     6   ar
     8    11    20   ar
     9    12     2    1
    10    13     1   un
    11    14    13    1
    12    15     8   ar
    13    16    15    1
    14    17    12   ar
    15    18    17    1
    16    19    10   ar
    17    20    21    1
    18    22    23    1
    19    24     5   ar
    20    25    24    1
    21    26    15   ar
    22    27    26    1
    23    28    19   ar
    24    29    28    1
    25    30     6   ar
    26    31    30    1
    27    32    20   ar
    28    33    32    1
    29    34    28   ar
    30    35    34    1
    31    36     1   un
    32    37    36    1
    33    38     1   un
    34    39    38    1
    35    40    38    1
    36    41    40   ar
    37    42    41    1
    38    43    41   ar
    39    44    43    1
    40    45    43   ar
    41    46    45    1
    42    47    40   ar
    43    48    45   ar
    44    49    48    1
    45    50     5    1
    46    51    50    1
    47    52    53   ar
    48    53    54    1
    49    55    52   ar
    50    56    55    1
    51    57    58    1
    52    59    60    1
    53    61    57   ar
    54    62    61    1
    55    63    55   ar
    56    64    63    1
    57    65    59   ar
    58    66    53   ar
    59    67    66    1
    60    68    63   ar
    61    69    68    1
    62    70    59   ar
    63    71    70    1
    64    72    57   ar
    65    73    72    1
    66    74    75   ar
    67    75    76    1
    68    77    74   ar
    69    78    77    1
    70    79    75   ar
    71    80    79    1
    72    81    79   ar
    73    82    81    1
    74    83    77   ar
    75    84    83    1
    76    85    86    1
    77    87    85    1
    78    88    85    1
    79    89     1    1
    80    90     4    1
    81    91    90    1
    82    92    52    1
    83    93     1    1
    84     2    13    2
    85     4    12   ar
    86    10    90    1
    87    11    36    1
    88    13    19    1
    89    17    26   ar
    90    22    24   ar
    91    22    32   ar
    92    30    34   ar
    93    36    38    2
    94    47    48   ar
    95    47    50    1
    96    50    89    1
    97    61    65   ar
    98    65    92    1
    99    66    68   ar
   100    70    72   ar
   101    74    92    1
   102    81    83   ar
   103    85    89    1
   104    88    92    1
   105    88    93    2
   106    90    93    1
   107    94    95    1
   108    96    94   ar
   109    97    96    1
   110    98    99    1
   111   100    94   ar
   112   101    96   ar
   113   102   101    1
   114   103   100    1
   115   104   103    1
   116   105   103    1
   117   106   103    1
   118   107    98   ar
   119   108   107    1
   120    98   101   ar
   121   100   107   ar
@<TRIPOS>SUBSTRUCTURE
     1 RES1        1 GROUP             0 ****  ****    0  
     2 RES2       94 GROUP             0 ****  ****    0  
@<TRIPOS>CRYSIN
   10.1232   14.1732   15.1866  103.7950   93.7620   92.8870     2     1
