@<TRIPOS>MOLECULE
SURMEX
   143   154     3     0     0
SMALL
NO_CHARGES
****
Generated from the CSD

@<TRIPOS>ATOM
     1 Fe1      0.0000   0.0000   0.0000   Fe        1 RES1   0.0000
     2 P1       0.9945  -1.7846  -1.0497   P.3       1 RES1   0.0000
     3 O1       7.1094   5.2783  -2.0829   O.3       1 RES1   0.0000
     4 O2      -3.2475   1.7535  -8.2839   O.3       1 RES1   0.0000
     5 N1       0.5637   1.1602  -1.5162   N.2       1 RES1   0.0000
     6 N2       1.7099   0.4089   0.9506   N.2       1 RES1   0.0000
     7 C1      -0.1191   1.4010  -2.6951   C.2       1 RES1   0.0000
     8 C2       0.6642   2.2412  -3.5593   C.2       1 RES1   0.0000
     9 C3       1.7861   2.5446  -2.9040   C.2       1 RES1   0.0000
    10 C4       1.7399   1.8856  -1.6286   C.2       1 RES1   0.0000
    11 C5       2.7426   1.9511  -0.6678   C.2       1 RES1   0.0000
    12 C6       2.7314   1.2473   0.5213   C.2       1 RES1   0.0000
    13 C7       3.7917   1.2504   1.4923   C.2       1 RES1   0.0000
    14 C8       3.4289   0.4358   2.4940   C.2       1 RES1   0.0000
    15 C9       2.1232  -0.0795   2.1772   C.2       1 RES1   0.0000
    16 C10     -1.3811   0.8973  -3.0119   C.2       1 RES1   0.0000
    17 C11      0.8505  -3.3803  -0.2010   C.3       1 RES1   0.0000
    18 C12      0.3979  -2.1839  -2.7110   C.3       1 RES1   0.0000
    19 C13      2.7955  -1.6490  -1.3163   C.3       1 RES1   0.0000
    20 C14      3.9067   2.8525  -0.9722   C.ar      1 RES1   0.0000
    21 C15      5.1375   2.3296  -1.3401   C.ar      1 RES1   0.0000
    22 C16      6.1894   3.1737  -1.6899   C.ar      1 RES1   0.0000
    23 C17      6.0116   4.5367  -1.6831   C.ar      1 RES1   0.0000
    24 C18      4.8143   5.0699  -1.2981   C.ar      1 RES1   0.0000
    25 C19      3.7647   4.2214  -0.9517   C.ar      1 RES1   0.0000
    26 C20      6.9235   6.6797  -2.2260   C.3       1 RES1   0.0000
    27 C21     -1.9152   1.1883  -4.3793   C.ar      1 RES1   0.0000
    28 C22     -1.9169   0.1795  -5.3367   C.ar      1 RES1   0.0000
    29 C23     -2.3661   0.4065  -6.6167   C.ar      1 RES1   0.0000
    30 C24     -2.8308   1.6437  -6.9824   C.ar      1 RES1   0.0000
    31 C25     -2.8300   2.6738  -6.0590   C.ar      1 RES1   0.0000
    32 C26     -2.3771   2.4356  -4.7643   C.ar      1 RES1   0.0000
    33 C27     -3.7014   3.0131  -8.7325   C.3       1 RES1   0.0000
    34 H1       1.3470  -4.0436  -0.6701   H         1 RES1   0.0000
    35 H2       1.1798  -3.3052   0.6814   H         1 RES1   0.0000
    36 H3      -0.0637  -3.6365  -0.1817   H         1 RES1   0.0000
    37 H4       0.9666  -2.8356  -3.1005   H         1 RES1   0.0000
    38 H5      -0.4810  -2.5247  -2.6689   H         1 RES1   0.0000
    39 H6       0.4086  -1.3964  -3.2368   H         1 RES1   0.0000
    40 H7       3.0893  -2.3709  -1.8626   H         1 RES1   0.0000
    41 H8       3.2432  -1.6816  -0.4770   H         1 RES1   0.0000
    42 H9       2.9927  -0.8166  -1.7376   H         1 RES1   0.0000
    43 H10      7.7213   7.0606  -2.5667   H         1 RES1   0.0000
    44 H11      6.7261   7.0690  -1.3856   H         1 RES1   0.0000
    45 H12      6.2098   6.8410  -2.8279   H         1 RES1   0.0000
    46 H13     -4.0580   2.9223  -9.6082   H         1 RES1   0.0000
    47 H14     -4.3701   3.3421  -8.1431   H         1 RES1   0.0000
    48 H15     -2.9755   3.6223  -8.7564   H         1 RES1   0.0000
    49 H16      0.4315   2.5294  -4.4293   H         1 RES1   0.0000
    50 H17      2.4892   3.1013  -3.2254   H         1 RES1   0.0000
    51 H18      4.5988   1.7465   1.4310   H         1 RES1   0.0000
    52 H19      3.9417   0.2323   3.2709   H         1 RES1   0.0000
    53 H20      5.2634   1.3870  -1.3515   H         1 RES1   0.0000
    54 H21      7.0282   2.8027  -1.9307   H         1 RES1   0.0000
    55 H22      4.6907   6.0071  -1.2720   H         1 RES1   0.0000
    56 H23      2.9274   4.6030  -0.6928   H         1 RES1   0.0000
    57 H24     -1.5970  -0.6779  -5.0994   H         1 RES1   0.0000
    58 H25     -2.3604  -0.3042  -7.2572   H         1 RES1   0.0000
    59 H26     -3.1383   3.5352  -6.3032   H         1 RES1   0.0000
    60 H27     -2.3836   3.1413  -4.1340   H         1 RES1   0.0000
    61 P1A     -0.9945   1.7846   1.0497   P.3       1 RES1   0.0000
    62 N1A     -0.5637  -1.1602   1.5162   N.2       1 RES1   0.0000
    63 N2A     -1.7099  -0.4089  -0.9506   N.2       1 RES1   0.0000
    64 C10A     1.3811  -0.8973   3.0119   C.2       1 RES1   0.0000
    65 C9A     -2.1232   0.0795  -2.1772   C.2       1 RES1   0.0000
    66 C11A    -0.8505   3.3803   0.2010   C.3       1 RES1   0.0000
    67 C12A    -0.3979   2.1839   2.7110   C.3       1 RES1   0.0000
    68 C13A    -2.7955   1.6490   1.3163   C.3       1 RES1   0.0000
    69 C1A      0.1191  -1.4010   2.6951   C.2       1 RES1   0.0000
    70 C4A     -1.7399  -1.8856   1.6286   C.2       1 RES1   0.0000
    71 C6A     -2.7314  -1.2473  -0.5213   C.2       1 RES1   0.0000
    72 C21A     1.9152  -1.1883   4.3793   C.ar      1 RES1   0.0000
    73 C8A     -3.4289  -0.4358  -2.4940   C.2       1 RES1   0.0000
    74 H1A     -1.3470   4.0436   0.6701   H         1 RES1   0.0000
    75 H2A     -1.1798   3.3052  -0.6814   H         1 RES1   0.0000
    76 H3A      0.0637   3.6365   0.1817   H         1 RES1   0.0000
    77 H4A     -0.9666   2.8356   3.1005   H         1 RES1   0.0000
    78 H5A      0.4810   2.5247   2.6689   H         1 RES1   0.0000
    79 H6A     -0.4086   1.3964   3.2368   H         1 RES1   0.0000
    80 H7A     -3.0893   2.3709   1.8626   H         1 RES1   0.0000
    81 H8A     -3.2432   1.6816   0.4770   H         1 RES1   0.0000
    82 H9A     -2.9927   0.8166   1.7376   H         1 RES1   0.0000
    83 C2A     -0.6642  -2.2412   3.5593   C.2       1 RES1   0.0000
    84 C3A     -1.7861  -2.5446   2.9040   C.2       1 RES1   0.0000
    85 C5A     -2.7426  -1.9511   0.6678   C.2       1 RES1   0.0000
    86 C7A     -3.7917  -1.2504  -1.4923   C.2       1 RES1   0.0000
    87 C22A     1.9169  -0.1795   5.3367   C.ar      1 RES1   0.0000
    88 C26A     2.3771  -2.4356   4.7643   C.ar      1 RES1   0.0000
    89 H19A    -3.9417  -0.2323  -3.2709   H         1 RES1   0.0000
    90 H16A    -0.4315  -2.5294   4.4293   H         1 RES1   0.0000
    91 H17A    -2.4892  -3.1013   3.2254   H         1 RES1   0.0000
    92 C14A    -3.9067  -2.8525   0.9722   C.ar      1 RES1   0.0000
    93 H18A    -4.5988  -1.7465  -1.4310   H         1 RES1   0.0000
    94 C23A     2.3661  -0.4065   6.6167   C.ar      1 RES1   0.0000
    95 H24A     1.5970   0.6779   5.0994   H         1 RES1   0.0000
    96 C25A     2.8300  -2.6738   6.0590   C.ar      1 RES1   0.0000
    97 H27A     2.3836  -3.1413   4.1340   H         1 RES1   0.0000
    98 C15A    -5.1375  -2.3296   1.3401   C.ar      1 RES1   0.0000
    99 C19A    -3.7647  -4.2214   0.9517   C.ar      1 RES1   0.0000
   100 C24A     2.8308  -1.6437   6.9824   C.ar      1 RES1   0.0000
   101 H25A     2.3604   0.3042   7.2572   H         1 RES1   0.0000
   102 H26A     3.1383  -3.5352   6.3032   H         1 RES1   0.0000
   103 C16A    -6.1894  -3.1737   1.6899   C.ar      1 RES1   0.0000
   104 H20A    -5.2634  -1.3870   1.3515   H         1 RES1   0.0000
   105 C18A    -4.8143  -5.0699   1.2981   C.ar      1 RES1   0.0000
   106 H23A    -2.9274  -4.6030   0.6928   H         1 RES1   0.0000
   107 O2A      3.2475  -1.7535   8.2839   O.3       1 RES1   0.0000
   108 C17A    -6.0116  -4.5367   1.6831   C.ar      1 RES1   0.0000
   109 H21A    -7.0282  -2.8027   1.9307   H         1 RES1   0.0000
   110 H22A    -4.6907  -6.0071   1.2720   H         1 RES1   0.0000
   111 C27A     3.7014  -3.0131   8.7325   C.3       1 RES1   0.0000
   112 O1A     -7.1094  -5.2783   2.0829   O.3       1 RES1   0.0000
   113 H13A     4.0580  -2.9223   9.6082   H         1 RES1   0.0000
   114 H14A     4.3701  -3.3421   8.1431   H         1 RES1   0.0000
   115 H15A     2.9755  -3.6223   8.7564   H         1 RES1   0.0000
   116 C20A    -6.9235  -6.6797   2.2260   C.3       1 RES1   0.0000
   117 H10A    -7.7213  -7.0606   2.5667   H         1 RES1   0.0000
   118 H11A    -6.7261  -7.0690   1.3856   H         1 RES1   0.0000
   119 H12A    -6.2098  -6.8410   2.8279   H         1 RES1   0.0000
   120 C28      9.1508   8.3705   6.4406   C.ar      2 RES2   0.0000
   121 C29      9.9627   7.2858   6.3611   C.ar      2 RES2   0.0000
   122 C30      7.9793   8.3767   5.7524   C.ar      2 RES2   0.0000
   123 H28      9.3991   9.1144   6.9733   H         2 RES2   0.0000
   124 H29     10.7904   7.2668   6.8370   H         2 RES2   0.0000
   125 H30      7.4127   9.1322   5.8035   H         2 RES2   0.0000
   126 C30A     9.5991   6.2218   5.6048   C.ar      2 RES2   0.0000
   127 C29A     7.6156   7.3127   4.9960   C.ar      2 RES2   0.0000
   128 C28A     8.4275   6.2279   4.9165   C.ar      2 RES2   0.0000
   129 H30A    10.1657   5.4662   5.5537   H         2 RES2   0.0000
   130 H29A     6.7879   7.3316   4.5202   H         2 RES2   0.0000
   131 H28A     8.1792   5.4840   4.3839   H         2 RES2   0.0000
   132 C31      8.3508   2.6200   6.3418   C.ar      3 RES3   0.0000
   133 C32      7.2188   2.5663   5.6207   C.ar      3 RES3   0.0000
   134 C33      9.1782   1.5222   6.3986   C.ar      3 RES3   0.0000
   135 H31      8.5806   3.4136   6.8029   H         3 RES3   0.0000
   136 H32      6.6528   3.3236   5.5764   H         3 RES3   0.0000
   137 H33      9.9849   1.5473   6.9052   H         3 RES3   0.0000
   138 C33A     6.8588   1.4621   4.9585   C.ar      3 RES3   0.0000
   139 C32A     8.8181   0.4180   5.7365   C.ar      3 RES3   0.0000
   140 C31A     7.6861   0.3643   5.0153   C.ar      3 RES3   0.0000
   141 H33A     6.0521   1.4370   4.4520   H         3 RES3   0.0000
   142 H32A     9.3842  -0.3393   5.7808   H         3 RES3   0.0000
   143 H31A     7.4563  -0.4293   4.5542   H         3 RES3   0.0000
@<TRIPOS>BOND
     1     1     2    1
     2     2    17    1
     3     3    23    1
     4     4    30    1
     5     5     1    1
     6     6     1    1
     7     7     5    1
     8     8     7    1
     9     9     8    2
    10    10     5    2
    11    11    10    1
    12    12     6    1
    13    13    12    1
    14    14    13    2
    15    15     6    1
    16    16     7    2
    17    17    34    1
    18    18     2    1
    19    19     2    1
    20    20    11    1
    21    21    20   ar
    22    22    21   ar
    23    23    22   ar
    24    24    23   ar
    25    25    20   ar
    26    26     3    1
    27    27    16    1
    28    28    27   ar
    29    29    28   ar
    30    30    29   ar
    31    31    30   ar
    32    32    27   ar
    33    33     4    1
    34    35    17    1
    35    36    17    1
    36    37    18    1
    37    38    18    1
    38    39    18    1
    39    40    19    1
    40    41    19    1
    41    42    19    1
    42    43    26    1
    43    44    26    1
    44    45    26    1
    45    46    33    1
    46    47    33    1
    47    48    33    1
    48    49     8    1
    49    50     9    1
    50    51    13    1
    51    52    14    1
    52    53    21    1
    53    54    22    1
    54    55    24    1
    55    56    25    1
    56    57    28    1
    57    58    29    1
    58    59    31    1
    59    60    32    1
    60    61     1    1
    61    62     1    1
    62    63     1    1
    63    64    15    2
    64    65    16    1
    65    66    61    1
    66    67    61    1
    67    68    61    1
    68    69    62    2
    69    70    62    1
    70    71    63    1
    71    72    64    1
    72    73    65    2
    73    74    66    1
    74    75    66    1
    75    76    66    1
    76    77    67    1
    77    78    67    1
    78    79    67    1
    79    80    68    1
    80    81    68    1
    81    82    68    1
    82    83    69    1
    83    84    70    1
    84    85    70    2
    85    86    71    2
    86    87    72   ar
    87    88    72   ar
    88    89    73    1
    89    90    83    1
    90    91    84    1
    91    92    85    1
    92    93    86    1
    93    94    87   ar
    94    95    87    1
    95    96    88   ar
    96    97    88    1
    97    98    92   ar
    98    99    92   ar
    99   100    94   ar
   100   101    94    1
   101   102    96    1
   102   103    98   ar
   103   104    98    1
   104   105    99   ar
   105   106    99    1
   106   107   100    1
   107   108   103   ar
   108   109   103    1
   109   110   105    1
   110   111   107    1
   111   112   108    1
   112   113   111    1
   113   114   111    1
   114   115   111    1
   115   116   112    1
   116   117   116    1
   117   118   116    1
   118   119   116    1
   119     9    10    1
   120    11    12    2
   121    14    15    1
   122    24    25   ar
   123    31    32   ar
   124    63    65    1
   125    64    69    1
   126    71    85    1
   127    73    86    1
   128    83    84    2
   129    96   100   ar
   130   105   108   ar
   131   120   121   ar
   132   121   124    1
   133   122   120   ar
   134   123   120    1
   135   125   122    1
   136   126   121   ar
   137   127   122   ar
   138   128   126   ar
   139   129   126    1
   140   130   127    1
   141   131   128    1
   142   127   128   ar
   143   132   133   ar
   144   133   136    1
   145   134   132   ar
   146   135   132    1
   147   137   134    1
   148   138   133   ar
   149   139   134   ar
   150   140   138   ar
   151   141   138    1
   152   142   139    1
   153   143   140    1
   154   139   140   ar
@<TRIPOS>SUBSTRUCTURE
     1 RES1        1 GROUP             0 ****  ****    0  
     2 RES2      120 GROUP             0 ****  ****    0  
     3 RES3      132 GROUP             0 ****  ****    0  
@<TRIPOS>CRYSIN
   10.7940   11.7160   12.8600   73.5200   65.9400   82.4400     2     1
