@<TRIPOS>MOLECULE
SUTJUP
    75    80     3     0     0
SMALL
USER_CHARGES
****
Generated from the CSD

@<TRIPOS>ATOM
     1 Fe1     -0.3449   0.7524   4.2276   Fe        1 RES1   2.0000
     2 N1      -1.0012   2.2669   5.2941   N.ar      1 RES1   0.0000
     3 C1      -0.5381   3.6652   3.3334   C.3       1 RES1   0.0000
     4 N2       1.1627   1.8928   3.7278   N.ar      1 RES1   0.0000
     5 C2      -1.1207   3.4977   4.7444   C.ar      1 RES1   0.0000
     6 N3      -1.1305   1.4459   2.6386   N.ar      1 RES1   0.0000
     7 C3      -2.1026   4.3544   6.7633   C.ar      1 RES1   0.0000
     8 H1      -2.4889   5.0665   7.2594   H         1 RES1   0.0000
     9 N4      -0.0663  -0.8517   3.0391   N.ar      1 RES1   0.0000
    10 C4      -1.9442   3.1032   7.3372   C.ar      1 RES1   0.0000
    11 H2      -2.1968   2.9500   8.2402   H         1 RES1   0.0000
    12 C5      -1.4130   2.0833   6.5716   C.ar      1 RES1   0.0000
    13 H3      -1.3334   1.2185   6.9565   H         1 RES1   0.0000
    14 C6       1.9884   4.0424   3.0987   C.ar      1 RES1   0.0000
    15 H4       1.8188   4.9509   2.8770   H         1 RES1   0.0000
    16 C7       3.2885   3.5686   3.1322   C.ar      1 RES1   0.0000
    17 H5       4.0165   4.1474   2.9379   H         1 RES1   0.0000
    18 C8       3.5159   2.2414   3.4526   C.ar      1 RES1   0.0000
    19 H6       4.3989   1.8907   3.4722   H         1 RES1   0.0000
    20 C9       2.4313   1.4397   3.7425   C.ar      1 RES1   0.0000
    21 H7       2.5856   0.5284   3.9621   H         1 RES1   0.0000
    22 C10     -0.6344   5.1168   2.8665   C.3       1 RES1   0.0000
    23 H8      -0.2247   5.2025   1.9799   H         1 RES1   0.0000
    24 H9      -0.1631   5.6961   3.5010   H         1 RES1   0.0000
    25 H10     -1.5761   5.3832   2.8180   H         1 RES1   0.0000
    26 C11     -1.2536   2.7412   2.3504   C.ar      1 RES1   0.0000
    27 C12     -1.9026   3.1351   1.1559   C.ar      1 RES1   0.0000
    28 H11     -2.0186   4.0584   0.9629   H         1 RES1   0.0000
    29 C13     -2.3649   2.1847   0.2738   C.ar      1 RES1   0.0000
    30 H12     -2.8796   2.4475  -0.4805   H         1 RES1   0.0000
    31 C14     -2.0735   0.8273   0.4898   C.ar      1 RES1   0.0000
    32 C15     -2.3245  -0.2609  -0.4167   C.ar      1 RES1   0.0000
    33 H13     -2.8174  -0.1020  -1.2131   H         1 RES1   0.0000
    34 C16     -1.8696  -1.5075  -0.1541   C.ar      1 RES1   0.0000
    35 H14     -2.0724  -2.2114  -0.7596   H         1 RES1   0.0000
    36 C17     -1.0894  -1.7982   1.0180   C.ar      1 RES1   0.0000
    37 C18     -0.4937  -3.0392   1.3121   C.ar      1 RES1   0.0000
    38 H15     -0.6347  -3.7904   0.7479   H         1 RES1   0.0000
    39 C19      0.2971  -3.1419   2.4336   C.ar      1 RES1   0.0000
    40 H16      0.7078  -3.9717   2.6442   H         1 RES1   0.0000
    41 C20      0.5026  -2.0299   3.2701   C.ar      1 RES1   0.0000
    42 H17      1.0687  -2.1249   4.0273   H         1 RES1   0.0000
    43 C21     -0.8634  -0.7578   1.9308   C.ar      1 RES1   0.0000
    44 C22     -1.4163   0.5182   1.6881   C.ar      1 RES1   0.0000
    45 N5      -1.9328  -0.2552   4.7839   N.1       1 RES1   0.0000
    46 C23     -2.8006  -0.8987   5.1338   C.1       1 RES1   0.0000
    47 C24     -3.9049  -1.7399   5.5830   C.3       1 RES1   0.0000
    48 H18     -4.6801  -1.1776   5.7906   H         1 RES1   0.0000
    49 H19     -3.6342  -2.2324   6.3859   H         1 RES1   0.0000
    50 H20     -4.1413  -2.3743   4.8747   H         1 RES1   0.0000
    51 N6       0.6774  -0.0185   5.6908   N.1       1 RES1   0.0000
    52 C25      1.3872  -0.5081   6.4368   C.1       1 RES1   0.0000
    53 C26      2.3261  -1.1286   7.3585   C.3       1 RES1   0.0000
    54 H21      1.9397  -1.1438   8.2585   H         1 RES1   0.0000
    55 H22      3.1603  -0.6138   7.3696   H         1 RES1   0.0000
    56 H23      2.5126  -2.0455   7.0668   H         1 RES1   0.0000
    57 C27      0.9329   3.1880   3.3885   C.ar      1 RES1   0.0000
    58 C28     -1.6879   4.5541   5.4522   C.ar      1 RES1   0.0000
    59 H24     -1.7912   5.4045   5.0424   H         1 RES1   0.0000
    60 S1       4.9237  -1.5544   3.5974   S.o2      2 RES2   0.0000
    61 O1       3.5903  -1.6352   3.0438   O.2       2 RES2   0.0000
    62 O2       5.1344  -0.4573   4.5163   O.3       2 RES2  -1.0000
    63 O3       5.4907  -2.8143   4.0059   O.2       2 RES2   0.0000
    64 C29      5.9414  -1.0881   2.1517   C.3       2 RES2   0.0000
    65 F1       5.8153  -1.9764   1.1675   F         2 RES2   0.0000
    66 F2       7.2384  -1.0118   2.4727   F         2 RES2   0.0000
    67 F3       5.5823   0.1020   1.6720   F         2 RES2   0.0000
    68 S2      -3.2168  -0.1256   9.5060   S.o2      3 RES3   0.0000
    69 O4      -2.7125   1.1978   9.7677   O.3       3 RES3  -1.0000
    70 O5      -3.6907  -0.3301   8.1668   O.2       3 RES3   0.0000
    71 O6      -4.0556  -0.6701  10.5420   O.2       3 RES3   0.0000
    72 C30     -1.7438  -1.1788   9.5669   C.3       3 RES3   0.0000
    73 F4      -1.1366  -1.0914  10.7503   F         3 RES3   0.0000
    74 F5      -0.8573  -0.8462   8.6290   F         3 RES3   0.0000
    75 F6      -2.0760  -2.4536   9.3692   F         3 RES3   0.0000
@<TRIPOS>BOND
     1     1     2    1
     2     2     5   ar
     3     3     5    1
     4     4     1    1
     5     5    58   ar
     6     6     1    1
     7     7     8    1
     8     9     1    1
     9    10     7   ar
    10    11    10    1
    11    12     2   ar
    12    13    12    1
    13    14    15    1
    14    16    14   ar
    15    17    16    1
    16    18    16   ar
    17    19    18    1
    18    20     4   ar
    19    21    20    1
    20    22     3    1
    21    23    22    1
    22    24    22    1
    23    25    22    1
    24    26     3    1
    25    27    26   ar
    26    28    27    1
    27    29    27   ar
    28    30    29    1
    29    31    29   ar
    30    32    31   ar
    31    33    32    1
    32    34    32   ar
    33    35    34    1
    34    36    34   ar
    35    37    36   ar
    36    38    37    1
    37    39    37   ar
    38    40    39    1
    39    41     9   ar
    40    42    41    1
    41    43     9   ar
    42    44     6   ar
    43    45     1    1
    44    46    45    3
    45    47    46    1
    46    48    47    1
    47    49    47    1
    48    50    47    1
    49    51     1    1
    50    52    51    3
    51    53    52    1
    52    54    53    1
    53    55    53    1
    54    56    53    1
    55    57     3    1
    56    58     7   ar
    57    59    58    1
    58     4    57   ar
    59     6    26   ar
    60    10    12   ar
    61    14    57   ar
    62    18    20   ar
    63    31    44   ar
    64    36    43   ar
    65    39    41   ar
    66    43    44   ar
    67    60    61    2
    68    62    60    1
    69    63    60    2
    70    64    60    1
    71    65    64    1
    72    66    64    1
    73    67    64    1
    74    68    69    1
    75    70    68    2
    76    71    68    2
    77    72    68    1
    78    73    72    1
    79    74    72    1
    80    75    72    1
@<TRIPOS>SUBSTRUCTURE
     1 RES1        1 GROUP             0 ****  ****    0  
     2 RES2       60 GROUP             0 ****  ****    0  
     3 RES3       68 GROUP             0 ****  ****    0  
@<TRIPOS>CRYSIN
   11.9820   13.2060   13.3120  116.4600  116.3200   93.3700     2     1
