@<TRIPOS>MOLECULE
SUVZIV
   119   127     3     0     0
SMALL
USER_CHARGES
****
Generated from the CSD

@<TRIPOS>ATOM
     1 Fe1      2.8860  10.7252   6.2686   Fe        1 RES1   2.0000
     2 N1       3.1016  11.7842   8.7244   N.3       1 RES1   0.0000
     3 N2       4.7379  11.8278   6.4801   N.2       1 RES1   0.0000
     4 N3       4.4172   9.5988   5.0802   N.2       1 RES1   0.0000
     5 N4       4.4609   8.5558   4.2743   N.2       1 RES1   0.0000
     6 N5       5.6943   8.5539   3.7140   N.pl3     1 RES1   0.0000
     7 N6       2.8299   9.1826   7.7539   N.2       1 RES1   0.0000
     8 N7       1.4954   9.1767   5.5010   N.2       1 RES1   0.0000
     9 N8       0.8498   8.9861   4.3860   N.2       1 RES1   0.0000
    10 N9       0.3736   7.7115   4.4384   N.pl3     1 RES1   0.0000
    11 N10      1.2081  12.0129   6.6912   N.2       1 RES1   0.0000
    12 N11      2.3092  11.6319   4.2942   N.2       1 RES1   0.0000
    13 N12      2.5973  11.3951   3.0464   N.2       1 RES1   0.0000
    14 N13      1.5595  11.8696   2.3174   N.pl3     1 RES1   0.0000
    15 C1       4.4420  12.3723   8.7966   C.3       1 RES1   0.0000
    16 H1       5.0886  11.6822   9.0919   H         1 RES1   0.0000
    17 H2       4.4467  13.1018   9.4654   H         1 RES1   0.0000
    18 C2       4.8721  12.9196   7.4491   C.3       1 RES1   0.0000
    19 H3       4.2961  13.6827   7.1893   H         1 RES1   0.0000
    20 H4       5.8102  13.2327   7.4883   H         1 RES1   0.0000
    21 C3       5.7725  11.4248   5.8631   C.2       1 RES1   0.0000
    22 H5       6.6067  11.8721   5.9402   H         1 RES1   0.0000
    23 C4       5.6148  10.2485   5.0375   C.2       1 RES1   0.0000
    24 C5       6.4442   9.5883   4.1729   C.2       1 RES1   0.0000
    25 H6       7.3409   9.8051   3.9454   H         1 RES1   0.0000
    26 C6       6.0738   7.4958   2.8251   C.ar      1 RES1   0.0000
    27 C7       5.0903   6.6177   2.3663   C.ar      1 RES1   0.0000
    28 H7       4.1811   6.7332   2.6143   H         1 RES1   0.0000
    29 C8       5.4747   5.5735   1.5402   C.ar      1 RES1   0.0000
    30 H8       4.8068   4.9817   1.2147   H         1 RES1   0.0000
    31 C9       6.8031   5.3571   1.1662   C.ar      1 RES1   0.0000
    32 C10      7.7450   6.2624   1.6457   C.ar      1 RES1   0.0000
    33 H9       8.6565   6.1467   1.4025   H         1 RES1   0.0000
    34 C11      7.4006   7.3297   2.4683   C.ar      1 RES1   0.0000
    35 H10      8.0648   7.9335   2.7800   H         1 RES1   0.0000
    36 C12      7.1847   4.1999   0.2883   C.3       1 RES1   0.0000
    37 H11      8.0672   4.3636  -0.1040   H         1 RES1   0.0000
    38 H12      6.5222   4.1003  -0.4274   H         1 RES1   0.0000
    39 H13      7.2121   3.3789   0.8235   H         1 RES1   0.0000
    40 C13      2.9580  10.6583   9.6604   C.3       1 RES1   0.0000
    41 H14      2.0018  10.5352   9.8873   H         1 RES1   0.0000
    42 H15      3.4499  10.8557  10.4962   H         1 RES1   0.0000
    43 C14      3.5032   9.3800   9.0347   C.3       1 RES1   0.0000
    44 H16      4.4809   9.4581   8.8966   H         1 RES1   0.0000
    45 H17      3.3328   8.6082   9.6313   H         1 RES1   0.0000
    46 C15      2.1588   8.1221   7.5369   C.2       1 RES1   0.0000
    47 H18      2.1220   7.4149   8.1702   H         1 RES1   0.0000
    48 C16      1.4536   8.0513   6.2736   C.2       1 RES1   0.0000
    49 C17      0.7411   7.0983   5.5908   C.2       1 RES1   0.0000
    50 H19      0.5495   6.2083   5.8636   H         1 RES1   0.0000
    51 C18     -0.3050   7.1854   3.2941   C.ar      1 RES1   0.0000
    52 C19     -1.1319   8.0131   2.5520   C.ar      1 RES1   0.0000
    53 H20     -1.3030   8.9036   2.8367   H         1 RES1   0.0000
    54 C20     -1.7025   7.5258   1.3902   C.ar      1 RES1   0.0000
    55 H21     -2.2774   8.0873   0.8835   H         1 RES1   0.0000
    56 C21     -1.4537   6.2256   0.9460   C.ar      1 RES1   0.0000
    57 C22     -0.6462   5.4115   1.7323   C.ar      1 RES1   0.0000
    58 H22     -0.4836   4.5160   1.4587   H         1 RES1   0.0000
    59 C23     -0.0746   5.8730   2.9032   C.ar      1 RES1   0.0000
    60 H23      0.4683   5.3017   3.4326   H         1 RES1   0.0000
    61 C24     -2.0158   5.7383  -0.3632   C.3       1 RES1   0.0000
    62 H24     -2.7408   6.3321  -0.6487   H         1 RES1   0.0000
    63 H25     -2.3634   4.8286  -0.2510   H         1 RES1   0.0000
    64 H26     -1.3085   5.7359  -1.0416   H         1 RES1   0.0000
    65 C25      2.0216  12.7630   8.8382   C.3       1 RES1   0.0000
    66 H27      2.3296  13.6370   8.4900   H         1 RES1   0.0000
    67 H28      1.7817  12.8803   9.7917   H         1 RES1   0.0000
    68 C26      0.8012  12.3151   8.0644   C.3       1 RES1   0.0000
    69 H29      0.4098  11.5098   8.4864   H         1 RES1   0.0000
    70 H30      0.1180  13.0315   8.0654   H         1 RES1   0.0000
    71 C27      0.5793  12.5438   5.7145   C.2       1 RES1   0.0000
    72 H31     -0.1802  13.0987   5.8493   H         1 RES1   0.0000
    73 C28      1.0886  12.2525   4.3863   C.2       1 RES1   0.0000
    74 C29      0.6047  12.4104   3.1184   C.2       1 RES1   0.0000
    75 H32     -0.2166  12.8101   2.8557   H         1 RES1   0.0000
    76 C30      1.5839  11.7760   0.8875   C.ar      1 RES1   0.0000
    77 C31      2.7863  11.5364   0.2410   C.ar      1 RES1   0.0000
    78 H33      3.5848  11.4151   0.7412   H         1 RES1   0.0000
    79 C32      2.8100  11.4752  -1.1475   C.ar      1 RES1   0.0000
    80 H34      3.6318  11.3026  -1.5925   H         1 RES1   0.0000
    81 C33      1.6394  11.6644  -1.9057   C.ar      1 RES1   0.0000
    82 C34      0.4591  11.8931  -1.2197   C.ar      1 RES1   0.0000
    83 H35     -0.3430  12.0200  -1.7133   H         1 RES1   0.0000
    84 C35      0.4101  11.9408   0.1705   C.ar      1 RES1   0.0000
    85 H36     -0.4148  12.0839   0.6202   H         1 RES1   0.0000
    86 C36      1.6924  11.6195  -3.4099   C.3       1 RES1   0.0000
    87 H37      1.8357  10.6966  -3.7045   H         1 RES1   0.0000
    88 H38      2.4285  12.1829  -3.7280   H         1 RES1   0.0000
    89 H39      0.8457  11.9518  -3.7761   H         1 RES1   0.0000
    90 S1       9.4769  11.5853   1.6662   S.o2      2 RES2   0.0000
    91 S2       7.6798  13.4184   2.7417   S.o2      2 RES2   0.0000
    92 F1      10.5013  10.3487  -0.3682   F         2 RES2   0.0000
    93 F2      10.3300  12.4714  -0.6603   F         2 RES2   0.0000
    94 F3       8.5800  11.2157  -0.7781   F         2 RES2   0.0000
    95 F4       5.1301  13.2681   3.1672   F         2 RES2   0.0000
    96 F5       5.9298  11.5762   2.0999   F         2 RES2   0.0000
    97 F6       5.6471  13.4328   1.0823   F         2 RES2   0.0000
    98 O1      10.7871  11.7978   2.1984   O.2       2 RES2   0.0000
    99 O2       8.7914  10.3937   2.0677   O.2       2 RES2   0.0000
   100 O3       7.8793  12.7971   4.0170   O.2       2 RES2   0.0000
   101 O4       7.5855  14.8494   2.6739   O.2       2 RES2   0.0000
   102 N14      8.6037  12.8910   1.5975   N.2       2 RES2  -1.0000
   103 C37      9.7240  11.4125  -0.1366   C.3       2 RES2   0.0000
   104 C38      6.0064  12.8924   2.2367   C.3       2 RES2   0.0000
   105 S3      10.5913   9.6291   7.6977   S.o2      3 RES3   0.0000
   106 S4       7.9308   9.8520   8.5267   S.o2      3 RES3   0.0000
   107 F7      11.4846  10.5127   5.4095   F         3 RES3   0.0000
   108 F8       9.3910  10.8816   5.7385   F         3 RES3   0.0000
   109 F9      10.0767   8.9130   5.2267   F         3 RES3   0.0000
   110 F10      6.7164   9.9872  10.8129   F         3 RES3   0.0000
   111 F11      8.8609   9.8401  10.9705   F         3 RES3   0.0000
   112 F12      7.6913   8.1110  10.4722   F         3 RES3   0.0000
   113 O5      10.9233  10.8775   8.2963   O.2       3 RES3   0.0000
   114 O6      11.5651   8.5822   7.7120   O.2       3 RES3   0.0000
   115 O7       8.0490  11.2791   8.5112   O.2       3 RES3   0.0000
   116 O8       6.7641   9.2738   7.9436   O.2       3 RES3   0.0000
   117 N15      9.1921   9.0165   8.0860   N.2       3 RES3  -1.0000
   118 C39     10.3753  10.0171   5.9201   C.3       3 RES3   0.0000
   119 C40      7.7909   9.4195  10.2982   C.3       3 RES3   0.0000
@<TRIPOS>BOND
     1     1     3    1
     2     2    15    1
     3     3    18    1
     4     4     1    1
     5     5     4    2
     6     6     5    1
     7     7     1    1
     8     8     1    1
     9     9     8    2
    10    10     9    1
    11    11     1    1
    12    12     1    1
    13    13    12    2
    14    14    13    1
    15    15    16    1
    16    17    15    1
    17    18    15    1
    18    19    18    1
    19    20    18    1
    20    21     3    2
    21    22    21    1
    22    23     4    1
    23    24     6    1
    24    25    24    1
    25    26     6    1
    26    27    26   ar
    27    28    27    1
    28    29    27   ar
    29    30    29    1
    30    31    29   ar
    31    32    31   ar
    32    33    32    1
    33    34    26   ar
    34    35    34    1
    35    36    31    1
    36    37    36    1
    37    38    36    1
    38    39    36    1
    39    40     2    1
    40    41    40    1
    41    42    40    1
    42    43     7    1
    43    44    43    1
    44    45    43    1
    45    46     7    2
    46    47    46    1
    47    48     8    1
    48    49    10    1
    49    50    49    1
    50    51    10    1
    51    52    51   ar
    52    53    52    1
    53    54    52   ar
    54    55    54    1
    55    56    54   ar
    56    57    56   ar
    57    58    57    1
    58    59    51   ar
    59    60    59    1
    60    61    56    1
    61    62    61    1
    62    63    61    1
    63    64    61    1
    64    65     2    1
    65    66    65    1
    66    67    65    1
    67    68    11    1
    68    69    68    1
    69    70    68    1
    70    71    11    2
    71    72    71    1
    72    73    12    1
    73    74    14    1
    74    75    74    1
    75    76    14    1
    76    77    76   ar
    77    78    77    1
    78    79    77   ar
    79    80    79    1
    80    81    79   ar
    81    82    81   ar
    82    83    82    1
    83    84    76   ar
    84    85    84    1
    85    86    81    1
    86    87    86    1
    87    88    86    1
    88    89    86    1
    89    21    23    1
    90    23    24    2
    91    32    34   ar
    92    40    43    1
    93    46    48    1
    94    48    49    2
    95    57    59   ar
    96    65    68    1
    97    71    73    1
    98    73    74    2
    99    82    84   ar
   100    90    98    2
   101    91   100    2
   102    92   103    1
   103    93   103    1
   104    94   103    1
   105    95   104    1
   106    96   104    1
   107    97   104    1
   108    99    90    2
   109   101    91    2
   110   102    90    1
   111   103    90    1
   112   104    91    1
   113    91   102    1
   114   105   113    2
   115   106   115    2
   116   107   118    1
   117   108   118    1
   118   109   118    1
   119   110   119    1
   120   111   119    1
   121   112   119    1
   122   114   105    2
   123   116   106    2
   124   117   105    1
   125   118   105    1
   126   119   106    1
   127   106   117    1
@<TRIPOS>SUBSTRUCTURE
     1 RES1        1 GROUP             0 ****  ****    0  
     2 RES2       90 GROUP             0 ****  ****    0  
     3 RES3      105 GROUP             0 ****  ****    0  
@<TRIPOS>CRYSIN
   13.1228   13.6139   29.6768   90.0000   99.8180   90.0000    14     1
