@<TRIPOS>MOLECULE
SUXTIO
   149   164     3     0     0
SMALL
NO_CHARGES
****
Generated from the CSD

@<TRIPOS>ATOM
     1 Fe1     -2.1274  10.3631   6.7457   Fe        1 RES1   0.0000
     2 S1      -0.8281   9.4214   4.9489   S.3       1 RES1   0.0000
     3 S2      -3.4485  11.9702   5.5876   S.3       1 RES1   0.0000
     4 S3       3.2894   7.5160   9.1540   S.2       1 RES1   0.0000
     5 B1       0.3875   8.9504   8.0131   B         1 RES1   0.0000
     6 N1       1.2312   9.4555   6.8121   N.ar      1 RES1   0.0000
     7 N2       1.7987  10.1149   4.8038   N.ar      1 RES1   0.0000
     8 N3       0.4990   9.9395   9.2112   N.ar      1 RES1   0.0000
     9 N4       0.6442   7.4971   8.4405   N.am      1 RES1   0.0000
    10 N5      -4.1296  11.5693   2.9700   N.ar      1 RES1   0.0000
    11 N6       1.3776   5.5676   9.1996   N.am      1 RES1   0.0000
    12 C1       0.7729   9.6331   5.5504   C.ar      1 RES1   0.0000
    13 C2       2.5512   9.8696   6.8410   C.ar      1 RES1   0.0000
    14 H1       3.1078   9.8651   7.5984   H         1 RES1   0.0000
    15 C3       2.9091  10.2759   5.6222   C.ar      1 RES1   0.0000
    16 H2       3.7519  10.6068   5.3669   H         1 RES1   0.0000
    17 C4      -4.1033  11.1197   4.2533   C.ar      1 RES1   0.0000
    18 C5       0.9618   9.6653  10.4982   C.ar      1 RES1   0.0000
    19 H3       1.4596   8.9115  10.7581   H         1 RES1   0.0000
    20 C6      -4.8281  10.6623   2.1972   C.ar      1 RES1   0.0000
    21 H4      -4.9980  10.7333   1.2763   H         1 RES1   0.0000
    22 C7       1.7536   6.8532   8.9181   C.2       1 RES1   0.0000
    23 C8      -0.3962   6.5701   8.4044   C.2       1 RES1   0.0000
    24 H5      -1.2720   6.7455   8.1084   H         1 RES1   0.0000
    25 C9       0.0431   5.3977   8.8563   C.2       1 RES1   0.0000
    26 H6      -0.4558   4.6040   8.9286   H         1 RES1   0.0000
    27 C10      1.7747  10.4313   3.4044   C.ar      1 RES1   0.0000
    28 C11      2.2614  11.6304   2.9743   C.ar      1 RES1   0.0000
    29 H7       2.5836  12.2565   3.5968   H         1 RES1   0.0000
    30 C12      2.2798  11.9257   1.6176   C.ar      1 RES1   0.0000
    31 H8       2.6319  12.7450   1.3195   H         1 RES1   0.0000
    32 C13      1.7847  11.0242   0.7121   C.ar      1 RES1   0.0000
    33 H9       1.7756  11.2340  -0.2051   H         1 RES1   0.0000
    34 C14      1.3015   9.8152   1.1468   C.ar      1 RES1   0.0000
    35 H10      0.9609   9.1968   0.5262   H         1 RES1   0.0000
    36 C15      1.3135   9.5032   2.4911   C.ar      1 RES1   0.0000
    37 H11      1.0093   8.6628   2.7846   H         1 RES1   0.0000
    38 C16     -3.4352  12.7150   2.4722   C.ar      1 RES1   0.0000
    39 C17     -4.1132  13.6853   1.7531   C.ar      1 RES1   0.0000
    40 H12     -5.0395  13.6109   1.6055   H         1 RES1   0.0000
    41 C18     -3.4107  14.7611   1.2569   C.ar      1 RES1   0.0000
    42 H13     -3.8557  15.4272   0.7663   H         1 RES1   0.0000
    43 C19     -2.0611  14.8610   1.4806   C.ar      1 RES1   0.0000
    44 H14     -1.5931  15.6082   1.1576   H         1 RES1   0.0000
    45 C20     -1.3829  13.8907   2.1662   C.ar      1 RES1   0.0000
    46 H15     -0.4533  13.9606   2.2935   H         1 RES1   0.0000
    47 C21     -2.0697  12.8183   2.6662   C.ar      1 RES1   0.0000
    48 H16     -1.6119  12.1488   3.1435   H         1 RES1   0.0000
    49 C22      2.1895   4.5218   9.7395   C.ar      1 RES1   0.0000
    50 C23      2.9664   4.7361  10.8631   C.ar      1 RES1   0.0000
    51 H17      2.9976   5.5854  11.2654   H         1 RES1   0.0000
    52 C24      3.6947   3.6881  11.3873   C.ar      1 RES1   0.0000
    53 H18      4.2270   3.8257  12.1504   H         1 RES1   0.0000
    54 C25      3.6501   2.4502  10.8058   C.ar      1 RES1   0.0000
    55 H19      4.1602   1.7463  11.1601   H         1 RES1   0.0000
    56 C26      2.8589   2.2359   9.7031   C.ar      1 RES1   0.0000
    57 H20      2.8107   1.3777   9.3226   H         1 RES1   0.0000
    58 C27      2.1342   3.2740   9.1510   C.ar      1 RES1   0.0000
    59 H21      1.6088   3.1318   8.3836   H         1 RES1   0.0000
    60 H38     -3.6027   8.9259   5.8256   H         1 RES1   0.0000
    61 C4F     -0.1515  11.1197   9.2381   C.ar      1 RES1   0.0000
    62 S2F     -0.8064  11.9702   7.9038   S.3       1 RES1   0.0000
    63 S1F     -3.4268   9.4214   8.5425   S.3       1 RES1   0.0000
    64 C1F     -5.0278   9.6331   7.9411   C.ar      1 RES1   0.0000
    65 N1F     -5.4861   9.4555   6.6794   N.ar      1 RES1   0.0000
    66 B1F     -4.6423   8.9504   5.4783   B         1 RES1   0.0000
    67 N3F     -4.7539   9.9395   4.2803   N.ar      1 RES1   0.0000
    68 N4F     -4.8991   7.4971   5.0509   N.am      1 RES1   0.0000
    69 C7F     -6.0084   6.8532   4.5733   C.2       1 RES1   0.0000
    70 S3F     -7.5443   7.5160   4.3375   S.2       1 RES1   0.0000
    71 N6F     -5.6325   5.5676   4.2919   N.am      1 RES1   0.0000
    72 C9F     -4.2980   5.3977   4.6351   C.2       1 RES1   0.0000
    73 C8F     -3.8587   6.5701   5.0871   C.2       1 RES1   0.0000
    74 H5F     -2.9829   6.7455   5.3831   H         1 RES1   0.0000
    75 H6F     -3.7990   4.6040   4.5628   H         1 RES1   0.0000
    76 C22F    -6.4444   4.5218   3.7520   C.ar      1 RES1   0.0000
    77 C23F    -7.2213   4.7361   2.6284   C.ar      1 RES1   0.0000
    78 H17F    -7.2525   5.5854   2.2261   H         1 RES1   0.0000
    79 C24F    -7.9496   3.6881   2.1041   C.ar      1 RES1   0.0000
    80 H18F    -8.4818   3.8257   1.3411   H         1 RES1   0.0000
    81 C25F    -7.9050   2.4502   2.6856   C.ar      1 RES1   0.0000
    82 H19F    -8.4151   1.7463   2.3313   H         1 RES1   0.0000
    83 C26F    -7.1138   2.2359   3.7884   C.ar      1 RES1   0.0000
    84 H20F    -7.0656   1.3777   4.1689   H         1 RES1   0.0000
    85 C27F    -6.3891   3.2740   4.3405   C.ar      1 RES1   0.0000
    86 H21F    -5.8636   3.1318   5.1079   H         1 RES1   0.0000
    87 H38F    -0.6521   8.9259   7.6658   H         1 RES1   0.0000
    88 C5F     -5.2167   9.6653   2.9932   C.ar      1 RES1   0.0000
    89 H3F     -5.7145   8.9115   2.7334   H         1 RES1   0.0000
    90 C2F     -6.8060   9.8696   6.6505   C.ar      1 RES1   0.0000
    91 H1F     -7.3627   9.8651   5.8931   H         1 RES1   0.0000
    92 C3F     -7.1640  10.2759   7.8693   C.ar      1 RES1   0.0000
    93 N2F     -6.0535  10.1149   8.6877   N.ar      1 RES1   0.0000
    94 C10F    -6.0296  10.4313  10.0870   C.ar      1 RES1   0.0000
    95 C11F    -6.5163  11.6304  10.5171   C.ar      1 RES1   0.0000
    96 H7F     -6.8384  12.2565   9.8946   H         1 RES1   0.0000
    97 C12F    -6.5347  11.9257  11.8738   C.ar      1 RES1   0.0000
    98 H8F     -6.8868  12.7450  12.1720   H         1 RES1   0.0000
    99 C13F    -6.0396  11.0242  12.7794   C.ar      1 RES1   0.0000
   100 H9F     -6.0305  11.2340  13.6965   H         1 RES1   0.0000
   101 C14F    -5.5564   9.8152  12.3447   C.ar      1 RES1   0.0000
   102 H10F    -5.2157   9.1968  12.9653   H         1 RES1   0.0000
   103 C15F    -5.5684   9.5032  11.0004   C.ar      1 RES1   0.0000
   104 H11F    -5.2642   8.6628  10.7068   H         1 RES1   0.0000
   105 H2F     -8.0067  10.6068   8.1246   H         1 RES1   0.0000
   106 N5F     -0.1253  11.5693  10.5214   N.ar      1 RES1   0.0000
   107 C6F      0.5732  10.6623  11.2942   C.ar      1 RES1   0.0000
   108 H4F      0.7431  10.7333  12.2152   H         1 RES1   0.0000
   109 C16F    -0.8197  12.7150  11.0193   C.ar      1 RES1   0.0000
   110 C17F    -0.1417  13.6853  11.7384   C.ar      1 RES1   0.0000
   111 H12F     0.7846  13.6109  11.8860   H         1 RES1   0.0000
   112 C18F    -0.8442  14.7611  12.2346   C.ar      1 RES1   0.0000
   113 H13F    -0.3991  15.4272  12.7251   H         1 RES1   0.0000
   114 C19F    -2.1938  14.8610  12.0109   C.ar      1 RES1   0.0000
   115 H14F    -2.6618  15.6082  12.3339   H         1 RES1   0.0000
   116 C20F    -2.8720  13.8907  11.3253   C.ar      1 RES1   0.0000
   117 H15F    -3.8016  13.9606  11.1979   H         1 RES1   0.0000
   118 C21F    -2.1852  12.8183  10.8253   C.ar      1 RES1   0.0000
   119 H16F    -2.6430  12.1488  10.3479   H         1 RES1   0.0000
   120 C28      2.5874   3.8801  -0.6139   C.ar      2 RES2   0.0000
   121 C29      3.8952   3.8401  -0.3400   C.ar      2 RES2   0.0000
   122 H22      4.4539   3.6026  -1.0577   H         2 RES2   0.0000
   123 C30      4.5150   4.0933   0.8149   C.ar      2 RES2   0.0000
   124 H23      5.4459   4.0455   0.9255   H         2 RES2   0.0000
   125 C31      3.6205   4.4396   1.8483   C.ar      2 RES2   0.0000
   126 H24      3.9618   4.6006   2.7091   H         2 RES2   0.0000
   127 C32      2.3014   4.5451   1.6514   C.ar      2 RES2   0.0000
   128 H25      1.7487   4.8216   2.3583   H         2 RES2   0.0000
   129 C33      1.7637   4.2709   0.4830   C.ar      2 RES2   0.0000
   130 H26      0.8337   4.3331   0.3697   H         2 RES2   0.0000
   131 C34      1.9493   3.5970  -1.8672   C.3       2 RES2   0.0000
   132 H27      2.3982   4.0822  -2.5742   H         2 RES2   0.0000
   133 H28      1.0201   3.8712  -1.8267   H         2 RES2   0.0000
   134 H29      1.9977   2.6445  -2.0453   H         2 RES2   0.0000
   135 C35     -5.4930   3.1330   7.8925   C.ar      3 RES3   0.0000
   136 H30     -5.7105   2.2404   7.6928   H         3 RES3   0.0000
   137 C36     -4.1426   3.3650   8.1467   C.ar      3 RES3   0.0000
   138 H31     -3.4786   2.7000   8.1569   H         3 RES3   0.0000
   139 C37     -3.9310   4.6095   8.3647   C.ar      3 RES3   0.0000
   140 H32     -3.0352   4.8371   8.5374   H         3 RES3   0.0000
   141 C38     -4.8162   5.6675   8.3882   C.ar      3 RES3   0.0000
   142 H33     -4.5401   6.5501   8.5590   H         3 RES3   0.0000
   143 C39     -6.1354   5.3400   8.1429   C.ar      3 RES3   0.0000
   144 C40     -6.5378   3.9811   7.8876   C.ar      3 RES3   0.0000
   145 H34     -7.4272   3.7180   7.7360   H         3 RES3   0.0000
   146 C41     -7.1196   6.3025   8.1273   C.3       3 RES3   0.0000
   147 H35     -6.9222   6.9775   8.7937   H         3 RES3   0.0000
   148 H36     -7.9762   5.8918   8.3242   H         3 RES3   0.0000
   149 H37     -7.1546   6.7144   7.2503   H         3 RES3   0.0000
@<TRIPOS>BOND
     1     1     2    1
     2     2    12    1
     3     3     1    1
     4     4    22    2
     5     5     6    1
     6     6    12   ar
     7     7    12   ar
     8     8     5    1
     9     9     5    1
    10    10    17   ar
    11    11    22   am
    12    13     6   ar
    13    14    13    1
    14    15     7   ar
    15    16    15    1
    16    17     3    1
    17    18     8   ar
    18    19    18    1
    19    20    10   ar
    20    21    20    1
    21    22     9   am
    22    23     9    1
    23    24    23    1
    24    25    11    1
    25    26    25    1
    26    27     7    1
    27    28    27   ar
    28    29    28    1
    29    30    28   ar
    30    31    30    1
    31    32    30   ar
    32    33    32    1
    33    34    32   ar
    34    35    34    1
    35    36    27   ar
    36    37    36    1
    37    38    10    1
    38    39    38   ar
    39    40    39    1
    40    41    39   ar
    41    42    41    1
    42    43    41   ar
    43    44    43    1
    44    45    43   ar
    45    46    45    1
    46    47    38   ar
    47    48    47    1
    48    49    11    1
    49    50    49   ar
    50    51    50    1
    51    52    50   ar
    52    53    52    1
    53    54    52   ar
    54    55    54    1
    55    56    54   ar
    56    57    56    1
    57    58    49   ar
    58    59    58    1
    59    60     1    1
    60    61     8   ar
    61    62     1    1
    62    63     1    1
    63    64    63    1
    64    65    64   ar
    65    66    60    1
    66    67    17   ar
    67    68    66    1
    68    69    68   am
    69    70    69    2
    70    71    69   am
    71    72    71    1
    72    73    68    1
    73    74    73    1
    74    75    72    1
    75    76    71    1
    76    77    76   ar
    77    78    77    1
    78    79    77   ar
    79    80    79    1
    80    81    79   ar
    81    82    81    1
    82    83    81   ar
    83    84    83    1
    84    85    76   ar
    85    86    85    1
    86    87     1    1
    87    88    20   ar
    88    89    88    1
    89    90    65   ar
    90    91    90    1
    91    92    90   ar
    92    93    64   ar
    93    94    93    1
    94    95    94   ar
    95    96    95    1
    96    97    95   ar
    97    98    97    1
    98    99    97   ar
    99   100    99    1
   100   101    99   ar
   101   102   101    1
   102   103    94   ar
   103   104   103    1
   104   105    92    1
   105   106    61   ar
   106   107    18   ar
   107   108   107    1
   108   109   106    1
   109   110   109   ar
   110   111   110    1
   111   112   110   ar
   112   113   112    1
   113   114   112   ar
   114   115   114    1
   115   116   114   ar
   116   117   116    1
   117   118   109   ar
   118   119   118    1
   119     5    87    1
   120    13    15   ar
   121    23    25    2
   122    34    36   ar
   123    45    47   ar
   124    56    58   ar
   125    61    62    1
   126    65    66    1
   127    66    67    1
   128    67    88   ar
   129    72    73    2
   130    83    85   ar
   131    92    93   ar
   132   101   103   ar
   133   106   107   ar
   134   116   118   ar
   135   120   121   ar
   136   121   122    1
   137   123   121   ar
   138   124   123    1
   139   125   123   ar
   140   126   125    1
   141   127   125   ar
   142   128   127    1
   143   129   120   ar
   144   130   129    1
   145   131   120    1
   146   132   131    1
   147   133   131    1
   148   134   131    1
   149   127   129   ar
   150   135   136    1
   151   137   135   ar
   152   138   137    1
   153   139   137   ar
   154   140   139    1
   155   141   139   ar
   156   142   141    1
   157   143   141   ar
   158   144   135   ar
   159   145   144    1
   160   146   143    1
   161   147   146    1
   162   148   146    1
   163   149   146    1
   164   143   144   ar
@<TRIPOS>SUBSTRUCTURE
     1 RES1        1 GROUP             0 ****  ****    0  
     2 RES2      120 GROUP             0 ****  ****    0  
     3 RES3      135 GROUP             0 ****  ****    0  
@<TRIPOS>CRYSIN
   25.9630   11.1019   28.2930   90.0000  107.5040   90.0000    15     1
