@<TRIPOS>MOLECULE
TABCFE
    49    55     4     0     0
SMALL
USER_CHARGES
****
Generated from the CSD

@<TRIPOS>ATOM
     1 Cl1      2.0240   0.5060   5.7576   Cl        1 RES1   0.0000
     2 O1       2.8596   0.2821   4.6777   O.2       1 RES1   0.0000
     3 O3       0.8579  -0.2821   5.6727   O.2       1 RES1   0.0000
     4 O5       1.6984   1.8435   5.8561   O.2       1 RES1   0.0000
     5 O7       2.7520   0.1542   6.9325   O.3       1 RES1  -1.0000
     6 Cl2     -7.5336   2.1348   8.1873   Cl        2 RES2   0.0000
     7 O2      -8.1477   2.2387   9.4030   O.2       2 RES2   0.0000
     8 O4      -6.5916   1.1411   8.0497   O.2       2 RES2   0.0000
     9 O6      -7.1399   3.3409   7.7662   O.2       2 RES2   0.0000
    10 O8      -8.6107   1.7133   7.4945   O.3       2 RES2  -1.0000
    11 C1       6.8757   3.8401   5.3501   C.ar      3 RES3   0.0000
    12 C2       8.0845   3.3638   4.8288   C.2       3 RES3   0.0000
    13 C3       9.3844   2.1519   3.3635   C.ar      3 RES3   0.0000
    14 C4       9.3902   1.7076   2.0629   C.ar      3 RES3   0.0000
    15 C5       7.3263   2.1782   0.1732   C.3       3 RES3   0.0000
    16 C6       6.9748   3.5260   0.7573   C.3       3 RES3   0.0000
    17 C7       4.3499   2.7870   1.5740   C.ar      3 RES3   0.0000
    18 C8       4.9081  -0.7047   2.0290   C.2       3 RES3   0.0000
    19 C9       4.0077   1.4289   1.6979   C.ar      3 RES3   0.0000
    20 C10      5.8048  -2.9583   1.7251   C.ar      3 RES3   0.0000
    21 C11      6.6576  -4.0000   1.9458   C.ar      3 RES3   0.0000
    22 C12      7.7636  -3.7933   2.7642   C.ar      3 RES3   0.0000
    23 C13      7.8843  -2.5597   3.4688   C.ar      3 RES3   0.0000
    24 C14      4.4290   3.7624   5.8578   C.ar      3 RES3   0.0000
    25 C15      4.5621   5.0440   6.3569   C.ar      3 RES3   0.0000
    26 C16      5.7669   5.7933   6.4096   C.ar      3 RES3   0.0000
    27 C17      6.9171   5.1650   5.9528   C.ar      3 RES3   0.0000
    28 C18     10.6792   2.5163   3.8746   C.ar      3 RES3   0.0000
    29 C19      5.8887  -1.7110   2.4297   C.ar      3 RES3   0.0000
    30 C20     11.7967   2.3609   3.0885   C.ar      3 RES3   0.0000
    31 C21     11.7674   2.0160   1.8032   C.ar      3 RES3   0.0000
    32 C22     10.5451   1.6082   1.2632   C.ar      3 RES3   0.0000
    33 C23      3.4224   3.6425   1.0289   C.ar      3 RES3   0.0000
    34 C24      2.1394   3.1708   0.7233   C.ar      3 RES3   0.0000
    35 C25      1.8193   1.8412   1.0018   C.ar      3 RES3   0.0000
    36 C26      2.7463   1.0017   1.4840   C.ar      3 RES3   0.0000
    37 C28      6.9393  -1.4963   3.3313   C.ar      3 RES3   0.0000
    38 C29      6.2022  -0.4820   5.2771   C.3       3 RES3   0.0000
    39 C30      6.0495   0.8441   5.9681   C.3       3 RES3   0.0000
    40 C31      5.6276   3.2222   5.3925   C.ar      3 RES3   0.0000
    41 Fe1      6.5738   1.4289   3.1683   Fe        3 RES3   2.0000
    42 N1       5.0141   0.5837   2.2735   N.2       3 RES3   0.0000
    43 N2       8.0742   2.3963   3.9544   N.2       3 RES3   0.0000
    44 N3       7.0689  -0.2513   4.0376   N.2       3 RES3   0.0000
    45 N4       5.5817   1.8195   4.8662   N.2       3 RES3   0.0000
    46 S1       7.8709   1.0074   1.3974   S.3       3 RES3   0.0000
    47 S2       5.9041   3.3535   2.2226   S.3       3 RES3   0.0000
    48 C27      1.3900   4.7973   3.8542   C.3       4 RES4   0.0000
    49 O9       0.1463   5.3101   3.2005   O.3       4 RES4   0.0000
@<TRIPOS>BOND
     1     1     2    2
     2     3     1    2
     3     4     1    2
     4     5     1    1
     5     6     7    2
     6     8     6    2
     7     9     6    2
     8    10     6    1
     9    11    12    1
    10    12    43    2
    11    13    14   ar
    12    14    32   ar
    13    15    16    1
    14    16    47    1
    15    17    19   ar
    16    18    29    1
    17    19    36   ar
    18    20    21   ar
    19    21    22   ar
    20    22    23   ar
    21    23    37   ar
    22    24    25   ar
    23    25    26   ar
    24    26    27   ar
    25    27    11   ar
    26    28    13   ar
    27    29    20   ar
    28    30    28   ar
    29    31    30   ar
    30    32    31   ar
    31    33    17   ar
    32    34    33   ar
    33    35    34   ar
    34    36    35   ar
    35    37    29   ar
    36    38    39    1
    37    39    45    1
    38    40    11   ar
    39    41    42    1
    40    42    18    2
    41    43    13    1
    42    44    37    1
    43    45    40    1
    44    46    14    1
    45    47    17    1
    46    15    46    1
    47    19    42    1
    48    24    40   ar
    49    38    44    1
    50    41    43    1
    51    41    44    1
    52    41    45    1
    53    41    46    1
    54    41    47    1
    55    48    49    1
@<TRIPOS>SUBSTRUCTURE
     1 RES1        1 GROUP             0 ****  ****    0  
     2 RES2        6 GROUP             0 ****  ****    0  
     3 RES3       11 GROUP             0 ****  ****    0  
     4 RES4       48 GROUP             0 ****  ****    0  
