@<TRIPOS>MOLECULE
TACFOU
    77    90     1     0     0
SMALL
NO_CHARGES
****
Generated from the CSD

@<TRIPOS>ATOM
     1 Fe1      3.1085   9.8361   4.2575   Fe        1 RES1   0.0000
     2 N1       2.1429  10.9806   5.4782   N.2       1 RES1   0.0000
     3 N2       0.6651  12.1206   3.9349   N.2       1 RES1   0.0000
     4 N3       2.0917  10.5417   2.7718   N.2       1 RES1   0.0000
     5 N4       3.1598  10.3656   7.5907   N.2       1 RES1   0.0000
     6 C1       2.3311  11.0691   6.8410   C.2       1 RES1   0.0000
     7 C2       1.4574  12.0946   7.3843   C.2       1 RES1   0.0000
     8 C3       1.2875  12.5911   8.6735   C.2       1 RES1   0.0000
     9 H1       1.7770  12.2557   9.3896   H         1 RES1   0.0000
    10 C4       0.3660  13.5976   8.8472   C.2       1 RES1   0.0000
    11 H2       0.2300  13.9436   9.6987   H         1 RES1   0.0000
    12 C5      -0.3708  14.1118   7.7819   C.2       1 RES1   0.0000
    13 H3      -0.9809  14.7974   7.9344   H         1 RES1   0.0000
    14 C6      -0.2055  13.6196   6.5072   C.2       1 RES1   0.0000
    15 H4      -0.6957  13.9574   5.7928   H         1 RES1   0.0000
    16 C7       0.7199  12.6014   6.3259   C.2       1 RES1   0.0000
    17 C8       1.1572  11.8818   5.1406   C.2       1 RES1   0.0000
    18 C9       1.1155  11.5090   2.8389   C.2       1 RES1   0.0000
    19 C10      0.6175  11.8145   1.5089   C.ar      1 RES1   0.0000
    20 C11     -0.3331  12.7056   1.0422   C.ar      1 RES1   0.0000
    21 H5      -0.8046  13.2570   1.6247   H         1 RES1   0.0000
    22 C12     -0.5544  12.7467  -0.3142   C.ar      1 RES1   0.0000
    23 H6      -1.1884  13.3357  -0.6540   H         1 RES1   0.0000
    24 C13      0.1470  11.9278  -1.1836   C.ar      1 RES1   0.0000
    25 H7      -0.0271  11.9783  -2.0956   H         1 RES1   0.0000
    26 C14      1.0920  11.0433  -0.7272   C.ar      1 RES1   0.0000
    27 H8       1.5595  10.4931  -1.3139   H         1 RES1   0.0000
    28 C15      1.3247  10.9973   0.6318   C.ar      1 RES1   0.0000
    29 C16      2.2393  10.2124   1.4459   C.2       1 RES1   0.0000
    30 N5       1.7392   8.3852   4.5339   N.ar      1 RES1   0.0000
    31 C17      0.4315   8.6392   4.6961   C.ar      1 RES1   0.0000
    32 H9       0.1408   9.5233   4.6790   H         1 RES1   0.0000
    33 C18     -0.4922   7.6408   4.8877   C.ar      1 RES1   0.0000
    34 H10     -1.3829   7.8806   5.0043   H         1 RES1   0.0000
    35 N6      -0.1800   6.3557   4.9158   N.ar      1 RES1   0.0000
    36 C19      1.1110   6.1149   4.7523   C.ar      1 RES1   0.0000
    37 H11      1.3927   5.2288   4.7608   H         1 RES1   0.0000
    38 C20      2.0606   7.0906   4.5700   C.ar      1 RES1   0.0000
    39 H12      2.9511   6.8420   4.4687   H         1 RES1   0.0000
    40 N1B      4.0742   8.6915   3.0369   N.2       1 RES1   0.0000
    41 N2B      5.5519   7.5515   4.5802   N.2       1 RES1   0.0000
    42 N3B      4.1253   9.1304   5.7433   N.2       1 RES1   0.0000
    43 N4B      3.0573   9.3065   0.9244   N.2       1 RES1   0.0000
    44 C1B      3.8859   8.6030   1.6741   C.2       1 RES1   0.0000
    45 C2B      4.7597   7.5775   1.1308   C.ar      1 RES1   0.0000
    46 C3B      4.9296   7.0810  -0.1584   C.ar      1 RES1   0.0000
    47 H1B      4.4401   7.4164  -0.8745   H         1 RES1   0.0000
    48 C4B      5.8511   6.0745  -0.3321   C.ar      1 RES1   0.0000
    49 H2B      5.9870   5.7285  -1.1836   H         1 RES1   0.0000
    50 C5B      6.5879   5.5603   0.7331   C.ar      1 RES1   0.0000
    51 H3B      7.1980   4.8747   0.5807   H         1 RES1   0.0000
    52 C6B      6.4226   6.0525   2.0079   C.ar      1 RES1   0.0000
    53 H4B      6.9127   5.7147   2.7223   H         1 RES1   0.0000
    54 C7B      5.4972   7.0707   2.1892   C.ar      1 RES1   0.0000
    55 C8B      5.0598   7.7903   3.3745   C.2       1 RES1   0.0000
    56 C9B      5.1016   8.1631   5.6762   C.2       1 RES1   0.0000
    57 C10B     5.5995   7.8576   7.0062   C.ar      1 RES1   0.0000
    58 C11B     6.5501   6.9665   7.4728   C.ar      1 RES1   0.0000
    59 H5B      7.0217   6.4151   6.8904   H         1 RES1   0.0000
    60 C12B     6.7714   6.9254   8.8293   C.ar      1 RES1   0.0000
    61 H6B      7.4055   6.3364   9.1690   H         1 RES1   0.0000
    62 C13B     6.0701   7.7443   9.6987   C.ar      1 RES1   0.0000
    63 H7B      6.2442   7.6938  10.6106   H         1 RES1   0.0000
    64 C14B     5.1250   8.6288   9.2423   C.ar      1 RES1   0.0000
    65 H8B      4.6575   9.1790   9.8290   H         1 RES1   0.0000
    66 C15B     4.8923   8.6748   7.8833   C.ar      1 RES1   0.0000
    67 C16B     3.9778   9.4597   7.0692   C.2       1 RES1   0.0000
    68 N5B      4.4779  11.2869   3.9811   N.ar      1 RES1   0.0000
    69 C17B     5.7856  11.0329   3.8190   C.ar      1 RES1   0.0000
    70 H9B      6.0763  10.1488   3.8360   H         1 RES1   0.0000
    71 C18B     6.7092  12.0313   3.6274   C.ar      1 RES1   0.0000
    72 H10B     7.5999  11.7915   3.5108   H         1 RES1   0.0000
    73 N6B      6.3971  13.3164   3.5993   N.ar      1 RES1   0.0000
    74 C19B     5.1060  13.5572   3.7628   C.ar      1 RES1   0.0000
    75 H11B     4.8244  14.4433   3.7543   H         1 RES1   0.0000
    76 C20B     4.1564  12.5815   3.9450   C.ar      1 RES1   0.0000
    77 H12B     3.2660  12.8301   4.0464   H         1 RES1   0.0000
@<TRIPOS>BOND
     1     1     2    1
     2     2     6    1
     3     3    17    1
     4     4     1    1
     5     5     6    1
     6     6     7    2
     7     7     8    1
     8     8     9    1
     9    10     8    2
    10    11    10    1
    11    12    10    1
    12    13    12    1
    13    14    12    2
    14    15    14    1
    15    16     7    1
    16    17     2    1
    17    18     3    2
    18    19    18    1
    19    20    19   ar
    20    21    20    1
    21    22    20   ar
    22    23    22    1
    23    24    22   ar
    24    25    24    1
    25    26    24   ar
    26    27    26    1
    27    28    19   ar
    28    29     4    2
    29    30     1    1
    30    31    30   ar
    31    32    31    1
    32    33    31   ar
    33    34    33    1
    34    35    33   ar
    35    36    35   ar
    36    37    36    1
    37    38    30   ar
    38    39    38    1
    39    40     1    1
    40    41    55    2
    41    42     1    1
    42    43    29    1
    43    44    40    1
    44    45    44    1
    45    46    45   ar
    46    47    46    1
    47    48    46   ar
    48    49    48    1
    49    50    48   ar
    50    51    50    1
    51    52    50   ar
    52    53    52    1
    53    54    45   ar
    54    55    40    1
    55    56    41    1
    56    57    56    1
    57    58    57   ar
    58    59    58    1
    59    60    58   ar
    60    61    60    1
    61    62    60   ar
    62    63    62    1
    63    64    62   ar
    64    65    64    1
    65    66    57   ar
    66    67     5    2
    67    68     1    1
    68    69    68   ar
    69    70    69    1
    70    71    69   ar
    71    72    71    1
    72    73    71   ar
    73    74    73   ar
    74    75    74    1
    75    76    68   ar
    76    77    76    1
    77     4    18    1
    78    14    16    1
    79    16    17    2
    80    26    28   ar
    81    28    29    1
    82    36    38   ar
    83    42    56    2
    84    42    67    1
    85    43    44    2
    86    52    54   ar
    87    54    55    1
    88    64    66   ar
    89    66    67    1
    90    74    76   ar
@<TRIPOS>SUBSTRUCTURE
     1 RES1        1 GROUP             0 ****  ****    0  
@<TRIPOS>CRYSIN
    9.5301   19.6721    9.1369   90.0000  111.2600   90.0000    14     1
