@<TRIPOS>MOLECULE
TADZAC
    88    95     1     0     0
SMALL
NO_CHARGES
****
Generated from the CSD

@<TRIPOS>ATOM
     1 Fe1      7.9251   4.6460   6.4193   Fe        1 RES1   0.0000
     2 H1       9.3416   4.6460   6.0117   H         1 RES1   0.0000
     3 P1       8.4376   2.5228   6.0857   P.3       1 RES1   0.0000
     4 P2       8.5919   4.6460   8.5935   P.3       1 RES1   0.0000
     5 P3       5.7053   4.6460   6.5882   P.3       1 RES1   0.0000
     6 Si1      7.7928   4.6460   4.1590   Si        1 RES1   0.0000
     7 N1       8.8566   3.3830   3.5022   N.3       1 RES1   0.0000
     8 C1       6.2892   4.6460   3.0000   C.3       1 RES1   0.0000
     9 C2      10.0863   3.9322   3.1088   C.ar      1 RES1   0.0000
    10 C3      11.2112   3.2546   2.6950   C.ar      1 RES1   0.0000
    11 H2      11.2153   2.3044   2.6910   H         1 RES1   0.0000
    12 C4      12.3433   3.9515   2.2811   C.ar      1 RES1   0.0000
    13 H3      13.1161   3.4771   1.9987   H         1 RES1   0.0000
    14 C5       8.7683   2.1431   4.2420   C.3       1 RES1   0.0000
    15 H4       9.6137   1.6373   4.1503   H         1 RES1   0.0000
    16 H5       8.0350   1.5871   3.8777   H         1 RES1   0.0000
    17 C6      10.0203   1.8729   6.7913   C.ar      1 RES1   0.0000
    18 C7      11.2353   2.4215   6.3569   C.ar      1 RES1   0.0000
    19 H6      11.2320   3.1221   5.7155   H         1 RES1   0.0000
    20 C8      12.4341   1.9545   6.8502   C.ar      1 RES1   0.0000
    21 H7      13.2490   2.3342   6.5403   H         1 RES1   0.0000
    22 C9      12.4682   0.9411   7.7907   C.ar      1 RES1   0.0000
    23 H8      13.2989   0.6300   8.1339   H         1 RES1   0.0000
    24 C10     11.2814   0.3860   8.2271   C.ar      1 RES1   0.0000
    25 H9      11.2943  -0.3122   8.8704   H         1 RES1   0.0000
    26 C11     10.0768   0.8443   7.7289   C.ar      1 RES1   0.0000
    27 H10      9.2689   0.4497   8.0339   H         1 RES1   0.0000
    28 C12      7.3657   1.0840   6.5285   C.ar      1 RES1   0.0000
    29 C13      7.4590  -0.1355   5.8450   C.ar      1 RES1   0.0000
    30 H11      8.0745  -0.2304   5.1281   H         1 RES1   0.0000
    31 C14      6.6563  -1.2018   6.2118   C.ar      1 RES1   0.0000
    32 H12      6.7159  -2.0201   5.7322   H         1 RES1   0.0000
    33 C15      5.7728  -1.0927   7.2611   C.ar      1 RES1   0.0000
    34 H13      5.2161  -1.8268   7.4945   H         1 RES1   0.0000
    35 C16      5.7009   0.0855   7.9711   C.ar      1 RES1   0.0000
    36 H14      5.1164   0.1598   8.7165   H         1 RES1   0.0000
    37 C17      6.4876   1.1652   7.5916   C.ar      1 RES1   0.0000
    38 H15      6.4209   1.9811   8.0741   H         1 RES1   0.0000
    39 C18      8.1241   3.2691   9.7158   C.3       1 RES1   0.0000
    40 H16      8.4214   2.4178   9.3294   H         1 RES1   0.0000
    41 H17      7.1501   3.2559   9.8276   H         1 RES1   0.0000
    42 H18      8.5522   3.3990  10.5876   H         1 RES1   0.0000
    43 C19     10.3877   4.6460   8.9146   C.3       1 RES1   0.0000
    44 C20      4.8372   4.6460   8.2183   C.3       1 RES1   0.0000
    45 C21      4.7707   3.2617   5.8057   C.3       1 RES1   0.0000
    46 H19      5.1434   3.0757   4.9182   H         1 RES1   0.0000
    47 H20      3.8285   3.5124   5.7185   H         1 RES1   0.0000
    48 H21      4.8443   2.4605   6.3647   H         1 RES1   0.0000
    49 P1G      8.4376   6.7692   6.0857   P.3       1 RES1   0.0000
    50 N1G      8.8566   5.9090   3.5022   N.3       1 RES1   0.0000
    51 C2G     10.0863   5.3598   3.1088   C.ar      1 RES1   0.0000
    52 C3G     11.2112   6.0374   2.6950   C.ar      1 RES1   0.0000
    53 H2G     11.2153   6.9876   2.6910   H         1 RES1   0.0000
    54 C4G     12.3433   5.3405   2.2811   C.ar      1 RES1   0.0000
    55 H3G     13.1161   5.8149   1.9987   H         1 RES1   0.0000
    56 C5G      8.7683   7.1489   4.2420   C.3       1 RES1   0.0000
    57 H4G      9.6137   7.6547   4.1503   H         1 RES1   0.0000
    58 H5G      8.0350   7.7049   3.8777   H         1 RES1   0.0000
    59 C6G     10.0203   7.4191   6.7913   C.ar      1 RES1   0.0000
    60 C7G     11.2353   6.8705   6.3569   C.ar      1 RES1   0.0000
    61 H6G     11.2320   6.1699   5.7155   H         1 RES1   0.0000
    62 C8G     12.4341   7.3375   6.8502   C.ar      1 RES1   0.0000
    63 H7G     13.2490   6.9578   6.5403   H         1 RES1   0.0000
    64 C9G     12.4682   8.3509   7.7907   C.ar      1 RES1   0.0000
    65 H8G     13.2989   8.6620   8.1339   H         1 RES1   0.0000
    66 C10G    11.2814   8.9060   8.2271   C.ar      1 RES1   0.0000
    67 H9G     11.2943   9.6042   8.8704   H         1 RES1   0.0000
    68 C11G    10.0768   8.4477   7.7289   C.ar      1 RES1   0.0000
    69 H10G     9.2689   8.8423   8.0339   H         1 RES1   0.0000
    70 C12G     7.3657   8.2080   6.5285   C.ar      1 RES1   0.0000
    71 C13G     7.4590   9.4275   5.8450   C.ar      1 RES1   0.0000
    72 H11G     8.0745   9.5224   5.1281   H         1 RES1   0.0000
    73 C14G     6.6563  10.4938   6.2118   C.ar      1 RES1   0.0000
    74 H12G     6.7159  11.3121   5.7322   H         1 RES1   0.0000
    75 C15G     5.7728  10.3847   7.2611   C.ar      1 RES1   0.0000
    76 H13G     5.2161  11.1188   7.4945   H         1 RES1   0.0000
    77 C16G     5.7009   9.2065   7.9711   C.ar      1 RES1   0.0000
    78 H14G     5.1164   9.1322   8.7165   H         1 RES1   0.0000
    79 C17G     6.4876   8.1268   7.5916   C.ar      1 RES1   0.0000
    80 H15G     6.4209   7.3109   8.0741   H         1 RES1   0.0000
    81 C18G     8.1241   6.0229   9.7158   C.3       1 RES1   0.0000
    82 H16G     8.4214   6.8742   9.3294   H         1 RES1   0.0000
    83 H17G     7.1501   6.0361   9.8276   H         1 RES1   0.0000
    84 H18G     8.5522   5.8930  10.5876   H         1 RES1   0.0000
    85 C21G     4.7707   6.0303   5.8057   C.3       1 RES1   0.0000
    86 H19G     5.1434   6.2163   4.9182   H         1 RES1   0.0000
    87 H20G     3.8285   5.7796   5.7185   H         1 RES1   0.0000
    88 H21G     4.8443   6.8315   6.3647   H         1 RES1   0.0000
@<TRIPOS>BOND
     1     1     2    1
     2     3     1    1
     3     4     1    1
     4     5     1    1
     5     6     1    1
     6     7     6    1
     7     8     6    1
     8     9     7    1
     9    10     9   ar
    10    11    10    1
    11    12    10   ar
    12    13    12    1
    13    14     3    1
    14    15    14    1
    15    16    14    1
    16    17     3    1
    17    18    17   ar
    18    19    18    1
    19    20    18   ar
    20    21    20    1
    21    22    20   ar
    22    23    22    1
    23    24    22   ar
    24    25    24    1
    25    26    17   ar
    26    27    26    1
    27    28     3    1
    28    29    28   ar
    29    30    29    1
    30    31    29   ar
    31    32    31    1
    32    33    31   ar
    33    34    33    1
    34    35    33   ar
    35    36    35    1
    36    37    28   ar
    37    38    37    1
    38    39     4    1
    39    40    39    1
    40    41    39    1
    41    42    39    1
    42    43     4    1
    43    44     5    1
    44    45     5    1
    45    46    45    1
    46    47    45    1
    47    48    45    1
    48    49     1    1
    49    50     6    1
    50    51     9   ar
    51    52    51   ar
    52    53    52    1
    53    54    12   ar
    54    55    54    1
    55    56    49    1
    56    57    56    1
    57    58    56    1
    58    59    49    1
    59    60    59   ar
    60    61    60    1
    61    62    60   ar
    62    63    62    1
    63    64    62   ar
    64    65    64    1
    65    66    64   ar
    66    67    66    1
    67    68    59   ar
    68    69    68    1
    69    70    49    1
    70    71    70   ar
    71    72    71    1
    72    73    71   ar
    73    74    73    1
    74    75    73   ar
    75    76    75    1
    76    77    75   ar
    77    78    77    1
    78    79    70   ar
    79    80    79    1
    80    81     4    1
    81    82    81    1
    82    83    81    1
    83    84    81    1
    84    85     5    1
    85    86    85    1
    86    87    85    1
    87    88    85    1
    88     7    14    1
    89    24    26   ar
    90    35    37   ar
    91    50    51    1
    92    50    56    1
    93    52    54   ar
    94    66    68   ar
    95    77    79   ar
@<TRIPOS>SUBSTRUCTURE
     1 RES1        1 GROUP             0 ****  ****    0  
@<TRIPOS>CRYSIN
   20.7730   18.5840    9.8070   90.0000   90.0000   90.0000    62     1
