@<TRIPOS>MOLECULE
TAHGOB
    78    85     3     0     0
SMALL
USER_CHARGES
****
Generated from the CSD

@<TRIPOS>ATOM
     1 Fe1     13.1630   0.0000   0.0000   Fe        1 RES1   1.0000
     2 O1      14.3357   0.0192   1.4569   O.3       1 RES1   0.0000
     3 N1       8.8092   0.8061   0.0663   N.ar      1 RES1   0.0000
     4 N2      11.7896  -0.9530   1.0733   N.ar      1 RES1   0.0000
     5 N3      12.3428   1.6207   0.6461   N.2       1 RES1   0.0000
     6 N4       8.2142  -1.0450   1.9081   N.pl3     1 RES1   0.0000
     7 H1       7.6758  -1.5481   2.3878   H         1 RES1   0.0000
     8 H2       7.8997  -0.3341   1.4942   H         1 RES1   0.0000
     9 C1       8.4004   1.9448  -0.5026   C.ar      1 RES1   0.0000
    10 H3       7.4962   2.0029  -0.7862   H         1 RES1   0.0000
    11 C2       9.2086   3.0342  -0.7012   C.ar      1 RES1   0.0000
    12 H4       8.8736   3.8239  -1.1084   H         1 RES1   0.0000
    13 C3      10.5297   2.9490  -0.2897   C.ar      1 RES1   0.0000
    14 H5      11.1186   3.6855  -0.4057   H         1 RES1   0.0000
    15 C4      10.9754   1.7822   0.2893   C.ar      1 RES1   0.0000
    16 C5      10.0957   0.7011   0.4577   C.ar      1 RES1   0.0000
    17 C6      10.4795  -0.5716   1.1091   C.ar      1 RES1   0.0000
    18 C7       9.5364  -1.3651   1.8059   C.ar      1 RES1   0.0000
    19 C8      10.0016  -2.5047   2.4794   C.ar      1 RES1   0.0000
    20 H6       9.3878  -3.0568   2.9500   H         1 RES1   0.0000
    21 C9      11.3289  -2.8286   2.4650   C.ar      1 RES1   0.0000
    22 H7      11.6456  -3.5866   2.9420   H         1 RES1   0.0000
    23 C10     12.2032  -2.0341   1.7444   C.ar      1 RES1   0.0000
    24 H8      13.1244  -2.2639   1.7249   H         1 RES1   0.0000
    25 C11     12.9333   2.5267   1.3583   C.2       1 RES1   0.0000
    26 H9      12.4614   3.3296   1.5433   H         1 RES1   0.0000
    27 C12     14.2564   2.3853   1.8819   C.ar      1 RES1   0.0000
    28 C13     14.8691   3.4953   2.5029   C.ar      1 RES1   0.0000
    29 H10     14.4268   4.3360   2.4992   H         1 RES1   0.0000
    30 C14     16.0929   3.3802   3.1117   C.ar      1 RES1   0.0000
    31 H11     16.5004   4.1363   3.5174   H         1 RES1   0.0000
    32 C15     16.7317   2.1391   3.1288   C.ar      1 RES1   0.0000
    33 H12     17.5841   2.0563   3.5413   H         1 RES1   0.0000
    34 C16     16.1443   1.0321   2.5569   C.ar      1 RES1   0.0000
    35 H13     16.5953   0.1957   2.5880   H         1 RES1   0.0000
    36 C17     14.8903   1.1149   1.9274   C.ar      1 RES1   0.0000
    37 O1D     11.9903  -0.0192  -1.4569   O.3       1 RES1   0.0000
    38 N1D     17.5168  -0.8061  -0.0663   N.ar      1 RES1   0.0000
    39 N2D     14.5364   0.9530  -1.0733   N.ar      1 RES1   0.0000
    40 N3D     13.9832  -1.6207  -0.6461   N.2       1 RES1   0.0000
    41 N4D     18.1118   1.0450  -1.9081   N.pl3     1 RES1   0.0000
    42 H1D     18.6502   1.5481  -2.3878   H         1 RES1   0.0000
    43 H2D     18.4263   0.3341  -1.4942   H         1 RES1   0.0000
    44 C1D     17.9256  -1.9448   0.5026   C.ar      1 RES1   0.0000
    45 H3D     18.8298  -2.0029   0.7862   H         1 RES1   0.0000
    46 C2D     17.1174  -3.0342   0.7012   C.ar      1 RES1   0.0000
    47 H4D     17.4524  -3.8239   1.1084   H         1 RES1   0.0000
    48 C3D     15.7963  -2.9490   0.2897   C.ar      1 RES1   0.0000
    49 H5D     15.2074  -3.6855   0.4057   H         1 RES1   0.0000
    50 C4D     15.3506  -1.7822  -0.2893   C.ar      1 RES1   0.0000
    51 C5D     16.2303  -0.7011  -0.4577   C.ar      1 RES1   0.0000
    52 C6D     15.8465   0.5716  -1.1091   C.ar      1 RES1   0.0000
    53 C7D     16.7896   1.3651  -1.8059   C.ar      1 RES1   0.0000
    54 C8D     16.3244   2.5047  -2.4794   C.ar      1 RES1   0.0000
    55 H6D     16.9382   3.0568  -2.9500   H         1 RES1   0.0000
    56 C9D     14.9971   2.8286  -2.4650   C.ar      1 RES1   0.0000
    57 H7D     14.6804   3.5866  -2.9420   H         1 RES1   0.0000
    58 C10D    14.1228   2.0341  -1.7444   C.ar      1 RES1   0.0000
    59 H8D     13.2016   2.2639  -1.7249   H         1 RES1   0.0000
    60 C11D    13.3927  -2.5267  -1.3583   C.2       1 RES1   0.0000
    61 H9D     13.8646  -3.3296  -1.5433   H         1 RES1   0.0000
    62 C12D    12.0696  -2.3853  -1.8819   C.ar      1 RES1   0.0000
    63 C13D    11.4569  -3.4953  -2.5029   C.ar      1 RES1   0.0000
    64 H10D    11.8992  -4.3360  -2.4992   H         1 RES1   0.0000
    65 C14D    10.2331  -3.3802  -3.1117   C.ar      1 RES1   0.0000
    66 H11D     9.8256  -4.1363  -3.5174   H         1 RES1   0.0000
    67 C15D     9.5943  -2.1391  -3.1288   C.ar      1 RES1   0.0000
    68 H12D     8.7419  -2.0563  -3.5413   H         1 RES1   0.0000
    69 C16D    10.1817  -1.0321  -2.5569   C.ar      1 RES1   0.0000
    70 H13D     9.7307  -0.1957  -2.5880   H         1 RES1   0.0000
    71 C17D    11.4357  -1.1149  -1.9274   C.ar      1 RES1   0.0000
    72 Cl1      6.4543  16.3435   3.3146   Cl        2 RES2  -1.0000
    73 N5      -1.0511   5.3392  11.5426   N.1       3 RES3   0.0000
    74 C18     -0.1722   5.6694  12.1691   C.1       3 RES3   0.0000
    75 C19      0.9651   6.0686  12.9917   C.3       3 RES3   0.0000
    76 H14      0.7050   6.0522  13.9371   H         3 RES3   0.0000
    77 H15      1.2444   6.9756  12.7451   H         3 RES3   0.0000
    78 H16      1.7078   5.4472  12.8459   H         3 RES3   0.0000
@<TRIPOS>BOND
     1     1     2    1
     2     2    36    1
     3     3     9   ar
     4     4     1    1
     5     5     1    1
     6     6     7    1
     7     8     6    1
     8     9    10    1
     9    11     9   ar
    10    12    11    1
    11    13    11   ar
    12    14    13    1
    13    15     5    1
    14    16     3   ar
    15    17     4   ar
    16    18     6    1
    17    19    18   ar
    18    20    19    1
    19    21    19   ar
    20    22    21    1
    21    23     4   ar
    22    24    23    1
    23    25     5    2
    24    26    25    1
    25    27    25    1
    26    28    27   ar
    27    29    28    1
    28    30    28   ar
    29    31    30    1
    30    32    30   ar
    31    33    32    1
    32    34    32   ar
    33    35    34    1
    34    36    27   ar
    35    37     1    1
    36    38    44   ar
    37    39     1    1
    38    40     1    1
    39    41    42    1
    40    43    41    1
    41    44    45    1
    42    46    44   ar
    43    47    46    1
    44    48    46   ar
    45    49    48    1
    46    50    40    1
    47    51    38   ar
    48    52    39   ar
    49    53    41    1
    50    54    53   ar
    51    55    54    1
    52    56    54   ar
    53    57    56    1
    54    58    39   ar
    55    59    58    1
    56    60    40    2
    57    61    60    1
    58    62    60    1
    59    63    62   ar
    60    64    63    1
    61    65    63   ar
    62    66    65    1
    63    67    65   ar
    64    68    67    1
    65    69    67   ar
    66    70    69    1
    67    71    37    1
    68    13    15   ar
    69    15    16   ar
    70    16    17    1
    71    17    18   ar
    72    21    23   ar
    73    34    36   ar
    74    48    50   ar
    75    50    51   ar
    76    51    52    1
    77    52    53   ar
    78    56    58   ar
    79    62    71   ar
    80    69    71   ar
    81    73    74    3
    82    74    75    1
    83    75    76    1
    84    77    75    1
    85    78    75    1
@<TRIPOS>SUBSTRUCTURE
     1 RES1        1 GROUP             0 ****  ****    0  
     2 RES2       72 GROUP             0 ****  ****    0  
     3 RES3       73 GROUP             0 ****  ****    0  
@<TRIPOS>CRYSIN
   13.1630   19.7720   13.2680   90.0000   92.1980   90.0000    15     1
