@<TRIPOS>MOLECULE
TAHWOR
    88    98     2     0     0
SMALL
NO_CHARGES
****
Generated from the CSD

@<TRIPOS>ATOM
     1 Fe1      1.7355   3.8274  25.2098   Fe        1 RES1   0.0000
     2 N1       2.5690   4.8462  23.8419   N.2       1 RES1   0.0000
     3 N2       0.2363   4.2750  24.1020   N.2       1 RES1   0.0000
     4 N3       3.1745   4.3807  26.3326   N.2       1 RES1   0.0000
     5 N4       0.8011   4.7451  26.5845   N.2       1 RES1   0.0000
     6 N5       2.8989   2.4022  24.6817   N.2       1 RES1   0.0000
     7 N6       0.7265   2.3021  25.7280   N.2       1 RES1   0.0000
     8 O1       3.9370   4.9648  23.7092   O.3       1 RES1   0.0000
     9 O2       4.5008   4.2500  25.9924   O.3       1 RES1   0.0000
    10 O3       4.1873   2.5812  24.2401   O.3       1 RES1   0.0000
    11 O4      -1.0661   4.0368  24.4360   O.3       1 RES1   0.0000
    12 O5      -0.5679   4.7636  26.7218   O.3       1 RES1   0.0000
    13 O6      -0.5823   2.3586  26.1662   O.3       1 RES1   0.0000
    14 O7      11.1497   3.8411  22.9031   O.2       1 RES1   0.0000
    15 O8      -7.7711   3.7104  26.9343   O.2       1 RES1   0.0000
    16 B1       4.6868   3.9570  24.5390   B         1 RES1   0.0000
    17 B2      -1.1927   3.6900  25.8763   B         1 RES1   0.0000
    18 C1       1.8506   5.2875  22.8530   C.2       1 RES1   0.0000
    19 C2       0.4514   5.0316  23.0554   C.2       1 RES1   0.0000
    20 C3      -0.6054   5.5981  22.1641   C.3       1 RES1   0.0000
    21 H1      -1.2828   6.0338  22.7050   H         1 RES1   0.0000
    22 H2      -1.0317   4.8795  21.6719   H         1 RES1   0.0000
    23 C4      -0.0139   6.6068  21.1814   C.3       1 RES1   0.0000
    24 H3      -0.6598   6.7830  20.4775   H         1 RES1   0.0000
    25 H4       0.1577   7.4422  21.6436   H         1 RES1   0.0000
    26 C5       1.2674   6.1080  20.5664   C.3       1 RES1   0.0000
    27 H5       1.5601   6.7283  19.8803   H         1 RES1   0.0000
    28 H6       1.1114   5.2467  20.1463   H         1 RES1   0.0000
    29 C6       2.3651   5.9680  21.6362   C.3       1 RES1   0.0000
    30 H7       3.1051   5.4590  21.2728   H         1 RES1   0.0000
    31 H8       2.6953   6.8488  21.8757   H         1 RES1   0.0000
    32 C7       2.8993   5.0742  27.3954   C.2       1 RES1   0.0000
    33 C8       1.4856   5.2420  27.6017   C.2       1 RES1   0.0000
    34 C9       0.9089   5.9040  28.7905   C.3       1 RES1   0.0000
    35 H9       0.1961   5.3533  29.1525   H         1 RES1   0.0000
    36 H10      0.5255   6.7561  28.5298   H         1 RES1   0.0000
    37 C10      1.9539   6.1340  29.8572   C.3       1 RES1   0.0000
    38 H11      1.6206   6.8052  30.4742   H         1 RES1   0.0000
    39 H12      2.0703   5.3107  30.3554   H         1 RES1   0.0000
    40 C11      3.2577   6.5651  29.3591   C.3       1 RES1   0.0000
    41 H13      3.8568   6.6615  30.1176   H         1 RES1   0.0000
    42 H14      3.1558   7.4412  28.9572   H         1 RES1   0.0000
    43 C12      3.9064   5.6602  28.3628   C.3       1 RES1   0.0000
    44 H15      4.3581   4.9389  28.8298   H         1 RES1   0.0000
    45 H16      4.5751   6.1581  27.8647   H         1 RES1   0.0000
    46 C13      2.5324   1.1728  24.9307   C.2       1 RES1   0.0000
    47 C14      1.1948   1.1116  25.4852   C.2       1 RES1   0.0000
    48 C15      0.4795  -0.1697  25.6853   C.3       1 RES1   0.0000
    49 H17     -0.4060  -0.1066  25.2975   H         1 RES1   0.0000
    50 H18      0.3789  -0.3366  26.6363   H         1 RES1   0.0000
    51 C16      1.2261  -1.3351  25.0456   C.3       1 RES1   0.0000
    52 H19      0.8665  -2.1714  25.3796   H         1 RES1   0.0000
    53 H20      1.0967  -1.3138  24.0833   H         1 RES1   0.0000
    54 C17      2.7090  -1.2655  25.3541   C.3       1 RES1   0.0000
    55 H21      3.1429  -2.0675  25.0230   H         1 RES1   0.0000
    56 H22      2.8365  -1.2322  26.3136   H         1 RES1   0.0000
    57 C18      3.3583  -0.0426  24.7173   C.3       1 RES1   0.0000
    58 H23      4.2385   0.0936  25.1051   H         1 RES1   0.0000
    59 H24      3.4697  -0.1938  23.7663   H         1 RES1   0.0000
    60 C19      6.2301   4.0933  24.1881   C.ar      1 RES1   0.0000
    61 C20      6.9303   5.2170  24.5673   C.ar      1 RES1   0.0000
    62 H25      6.4874   5.8799  25.0428   H         1 RES1   0.0000
    63 C21      8.2510   5.3941  24.2673   C.ar      1 RES1   0.0000
    64 H26      8.6832   6.1729  24.5362   H         1 RES1   0.0000
    65 C22      8.9461   4.4410  23.5795   C.ar      1 RES1   0.0000
    66 C23      8.3025   3.2867  23.1889   C.ar      1 RES1   0.0000
    67 H27      8.7658   2.6238  22.7276   H         1 RES1   0.0000
    68 C24      6.9401   3.1208  23.4946   C.ar      1 RES1   0.0000
    69 H28      6.5072   2.3429  23.2286   H         1 RES1   0.0000
    70 C25     10.4172   4.6246  23.3588   C.2       1 RES1   0.0000
    71 H29     10.7816   5.4423  23.6107   H         1 RES1   0.0000
    72 C26     -2.7321   3.6103  26.2833   C.ar      1 RES1   0.0000
    73 C27     -3.0995   2.9956  27.5010   C.ar      1 RES1   0.0000
    74 H30     -2.4392   2.6266  28.0401   H         1 RES1   0.0000
    75 C28     -4.4200   2.9288  27.9108   C.ar      1 RES1   0.0000
    76 H31     -4.6335   2.5265  28.7222   H         1 RES1   0.0000
    77 C29     -5.4204   3.4592  27.1197   C.ar      1 RES1   0.0000
    78 C30     -5.0963   4.0599  25.9032   C.ar      1 RES1   0.0000
    79 H32     -5.7688   4.4039  25.3598   H         1 RES1   0.0000
    80 C31     -3.7680   4.1443  25.5044   C.ar      1 RES1   0.0000
    81 H33     -3.5618   4.5662  24.7003   H         1 RES1   0.0000
    82 C32     -6.8119   3.3442  27.5646   C.2       1 RES1   0.0000
    83 H34     -6.9667   2.9594  28.3968   H         1 RES1   0.0000
    84 C33      6.0387   6.9443  21.7285   C.3       2 RES2   0.0000
    85 H35      6.8324   6.4186  21.5558   H         2 RES2   0.0000
    86 H36      5.3602   6.4177  22.1729   H         2 RES2   0.0000
    87 Cl1      5.5076   7.7249  20.4633   Cl        2 RES2   0.0000
    88 Cl2      6.3719   8.4833  22.5295   Cl        2 RES2   0.0000
@<TRIPOS>BOND
     1     1     2    1
     2     2     8    1
     3     3     1    1
     4     4     1    1
     5     5     1    1
     6     6     1    1
     7     7     1    1
     8     8    16    1
     9     9     4    1
    10    10     6    1
    11    11     3    1
    12    12     5    1
    13    13     7    1
    14    14    70    2
    15    15    82    2
    16    16     9    1
    17    17    11    1
    18    18     2    2
    19    19     3    2
    20    20    19    1
    21    21    20    1
    22    22    20    1
    23    23    20    1
    24    24    23    1
    25    25    23    1
    26    26    23    1
    27    27    26    1
    28    28    26    1
    29    29    18    1
    30    30    29    1
    31    31    29    1
    32    32     4    2
    33    33     5    2
    34    34    33    1
    35    35    34    1
    36    36    34    1
    37    37    34    1
    38    38    37    1
    39    39    37    1
    40    40    37    1
    41    41    40    1
    42    42    40    1
    43    43    32    1
    44    44    43    1
    45    45    43    1
    46    46     6    2
    47    47     7    2
    48    48    47    1
    49    49    48    1
    50    50    48    1
    51    51    48    1
    52    52    51    1
    53    53    51    1
    54    54    51    1
    55    55    54    1
    56    56    54    1
    57    57    46    1
    58    58    57    1
    59    59    57    1
    60    60    16    1
    61    61    60   ar
    62    62    61    1
    63    63    61   ar
    64    64    63    1
    65    65    63   ar
    66    66    65   ar
    67    67    66    1
    68    68    60   ar
    69    69    68    1
    70    70    65    1
    71    71    70    1
    72    72    17    1
    73    73    72   ar
    74    74    73    1
    75    75    73   ar
    76    76    75    1
    77    77    75   ar
    78    78    77   ar
    79    79    78    1
    80    80    72   ar
    81    81    80    1
    82    82    77    1
    83    83    82    1
    84    10    16    1
    85    12    17    1
    86    13    17    1
    87    18    19    1
    88    26    29    1
    89    32    33    1
    90    40    43    1
    91    46    47    1
    92    54    57    1
    93    66    68   ar
    94    78    80   ar
    95    84    85    1
    96    86    84    1
    97    87    84    1
    98    88    84    1
@<TRIPOS>SUBSTRUCTURE
     1 RES1        1 GROUP             0 ****  ****    0  
     2 RES2       84 GROUP             0 ****  ****    0  
@<TRIPOS>CRYSIN
   26.7982    9.2714   29.2910   90.0000  104.9210   90.0000    15     1
