@<TRIPOS>MOLECULE
TAJRIF
    77    80     1     0     0
SMALL
NO_CHARGES
****
Generated from the CSD

@<TRIPOS>ATOM
     1 Fe1      6.4343   3.9574   2.5066   Fe        1 RES1   0.0000
     2 O1       4.6173   5.8362   1.1505   O.2       1 RES1   0.0000
     3 O2       4.0860   2.7098   3.7119   O.2       1 RES1   0.0000
     4 O3       7.0608   5.7296   4.7998   O.2       1 RES1   0.0000
     5 O4       8.4035   2.6846   5.4136   O.3       1 RES1   0.0000
     6 O5       6.5676   1.4068   5.1405   O.2       1 RES1   0.0000
     7 O6       9.1728   0.1823   3.9899   O.2       1 RES1   0.0000
     8 O7       9.8711   0.1101   1.8624   O.3       1 RES1   0.0000
     9 O8       4.9185   2.6537   0.4371   O.2       1 RES1   0.0000
    10 N1       8.0616   4.5991   1.5153   N.2       1 RES1   0.0000
    11 N2       7.1186   2.1586   0.3583   N.am      1 RES1   0.0000
    12 C1       5.3722   5.1265   1.6872   C.1       1 RES1   0.0000
    13 C2       5.0118   3.1867   3.2781   C.1       1 RES1   0.0000
    14 C3       6.8201   5.0690   3.9032   C.1       1 RES1   0.0000
    15 C4       7.5434   2.4644   3.2797   C.2       1 RES1   0.0000
    16 C5       7.4487   2.0688   4.6761   C.2       1 RES1   0.0000
    17 C6       8.4561   2.2610   6.7811   C.3       1 RES1   0.0000
    18 C7       8.4127   6.0452   1.3996   C.3       1 RES1   0.0000
    19 C8       9.6134   6.3355   2.3123   C.3       1 RES1   0.0000
    20 C9       6.0652   2.7645   0.9416   C.2       1 RES1   0.0000
    21 C10      8.3759   1.8318   2.4345   C.2       1 RES1   0.0000
    22 C11      9.1689   0.6452   2.8844   C.2       1 RES1   0.0000
    23 C12     10.5879  -1.0730   2.2143   C.3       1 RES1   0.0000
    24 C13      8.8270   3.7449   0.9754   C.2       1 RES1   0.0000
    25 C14      8.4272   2.3171   0.9834   C.3       1 RES1   0.0000
    26 C15      8.6192   6.4365  -0.0595   C.3       1 RES1   0.0000
    27 C16      7.8209   2.3886  -2.0167   C.3       1 RES1   0.0000
    28 C17      7.0437   1.5302  -0.9754   C.3       1 RES1   0.0000
    29 C18      7.4264   0.0799  -0.9465   C.3       1 RES1   0.0000
    30 C19      7.1081  -0.6017  -2.3043   C.3       1 RES1   0.0000
    31 C20      7.3817  -2.0955  -2.3139   C.3       1 RES1   0.0000
    32 C21      6.6399  -2.7687  -1.1907   C.3       1 RES1   0.0000
    33 C22      7.0161  -2.1291   0.1671   C.3       1 RES1   0.0000
    34 C23      6.7228  -0.6466   0.1607   C.3       1 RES1   0.0000
    35 C24      8.9887   7.9177  -0.2571   C.3       1 RES1   0.0000
    36 C25      9.2070   8.2529  -1.7274   C.3       1 RES1   0.0000
    37 C26      7.9958   7.8840  -2.5887   C.3       1 RES1   0.0000
    38 C27      7.5973   6.4043  -2.3750   C.3       1 RES1   0.0000
    39 C28      7.3882   6.1195  -0.8999   C.3       1 RES1   0.0000
    40 H1       8.8769   2.9595   7.3243   H         1 RES1   0.0000
    41 H2       8.9690   1.4307   6.8470   H         1 RES1   0.0000
    42 H3       7.5447   2.1039   7.1089   H         1 RES1   0.0000
    43 H4       7.6381   6.5726   1.7467   H         1 RES1   0.0000
    44 H5       9.6528   5.8629   3.1592   H         1 RES1   0.0000
    45 H6       9.6791   7.2977   2.4907   H         1 RES1   0.0000
    46 H7      10.4445   6.0312   1.8688   H         1 RES1   0.0000
    47 H8      11.1915  -0.8794   2.9728   H         1 RES1   0.0000
    48 H9      11.1126  -1.3745   1.4462   H         1 RES1   0.0000
    49 H10      9.9553  -1.7757   2.4746   H         1 RES1   0.0000
    50 H11      9.6423   4.0170   0.5704   H         1 RES1   0.0000
    51 H12      9.1031   1.7813   0.4772   H         1 RES1   0.0000
    52 H13      9.3753   5.8881  -0.4146   H         1 RES1   0.0000
    53 H14      7.4566   3.2961  -2.0408   H         1 RES1   0.0000
    54 H15      7.7328   1.9777  -2.9053   H         1 RES1   0.0000
    55 H16      8.7678   2.4265  -1.7676   H         1 RES1   0.0000
    56 H17      6.0810   1.5611  -1.2470   H         1 RES1   0.0000
    57 H18      8.4127   0.0182  -0.7874   H         1 RES1   0.0000
    58 H19      6.1547  -0.4488  -2.5228   H         1 RES1   0.0000
    59 H20      7.6513  -0.1739  -3.0129   H         1 RES1   0.0000
    60 H21      7.0923  -2.4812  -3.1784   H         1 RES1   0.0000
    61 H22      8.3522  -2.2568  -2.2127   H         1 RES1   0.0000
    62 H23      6.8635  -3.7323  -1.1763   H         1 RES1   0.0000
    63 H24      5.6641  -2.6818  -1.3385   H         1 RES1   0.0000
    64 H25      6.5019  -2.5527   0.8918   H         1 RES1   0.0000
    65 H26      7.9695  -2.2750   0.3455   H         1 RES1   0.0000
    66 H27      5.7470  -0.5119   0.0659   H         1 RES1   0.0000
    67 H28      7.0003  -0.2595   1.0284   H         1 RES1   0.0000
    68 H29      8.2615   8.4857   0.1028   H         1 RES1   0.0000
    69 H30      9.8133   8.1197   0.2507   H         1 RES1   0.0000
    70 H31     10.0027   7.7634  -2.0584   H         1 RES1   0.0000
    71 H32      9.3885   9.2221  -1.8174   H         1 RES1   0.0000
    72 H33      8.2102   8.0341  -3.5432   H         1 RES1   0.0000
    73 H34      7.2317   8.4689  -2.3509   H         1 RES1   0.0000
    74 H35      6.7622   6.2107  -2.8715   H         1 RES1   0.0000
    75 H36      8.3088   5.8152  -2.7301   H         1 RES1   0.0000
    76 H37      7.1555   5.1644  -0.7858   H         1 RES1   0.0000
    77 H38      6.6255   6.6581  -0.5721   H         1 RES1   0.0000
@<TRIPOS>BOND
     1     1    10    1
     2     2    12    3
     3     3    13    3
     4     4    14    3
     5     5    16    1
     6     6    16    2
     7     7    22    2
     8     8    22    1
     9     9    20    2
    10    10    18    1
    11    11    20   am
    12    12     1    1
    13    13     1    1
    14    14     1    1
    15    15     1    1
    16    16    15    1
    17    17     5    1
    18    18    19    1
    19    19    44    1
    20    20     1    1
    21    21    15    2
    22    22    21    1
    23    23     8    1
    24    24    10    2
    25    25    11    1
    26    26    18    1
    27    27    28    1
    28    28    11    1
    29    29    28    1
    30    30    29    1
    31    31    30    1
    32    32    31    1
    33    33    32    1
    34    34    29    1
    35    35    26    1
    36    36    35    1
    37    37    36    1
    38    38    37    1
    39    39    26    1
    40    40    17    1
    41    41    17    1
    42    42    17    1
    43    43    18    1
    44    45    19    1
    45    46    19    1
    46    47    23    1
    47    48    23    1
    48    49    23    1
    49    50    24    1
    50    51    25    1
    51    52    26    1
    52    53    27    1
    53    54    27    1
    54    55    27    1
    55    56    28    1
    56    57    29    1
    57    58    30    1
    58    59    30    1
    59    60    31    1
    60    61    31    1
    61    62    32    1
    62    63    32    1
    63    64    33    1
    64    65    33    1
    65    66    34    1
    66    67    34    1
    67    68    35    1
    68    69    35    1
    69    70    36    1
    70    71    36    1
    71    72    37    1
    72    73    37    1
    73    74    38    1
    74    75    38    1
    75    76    39    1
    76    77    39    1
    77    21    25    1
    78    24    25    1
    79    33    34    1
    80    38    39    1
@<TRIPOS>SUBSTRUCTURE
     1 RES1        1 GROUP             0 ****  ****    0  
@<TRIPOS>CRYSIN
   13.1510   14.0260   16.0690   90.0000   90.0000   90.0000    19     1
