@<TRIPOS>MOLECULE
TAKPAZ
   118   122     4     0     0
SMALL
USER_CHARGES
****
Generated from the CSD

@<TRIPOS>ATOM
     1 Fe1      8.3707  14.8622  11.0905   Fe        1 RES1   2.0000
     2 P1       6.8421  13.2594  11.6406   P.3       1 RES1   0.0000
     3 P2       9.0587  14.7856  13.2822   P.3       1 RES1   0.0000
     4 P3       9.9005  13.2723  10.5609   P.3       1 RES1   0.0000
     5 N1       9.6661  16.2926  10.7321   N.1       1 RES1   0.0000
     6 N2       7.0656  16.3049  11.3347   N.1       1 RES1   0.0000
     7 N3       7.9082  15.0388   9.1833   N.1       1 RES1   0.0000
     8 C1       9.0569  13.0752  13.9608   C.3       1 RES1   0.0000
     9 H1       9.8339  12.9814  14.5338   H         1 RES1   0.0000
    10 H2       8.2725  12.9788  14.5234   H         1 RES1   0.0000
    11 C2      11.5501  13.9162  10.0894   C.ar      1 RES1   0.0000
    12 C3       9.5552  12.1770   9.1152   C.ar      1 RES1   0.0000
    13 C4      10.7658  15.4209  13.6000   C.ar      1 RES1   0.0000
    14 C5       5.6118  13.7864  12.9003   C.ar      1 RES1   0.0000
    15 C6      10.4079  17.1142  10.4755   C.1       1 RES1   0.0000
    16 C7      11.6253  14.6743   8.9287   C.ar      1 RES1   0.0000
    17 H3      10.8596  14.8086   8.4180   H         1 RES1   0.0000
    18 C8       5.5240  13.2415  14.1753   C.ar      1 RES1   0.0000
    19 H4       6.0978  12.5552  14.4289   H         1 RES1   0.0000
    20 C9       7.7325  15.2731   8.0806   C.1       1 RES1   0.0000
    21 C10      7.8073  17.0815  14.2743   C.ar      1 RES1   0.0000
    22 H5       7.9629  17.4322  13.4270   H         1 RES1   0.0000
    23 C11      8.1430  15.7535  14.5509   C.ar      1 RES1   0.0000
    24 C12      5.0767  13.3585   9.4384   C.ar      1 RES1   0.0000
    25 H6       5.2773  14.2664   9.4164   H         1 RES1   0.0000
    26 C13      5.6670  12.5445  10.4082   C.ar      1 RES1   0.0000
    27 C14      7.6739  11.7460  12.2865   C.3       1 RES1   0.0000
    28 H7       7.0787  11.3328  12.9316   H         1 RES1   0.0000
    29 H8       7.7719  11.1237  11.5487   H         1 RES1   0.0000
    30 C15      7.3261  16.0512  16.7965   C.ar      1 RES1   0.0000
    31 H9       7.1572  15.7044  17.6427   H         1 RES1   0.0000
    32 C16      6.3391  17.1818  11.3347   C.1       1 RES1   0.0000
    33 C17     12.8264  15.2333   8.5208   C.ar      1 RES1   0.0000
    34 H10     12.8597  15.7326   7.7369   H         1 RES1   0.0000
    35 C18      8.2847  12.0401   8.5782   C.ar      1 RES1   0.0000
    36 H11      7.5890  12.5526   8.9239   H         1 RES1   0.0000
    37 C19      9.0654  11.9081  12.9595   C.3       1 RES1   0.0000
    38 C20     10.1871  12.0386  11.9061   C.3       1 RES1   0.0000
    39 H12     10.3226  11.1693  11.4974   H         1 RES1   0.0000
    40 H13     11.0087  12.2744  12.3647   H         1 RES1   0.0000
    41 C21      4.6931  14.7735  12.5185   C.ar      1 RES1   0.0000
    42 H14      4.7047  15.1031  11.6489   H         1 RES1   0.0000
    43 C22      8.0207  11.1561   7.5355   C.ar      1 RES1   0.0000
    44 H15      7.1527  11.0647   7.2116   H         1 RES1   0.0000
    45 C23      7.8957  15.2443  15.8276   C.ar      1 RES1   0.0000
    46 H16      8.1150  14.3626  16.0266   H         1 RES1   0.0000
    47 C24      9.3462  10.6204  13.7616   C.3       1 RES1   0.0000
    48 H17     10.2283  10.6617  14.1357   H         1 RES1   0.0000
    49 H18      8.7023  10.5365  14.4683   H         1 RES1   0.0000
    50 H19      9.2810   9.8601  13.1793   H         1 RES1   0.0000
    51 C25      5.3238  11.1860  10.4444   C.ar      1 RES1   0.0000
    52 H20      5.6873  10.6331  11.0980   H         1 RES1   0.0000
    53 C26      9.0420  10.4169   6.9837   C.ar      1 RES1   0.0000
    54 H21      8.8741   9.8307   6.2815   H         1 RES1   0.0000
    55 C27     12.2658  17.3174  13.6927   C.ar      1 RES1   0.0000
    56 H22     12.4067  18.2347  13.6303   H         1 RES1   0.0000
    57 C28     13.3320  16.4725  13.9717   C.ar      1 RES1   0.0000
    58 H23     14.1864  16.8206  14.0913   H         1 RES1   0.0000
    59 C29      3.7244  14.7425  14.7158   C.ar      1 RES1   0.0000
    60 H24      3.1215  15.0844  15.3376   H         1 RES1   0.0000
    61 C30     10.9942  16.7993  13.5068   C.ar      1 RES1   0.0000
    62 H25     10.2861  17.3720  13.3183   H         1 RES1   0.0000
    63 C31     10.5830  11.4177   8.5465   C.ar      1 RES1   0.0000
    64 H26     11.4483  11.4887   8.8796   H         1 RES1   0.0000
    65 C32     12.7098  13.7223  10.8169   C.ar      1 RES1   0.0000
    66 H27     12.6912  13.2084  11.5915   H         1 RES1   0.0000
    67 C33      7.0076  17.3602  16.5214   C.ar      1 RES1   0.0000
    68 H28      6.6339  17.8976  17.1818   H         1 RES1   0.0000
    69 C34      4.4404  10.6624   9.5053   C.ar      1 RES1   0.0000
    70 H29      4.2211   9.7590   9.5322   H         1 RES1   0.0000
    71 C35     13.9619  15.0582   9.2607   C.ar      1 RES1   0.0000
    72 H30     14.7622  15.4525   8.9954   H         1 RES1   0.0000
    73 C36     11.4022  18.1323  10.1730   C.3       1 RES1   0.0000
    74 H31     11.4348  18.2758   9.2251   H         1 RES1   0.0000
    75 H32     11.1660  18.9522  10.6131   H         1 RES1   0.0000
    76 H33     12.2638  17.8404  10.4824   H         1 RES1   0.0000
    77 C37     11.8374  14.5930  13.9012   C.ar      1 RES1   0.0000
    78 H34     11.7001  13.6776  13.9915   H         1 RES1   0.0000
    79 C38      4.5733  13.7260  15.0740   C.ar      1 RES1   0.0000
    80 H35      4.5152  13.3542  15.9248   H         1 RES1   0.0000
    81 C39      5.3875  18.2784  11.3794   C.3       1 RES1   0.0000
    82 H36      4.7132  18.1450  10.7101   H         1 RES1   0.0000
    83 H37      4.9754  18.3076  12.2467   H         1 RES1   0.0000
    84 H38      5.8448  19.1054  11.2151   H         1 RES1   0.0000
    85 C40      3.7663  15.2632  13.4288   C.ar      1 RES1   0.0000
    86 H39      3.1752  15.9361  13.1773   H         1 RES1   0.0000
    87 C41      7.5090  15.5104   6.6643   C.3       1 RES1   0.0000
    88 H40      8.1266  14.9854   6.1507   H         1 RES1   0.0000
    89 H41      6.6104  15.2600   6.4352   H         1 RES1   0.0000
    90 H42      7.6408  16.4409   6.4708   H         1 RES1   0.0000
    91 C42     13.1172  15.1182  14.0699   C.ar      1 RES1   0.0000
    92 H43     13.8307  14.5491  14.2501   H         1 RES1   0.0000
    93 C43      7.2456  17.8763  15.2578   C.ar      1 RES1   0.0000
    94 H44      7.0261  18.7603  15.0698   H         1 RES1   0.0000
    95 C44     10.3191  10.5589   7.4884   C.ar      1 RES1   0.0000
    96 H45     11.0152  10.0701   7.1126   H         1 RES1   0.0000
    97 C45      3.8858  11.4743   8.5321   C.ar      1 RES1   0.0000
    98 H46      3.3098  11.1148   7.8965   H         1 RES1   0.0000
    99 C46     13.9085  14.2959  10.3914   C.ar      1 RES1   0.0000
   100 H47     14.6824  14.1576  10.8864   H         1 RES1   0.0000
   101 C47      4.1945  12.8276   8.5065   C.ar      1 RES1   0.0000
   102 H48      3.8082  13.3796   7.8648   H         1 RES1   0.0000
   103 F1       2.9003   1.7491  12.5429   F         2 RES2   0.0000
   104 F2       3.5741   0.5869  14.3317   F         2 RES2   0.0000
   105 F3       1.3669   1.0591  14.0862   F         2 RES2   0.0000
   106 F4       2.3764  -0.4238  12.7522   F         2 RES2   0.0000
   107 B1       2.5417   0.7680  13.4466   B         2 RES2  -1.0000
   108 F5       3.8718  16.4148   9.0338   F         3 RES3   0.0000
   109 F6       4.2854  15.7290   6.9237   F         3 RES3   0.0000
   110 B2       3.9917  16.8100   7.7084   B         3 RES3  -1.0000
   111 F7       2.7932  17.3266   7.3272   F         3 RES3   0.0000
   112 F8       4.9222  17.7489   7.6054   F         3 RES3   0.0000
   113 C48      1.2606  11.6305  13.0569   C.1       4 RES4   0.0000
   114 N4       0.1594  11.5414  13.3630   N.1       4 RES4   0.0000
   115 C49      2.6140  11.7659  12.6486   C.3       4 RES4   0.0000
   116 H49      2.7284  11.3661  11.7833   H         4 RES4   0.0000
   117 H50      2.8442  12.6965  12.6031   H         4 RES4   0.0000
   118 H51      3.1859  11.3268  13.2822   H         4 RES4   0.0000
@<TRIPOS>BOND
     1     1     2    1
     2     2    14    1
     3     3     1    1
     4     4     1    1
     5     5     1    1
     6     6     1    1
     7     7     1    1
     8     8     3    1
     9     9     8    1
    10    10     8    1
    11    11     4    1
    12    12     4    1
    13    13     3    1
    14    14    18   ar
    15    15     5    3
    16    16    11   ar
    17    17    16    1
    18    18    19    1
    19    20     7    3
    20    21    22    1
    21    23     3    1
    22    24    25    1
    23    26     2    1
    24    27     2    1
    25    28    27    1
    26    29    27    1
    27    30    31    1
    28    32     6    3
    29    33    16   ar
    30    34    33    1
    31    35    12   ar
    32    36    35    1
    33    37     8    1
    34    38     4    1
    35    39    38    1
    36    40    38    1
    37    41    14   ar
    38    42    41    1
    39    43    35   ar
    40    44    43    1
    41    45    23   ar
    42    46    45    1
    43    47    37    1
    44    48    47    1
    45    49    47    1
    46    50    47    1
    47    51    26   ar
    48    52    51    1
    49    53    43   ar
    50    54    53    1
    51    55    56    1
    52    57    55   ar
    53    58    57    1
    54    59    60    1
    55    61    13   ar
    56    62    61    1
    57    63    12   ar
    58    64    63    1
    59    65    11   ar
    60    66    65    1
    61    67    30   ar
    62    68    67    1
    63    69    51   ar
    64    70    69    1
    65    71    33   ar
    66    72    71    1
    67    73    15    1
    68    74    73    1
    69    75    73    1
    70    76    73    1
    71    77    13   ar
    72    78    77    1
    73    79    18   ar
    74    80    79    1
    75    81    32    1
    76    82    81    1
    77    83    81    1
    78    84    81    1
    79    85    41   ar
    80    86    85    1
    81    87    20    1
    82    88    87    1
    83    89    87    1
    84    90    87    1
    85    91    57   ar
    86    92    91    1
    87    93    21   ar
    88    94    93    1
    89    95    53   ar
    90    96    95    1
    91    97    69   ar
    92    98    97    1
    93    99    65   ar
    94   100    99    1
    95   101    24   ar
    96   102   101    1
    97    21    23   ar
    98    24    26   ar
    99    27    37    1
   100    30    45   ar
   101    37    38    1
   102    55    61   ar
   103    59    79   ar
   104    59    85   ar
   105    63    95   ar
   106    67    93   ar
   107    71    99   ar
   108    77    91   ar
   109    97   101   ar
   110   103   107    1
   111   104   107    1
   112   105   107    1
   113   106   107    1
   114   108   110    1
   115   109   110    1
   116   110   111    1
   117   112   110    1
   118   113   114    3
   119   115   113    1
   120   116   115    1
   121   117   115    1
   122   118   115    1
@<TRIPOS>SUBSTRUCTURE
     1 RES1        1 GROUP             0 ****  ****    0  
     2 RES2      103 GROUP             0 ****  ****    0  
     3 RES3      108 GROUP             0 ****  ****    0  
     4 RES4      113 GROUP             0 ****  ****    0  
@<TRIPOS>CRYSIN
   13.3520   18.6850   19.8020   90.0000   90.6790   90.0000   231     1
