@<TRIPOS>MOLECULE
TAMSOQ01
   102   112     2     0     0
SMALL
USER_CHARGES
****
Generated from the CSD

@<TRIPOS>ATOM
     1 Fe1     12.5383  12.5170   5.8009   Fe        1 RES1   1.0000
     2 O1      11.8523  14.2438   6.2940   O.3       1 RES1   0.0000
     3 O2      10.7555  11.8810   6.2325   O.3       1 RES1   0.0000
     4 O3       5.8694  12.7174   7.1090   O.2       1 RES1   0.0000
     5 O4       5.9183  14.6120   8.1281   O.2       1 RES1   0.0000
     6 O5       8.0564  17.1753   8.1227   O.2       1 RES1   0.0000
     7 O6       6.8045  16.6715   6.4846   O.2       1 RES1   0.0000
     8 N1      12.1317  12.5086   3.7088   N.ar      1 RES1   0.0000
     9 N2      14.3831  13.3700   5.2178   N.ar      1 RES1   0.0000
    10 N3      13.4689  11.7712   7.5414   N.ar      1 RES1   0.0000
    11 N4      13.5438  10.7074   5.1119   N.3       1 RES1   0.0000
    12 N5       6.4396  13.7459   7.4571   N.pl3     1 RES1   0.0000
    13 N6       7.7000  16.4229   7.2399   N.pl3     1 RES1   0.0000
    14 C1      11.7578  13.5808   3.0000   C.ar      1 RES1   0.0000
    15 H1      11.5950  14.3808   3.4468   H         1 RES1   0.0000
    16 C2      11.6064  13.5392   1.6418   C.ar      1 RES1   0.0000
    17 H2      11.3355  14.2950   1.1717   H         1 RES1   0.0000
    18 C3      11.8620  12.3738   0.9887   C.ar      1 RES1   0.0000
    19 H3      11.7659  12.3260   0.0646   H         1 RES1   0.0000
    20 C4      12.2623  11.2579   1.7010   C.ar      1 RES1   0.0000
    21 H4      12.4451  10.4558   1.2686   H         1 RES1   0.0000
    22 C5      12.3850  11.3647   3.0646   C.ar      1 RES1   0.0000
    23 C6      12.7603  10.2127   3.9564   C.3       1 RES1   0.0000
    24 H5      11.9581   9.7678   4.2722   H         1 RES1   0.0000
    25 H6      13.2869   9.5690   3.4558   H         1 RES1   0.0000
    26 C7      14.9490  11.0440   4.7351   C.3       1 RES1   0.0000
    27 H7      15.1514  10.6185   3.8864   H         1 RES1   0.0000
    28 H8      15.5462  10.6703   5.4008   H         1 RES1   0.0000
    29 C8      15.2302  12.5189   4.6113   C.ar      1 RES1   0.0000
    30 C9      16.3689  12.9713   3.9815   C.ar      1 RES1   0.0000
    31 H9      16.9402  12.3783   3.5491   H         1 RES1   0.0000
    32 C10     16.6395  14.3154   4.0048   C.ar      1 RES1   0.0000
    33 H10     17.4097  14.6366   3.5958   H         1 RES1   0.0000
    34 C11     15.7848  15.1916   4.6275   C.ar      1 RES1   0.0000
    35 H11     15.9635  16.1040   4.6454   H         1 RES1   0.0000
    36 C12     14.6707  14.6833   5.2160   C.ar      1 RES1   0.0000
    37 H12     14.0808  15.2689   5.6341   H         1 RES1   0.0000
    38 C13     13.5397   9.7579   6.2549   C.3       1 RES1   0.0000
    39 H13     14.1890   9.0537   6.0988   H         1 RES1   0.0000
    40 H14     12.6640   9.3490   6.3374   H         1 RES1   0.0000
    41 C14     13.8772  10.4850   7.5199   C.ar      1 RES1   0.0000
    42 C15     14.5334   9.9197   8.5982   C.ar      1 RES1   0.0000
    43 H15     14.8100   9.0324   8.5695   H         1 RES1   0.0000
    44 C16     14.7683  10.6861   9.7107   C.ar      1 RES1   0.0000
    45 H16     15.2086  10.3199  10.4427   H         1 RES1   0.0000
    46 C17     14.3600  11.9778   9.7430   C.ar      1 RES1   0.0000
    47 H17     14.5156  12.5029  10.4930   H         1 RES1   0.0000
    48 C18     13.7141  12.4989   8.6485   C.ar      1 RES1   0.0000
    49 H18     13.4345  13.3856   8.6718   H         1 RES1   0.0000
    50 C19     10.5489  14.1897   6.5420   C.ar      1 RES1   0.0000
    51 C20      9.7914  15.3120   6.8237   C.ar      1 RES1   0.0000
    52 H19     10.1867  16.1538   6.8398   H         1 RES1   0.0000
    53 C21      8.4394  15.1705   7.0821   C.ar      1 RES1   0.0000
    54 C22      7.8404  13.9069   7.0695   C.ar      1 RES1   0.0000
    55 C23      8.5894  12.7777   6.7806   C.ar      1 RES1   0.0000
    56 H20      8.1856  11.9399   6.7680   H         1 RES1   0.0000
    57 C24      9.9411  12.9044   6.5097   C.ar      1 RES1   0.0000
    58 C25      5.4465  12.0302  15.3412   C.ar      2 RES2   0.0000
    59 C26      5.5548  13.3376  15.8113   C.ar      2 RES2   0.0000
    60 H21      6.3817  13.7590  15.7574   H         2 RES2   0.0000
    61 C27      4.4942  14.0403  16.3549   C.ar      2 RES2   0.0000
    62 H22      4.6181  14.9107  16.6564   H         2 RES2   0.0000
    63 C28      3.2675  13.4541  16.4482   C.ar      2 RES2   0.0000
    64 H23      2.5547  13.9136  16.8304   H         2 RES2   0.0000
    65 C29      3.0969  12.1850  15.9745   C.ar      2 RES2   0.0000
    66 H24      2.2553  11.7907  16.0050   H         2 RES2   0.0000
    67 C30      4.1648  11.4820  15.4488   C.ar      2 RES2   0.0000
    68 H25      4.0247  10.6110  15.1545   H         2 RES2   0.0000
    69 C31      8.1457  11.8911  15.1456   C.ar      2 RES2   0.0000
    70 C32      8.4308  12.2194  16.4716   C.ar      2 RES2   0.0000
    71 H26      7.7982  12.0106  17.1211   H         2 RES2   0.0000
    72 C33      9.6082  12.8410  16.8753   C.ar      2 RES2   0.0000
    73 H27      9.7475  13.0399  17.7724   H         2 RES2   0.0000
    74 C34     10.5602  13.1594  15.9422   C.ar      2 RES2   0.0000
    75 H28     11.3522  13.5714  16.2024   H         2 RES2   0.0000
    76 C35     10.3370  12.8666  14.6360   C.ar      2 RES2   0.0000
    77 H29     10.9784  13.0818  13.9990   H         2 RES2   0.0000
    78 C36      9.1537  12.2461  14.2448   C.ar      2 RES2   0.0000
    79 H30      9.0283  12.0593  13.3423   H         2 RES2   0.0000
    80 C37      6.6277   9.6342  15.2586   C.ar      2 RES2   0.0000
    81 C38      7.3359   9.1570  16.3729   C.ar      2 RES2   0.0000
    82 H31      7.9602   9.7116  16.7820   H         2 RES2   0.0000
    83 C39      7.1312   7.8760  16.8842   C.ar      2 RES2   0.0000
    84 H32      7.5990   7.6112  17.6432   H         2 RES2   0.0000
    85 C40      6.2712   7.0091  16.3065   C.ar      2 RES2   0.0000
    86 H33      6.1383   6.1615  16.6653   H         2 RES2   0.0000
    87 C41      5.5994   7.4080  15.1797   C.ar      2 RES2   0.0000
    88 H34      5.0274   6.8162  14.7454   H         2 RES2   0.0000
    89 C42      5.7693   8.6909  14.6844   C.ar      2 RES2   0.0000
    90 H35      5.2869   8.9385  13.9290   H         2 RES2   0.0000
    91 C43      6.6416  11.2401  13.0750   C.ar      2 RES2   0.0000
    92 C44      7.1539  10.2404  12.2460   C.ar      2 RES2   0.0000
    93 H36      7.4057   9.4321  12.6300   H         2 RES2   0.0000
    94 C45      7.3039  10.3980  10.8806   C.ar      2 RES2   0.0000
    95 H37      7.6730   9.7138  10.3710   H         2 RES2   0.0000
    96 C46      6.9074  11.5633  10.2795   C.ar      2 RES2   0.0000
    97 H38      7.0120  11.6787   9.3626   H         2 RES2   0.0000
    98 C47      6.3488  12.5642  11.0510   C.ar      2 RES2   0.0000
    99 H39      6.0582  13.3526  10.6527   H         2 RES2   0.0000
   100 C48      6.2245  12.3911  12.4129   C.ar      2 RES2   0.0000
   101 H40      5.8441  13.0760  12.9135   H         2 RES2   0.0000
   102 B1       6.7230  11.1791  14.7078   B         2 RES2  -1.0000
@<TRIPOS>BOND
     1     1     2    1
     2     2    50    1
     3     3     1    1
     4     4    12    2
     5     5    12    2
     6     6    13    2
     7     7    13    2
     8     8     1    1
     9     9     1    1
    10    10     1    1
    11    11     1    1
    12    12    54    1
    13    13    53    1
    14    14     8   ar
    15    15    14    1
    16    16    14   ar
    17    17    16    1
    18    18    16   ar
    19    19    18    1
    20    20    18   ar
    21    21    20    1
    22    22     8   ar
    23    23    11    1
    24    24    23    1
    25    25    23    1
    26    26    11    1
    27    27    26    1
    28    28    26    1
    29    29     9   ar
    30    30    29   ar
    31    31    30    1
    32    32    30   ar
    33    33    32    1
    34    34    32   ar
    35    35    34    1
    36    36     9   ar
    37    37    36    1
    38    38    11    1
    39    39    38    1
    40    40    38    1
    41    41    10   ar
    42    42    41   ar
    43    43    42    1
    44    44    42   ar
    45    45    44    1
    46    46    44   ar
    47    47    46    1
    48    48    10   ar
    49    49    48    1
    50    50    51   ar
    51    51    52    1
    52    53    51   ar
    53    54    53   ar
    54    55    54   ar
    55    56    55    1
    56    57     3    1
    57    20    22   ar
    58    22    23    1
    59    26    29    1
    60    34    36   ar
    61    38    41    1
    62    46    48   ar
    63    50    57   ar
    64    55    57   ar
    65    58    59   ar
    66    59    60    1
    67    61    59   ar
    68    62    61    1
    69    63    61   ar
    70    64    63    1
    71    65    63   ar
    72    66    65    1
    73    67    58   ar
    74    68    67    1
    75    69    70   ar
    76    70    71    1
    77    72    70   ar
    78    73    72    1
    79    74    72   ar
    80    75    74    1
    81    76    74   ar
    82    77    76    1
    83    78    69   ar
    84    79    78    1
    85    80    81   ar
    86    81    82    1
    87    83    81   ar
    88    84    83    1
    89    85    83   ar
    90    86    85    1
    91    87    85   ar
    92    88    87    1
    93    89    80   ar
    94    90    89    1
    95    91    92   ar
    96    92    93    1
    97    94    92   ar
    98    95    94    1
    99    96    94   ar
   100    97    96    1
   101    98    96   ar
   102    99    98    1
   103   100    91   ar
   104   101   100    1
   105   102    58    1
   106    65    67   ar
   107    69   102    1
   108    76    78   ar
   109    80   102    1
   110    87    89   ar
   111    91   102    1
   112    98   100   ar
@<TRIPOS>SUBSTRUCTURE
     1 RES1        1 GROUP             0 ****  ****    0  
     2 RES2       58 GROUP             0 ****  ****    0  
@<TRIPOS>CRYSIN
   11.2090   11.5770   18.5630   88.1700   75.8100   65.8600     2     1
