@<TRIPOS>MOLECULE
TAMTAD
   108   117     3     0     0
SMALL
USER_CHARGES
****
Generated from the CSD

@<TRIPOS>ATOM
     1 Fe1      3.3104   4.4373   2.4825   Fe        1 RES1   1.0000
     2 Cl1     -1.1054   5.6148   0.7540   Cl        1 RES1   0.0000
     3 Cl2     -1.6657   4.1878  -2.0035   Cl        1 RES1   0.0000
     4 Cl3      0.5156   2.3590  -3.2585   Cl        1 RES1   0.0000
     5 Cl4      3.2464   1.9579  -1.7533   Cl        1 RES1   0.0000
     6 O1       1.6018   5.0236   1.8290   O.3       1 RES1   0.0000
     7 O2       3.4254   3.4990   0.7794   O.3       1 RES1   0.0000
     8 N1       5.1065   3.8618   3.5974   N.3       1 RES1   0.0000
     9 N2       2.7304   2.6704   3.4823   N.ar      1 RES1   0.0000
    10 N3       3.1147   5.6937   4.1791   N.ar      1 RES1   0.0000
    11 N4       4.7256   5.9328   1.9072   N.ar      1 RES1   0.0000
    12 C1       5.0991   2.3693   3.6403   C.3       1 RES1   0.0000
    13 H1       5.4128   2.0181   2.7929   H         1 RES1   0.0000
    14 H2       5.7028   2.0624   4.3355   H         1 RES1   0.0000
    15 C2       3.7314   1.8608   3.9119   C.ar      1 RES1   0.0000
    16 C3       3.4556   0.6814   4.5201   C.ar      1 RES1   0.0000
    17 H3       4.1483   0.1457   4.8330   H         1 RES1   0.0000
    18 C4       2.1611   0.2826   4.6736   C.ar      1 RES1   0.0000
    19 H4       1.9742  -0.5363   5.0721   H         1 RES1   0.0000
    20 C5       1.1376   1.0776   4.2470   C.ar      1 RES1   0.0000
    21 H5       0.2500   0.8195   4.3518   H         1 RES1   0.0000
    22 C6       1.4663   2.2776   3.6550   C.ar      1 RES1   0.0000
    23 H6       0.7818   2.8361   3.3642   H         1 RES1   0.0000
    24 C7       4.9827   4.3975   4.9688   C.3       1 RES1   0.0000
    25 H7       5.8682   4.6113   5.3039   H         1 RES1   0.0000
    26 H8       4.6082   3.7105   5.5416   H         1 RES1   0.0000
    27 C8       4.1139   5.6369   5.0530   C.ar      1 RES1   0.0000
    28 C9       4.3067   6.6044   6.0066   C.ar      1 RES1   0.0000
    29 H9       5.0130   6.5398   6.6088   H         1 RES1   0.0000
    30 C10      3.4538   7.6558   6.0612   C.ar      1 RES1   0.0000
    31 H10      3.5693   8.3228   6.7004   H         1 RES1   0.0000
    32 C11      2.3961   7.7288   5.1460   C.ar      1 RES1   0.0000
    33 H11      1.7986   8.4420   5.1637   H         1 RES1   0.0000
    34 C12      2.2618   6.7286   4.2248   C.ar      1 RES1   0.0000
    35 H12      1.5611   6.7659   3.6152   H         1 RES1   0.0000
    36 C13      6.2852   4.4047   2.9243   C.3       1 RES1   0.0000
    37 H13      6.5560   3.8058   2.2113   H         1 RES1   0.0000
    38 H14      7.0169   4.4711   3.5576   H         1 RES1   0.0000
    39 C14      5.9944   5.7614   2.3545   C.ar      1 RES1   0.0000
    40 C15      6.9365   6.7529   2.2733   C.ar      1 RES1   0.0000
    41 H15      7.7989   6.6217   2.5951   H         1 RES1   0.0000
    42 C16      6.5721   7.9340   1.7065   C.ar      1 RES1   0.0000
    43 H16      7.1951   8.6213   1.6356   H         1 RES1   0.0000
    44 C17      5.2853   8.1246   1.2356   C.ar      1 RES1   0.0000
    45 H17      5.0391   8.9325   0.8444   H         1 RES1   0.0000
    46 C18      4.3840   7.1066   1.3537   C.ar      1 RES1   0.0000
    47 H18      3.5160   7.2291   1.0451   H         1 RES1   0.0000
    48 C19      1.2868   4.4449   0.6790   C.ar      1 RES1   0.0000
    49 C20      0.0843   4.6073   0.0177   C.ar      1 RES1   0.0000
    50 C21     -0.1609   3.9783  -1.1957   C.ar      1 RES1   0.0000
    51 C22      0.8134   3.1516  -1.7537   C.ar      1 RES1   0.0000
    52 C23      2.0265   2.9679  -1.0968   C.ar      1 RES1   0.0000
    53 C24      2.2890   3.6085   0.0960   C.ar      1 RES1   0.0000
    54 C25      3.8868  10.1424   8.9427   C.ar      2 RES2   0.0000
    55 C26      2.9690   9.6226   9.8491   C.ar      2 RES2   0.0000
    56 H19      2.2081  10.1194  10.0483   H         2 RES2   0.0000
    57 C27      3.1423   8.3921  10.4705   C.ar      2 RES2   0.0000
    58 H20      2.5019   8.0691  11.0625   H         2 RES2   0.0000
    59 C28      4.2753   7.6539  10.2004   C.ar      2 RES2   0.0000
    60 H21      4.3985   6.8227  10.5989   H         2 RES2   0.0000
    61 C29      5.2191   8.1502   9.3412   C.ar      2 RES2   0.0000
    62 H22      6.0009   7.6731   9.1774   H         2 RES2   0.0000
    63 C30      5.0023   9.3666   8.7168   C.ar      2 RES2   0.0000
    64 H23      5.6404   9.6759   8.1160   H         2 RES2   0.0000
    65 C31      2.0079  11.6942   7.7913   C.ar      2 RES2   0.0000
    66 C32      1.3035  12.9060   7.8252   C.ar      2 RES2   0.0000
    67 H24      1.7362  13.6611   8.1544   H         2 RES2   0.0000
    68 C33     -0.0019  13.0305   7.3912   C.ar      2 RES2   0.0000
    69 H25     -0.4392  13.8478   7.4665   H         2 RES2   0.0000
    70 C34     -0.6557  11.9539   6.8495   C.ar      2 RES2   0.0000
    71 H26     -1.5189  12.0446   6.5144   H         2 RES2   0.0000
    72 C35     -0.0197  10.7454   6.8111   C.ar      2 RES2   0.0000
    73 H27     -0.4569  10.0055   6.4583   H         2 RES2   0.0000
    74 C36      1.2561  10.6159   7.2879   C.ar      2 RES2   0.0000
    75 H28      1.6455   9.7717   7.2790   H         2 RES2   0.0000
    76 C37      4.4495  11.4068   6.5468   C.ar      2 RES2   0.0000
    77 C38      3.8280  10.9511   5.4294   C.ar      2 RES2   0.0000
    78 H29      2.9128  10.7866   5.4500   H         2 RES2   0.0000
    79 C39      4.5406  10.7234   4.2470   C.ar      2 RES2   0.0000
    80 H30      4.0947  10.4037   3.4971   H         2 RES2   0.0000
    81 C40      5.8896  10.9678   4.1820   C.ar      2 RES2   0.0000
    82 H31      6.3758  10.7617   3.4173   H         2 RES2   0.0000
    83 C41      6.5107  11.5343   5.2921   C.ar      2 RES2   0.0000
    84 H32      7.3867  11.8400   5.2345   H         2 RES2   0.0000
    85 C42      5.8276  11.6352   6.4597   C.ar      2 RES2   0.0000
    86 H33      6.2927  11.8657   7.2318   H         2 RES2   0.0000
    87 C43      4.1262  12.8388   8.9117   C.ar      2 RES2   0.0000
    88 C44      3.8252  12.8775  10.2683   C.ar      2 RES2   0.0000
    89 H34      3.4554  12.1327  10.6846   H         2 RES2   0.0000
    90 C45      4.0774  14.0292  11.0034   C.ar      2 RES2   0.0000
    91 H35      3.8752  14.0561  11.9113   H         2 RES2   0.0000
    92 C46      4.6307  15.1436  10.3820   C.ar      2 RES2   0.0000
    93 H36      4.7982  15.9140  10.8735   H         2 RES2   0.0000
    94 C47      4.9317  15.1049   9.0253   C.ar      2 RES2   0.0000
    95 H37      5.3016  15.8501   8.6105   H         2 RES2   0.0000
    96 C48      4.6796  13.9521   8.2917   C.ar      2 RES2   0.0000
    97 H38      4.8818  13.9253   7.3838   H         2 RES2   0.0000
    98 B1       3.6063  11.5541   8.1574   B         2 RES2  -1.0000
    99 O3       1.9931  -0.7476   0.5211   O.2       3 RES3   0.0000
   100 C49      3.1395  -1.1690   0.2834   C.2       3 RES3   0.0000
   101 C50      3.6163  -2.3825  -0.4133   C.3       3 RES3   0.0000
   102 H39      2.8940  -2.7444  -0.9374   H         3 RES3   0.0000
   103 H40      4.3465  -2.1563  -0.9890   H         3 RES3   0.0000
   104 H41      3.8997  -3.0342   0.2303   H         3 RES3   0.0000
   105 C51      4.3486  -0.7300   1.0924   C.3       3 RES3   0.0000
   106 H42      5.0970  -0.5945   0.4975   H         3 RES3   0.0000
   107 H43      4.5716  -1.4008   1.7360   H         3 RES3   0.0000
   108 H44      4.1524   0.0973   1.5411   H         3 RES3   0.0000
@<TRIPOS>BOND
     1     1     6    1
     2     2    49    1
     3     3    50    1
     4     4    51    1
     5     5    52    1
     6     6    48    1
     7     7     1    1
     8     8     1    1
     9     9     1    1
    10    10     1    1
    11    11     1    1
    12    12     8    1
    13    13    12    1
    14    14    12    1
    15    15     9   ar
    16    16    15   ar
    17    17    16    1
    18    18    16   ar
    19    19    18    1
    20    20    18   ar
    21    21    20    1
    22    22     9   ar
    23    23    22    1
    24    24     8    1
    25    25    24    1
    26    26    24    1
    27    27    10   ar
    28    28    27   ar
    29    29    28    1
    30    30    28   ar
    31    31    30    1
    32    32    30   ar
    33    33    32    1
    34    34    10   ar
    35    35    34    1
    36    36     8    1
    37    37    36    1
    38    38    36    1
    39    39    11   ar
    40    40    39   ar
    41    41    40    1
    42    42    40   ar
    43    43    42    1
    44    44    42   ar
    45    45    44    1
    46    46    11   ar
    47    47    46    1
    48    48    49   ar
    49    49    50   ar
    50    50    51   ar
    51    51    52   ar
    52    52    53   ar
    53    53     7    1
    54    12    15    1
    55    20    22   ar
    56    24    27    1
    57    32    34   ar
    58    36    39    1
    59    44    46   ar
    60    48    53   ar
    61    54    55   ar
    62    55    56    1
    63    57    55   ar
    64    58    57    1
    65    59    57   ar
    66    60    59    1
    67    61    59   ar
    68    62    61    1
    69    63    54   ar
    70    64    63    1
    71    65    66   ar
    72    66    67    1
    73    68    66   ar
    74    69    68    1
    75    70    68   ar
    76    71    70    1
    77    72    70   ar
    78    73    72    1
    79    74    65   ar
    80    75    74    1
    81    76    77   ar
    82    77    78    1
    83    79    77   ar
    84    80    79    1
    85    81    79   ar
    86    82    81    1
    87    83    81   ar
    88    84    83    1
    89    85    76   ar
    90    86    85    1
    91    87    88   ar
    92    88    89    1
    93    90    88   ar
    94    91    90    1
    95    92    90   ar
    96    93    92    1
    97    94    92   ar
    98    95    94    1
    99    96    87   ar
   100    97    96    1
   101    98    54    1
   102    61    63   ar
   103    65    98    1
   104    72    74   ar
   105    76    98    1
   106    83    85   ar
   107    87    98    1
   108    94    96   ar
   109    99   100    2
   110   100   101    1
   111   101   102    1
   112   103   101    1
   113   104   101    1
   114   105   100    1
   115   106   105    1
   116   107   105    1
   117   108   105    1
@<TRIPOS>SUBSTRUCTURE
     1 RES1        1 GROUP             0 ****  ****    0  
     2 RES2       54 GROUP             0 ****  ****    0  
     3 RES3       99 GROUP             0 ****  ****    0  
@<TRIPOS>CRYSIN
   11.3250   13.6600   15.0520   80.3500   84.1000   89.2000     2     1
