@<TRIPOS>MOLECULE
TAQZET
    78    85     3     0     0
SMALL
USER_CHARGES
****
Generated from the CSD

@<TRIPOS>ATOM
     1 I1       6.2364  10.7262   1.4793   I         1 RES1   0.0000
     2 I2       7.3707   3.3672  12.2466   I         1 RES1   0.0000
     3 Fe1     10.1873   5.7463   5.6150   Fe        1 RES1   1.0000
     4 O1       9.6526   6.4229   7.3079   O.3       1 RES1   0.0000
     5 O2       8.4940   5.9735   4.8091   O.3       1 RES1   0.0000
     6 N1      10.8038   7.5319   5.1762   N.2       1 RES1   0.0000
     7 N2       9.6229   3.9221   6.0083   N.2       1 RES1   0.0000
     8 N3      12.0065   5.5562   6.3497   N.ar      1 RES1   0.0000
     9 N4      10.8046   4.9471   3.9219   N.ar      1 RES1   0.0000
    10 C1      10.1338   8.4142   4.4946   C.2       1 RES1   0.0000
    11 H1      10.5345   9.2651   4.3674   H         1 RES1   0.0000
    12 C2      12.0991   7.8107   5.6461   C.ar      1 RES1   0.0000
    13 C3       7.0385   9.1505   2.5893   C.ar      1 RES1   0.0000
    14 C4       8.0946   6.9943   4.1030   C.ar      1 RES1   0.0000
    15 C5      12.7223   6.7264   6.2751   C.ar      1 RES1   0.0000
    16 C6       8.2802   9.2726   3.1681   C.ar      1 RES1   0.0000
    17 H2       8.7705  10.0798   3.0653   H         1 RES1   0.0000
    18 C7      11.4292   5.5249   2.9038   C.ar      1 RES1   0.0000
    19 H3      11.6817   6.4369   2.9821   H         1 RES1   0.0000
    20 C8       8.1551   4.3674  10.5886   C.ar      1 RES1   0.0000
    21 C9       9.8170   3.0282   4.9229   C.ar      1 RES1   0.0000
    22 C10     10.4516   3.6176   3.8106   C.ar      1 RES1   0.0000
    23 C11      9.6713   0.9592   3.6858   C.ar      1 RES1   0.0000
    24 H4       9.3911   0.0530   3.6417   H         1 RES1   0.0000
    25 C12     14.0856   9.1354   6.0793   C.ar      1 RES1   0.0000
    26 H5      14.5531   9.9592   6.0022   H         1 RES1   0.0000
    27 C13      9.4307   1.6977   4.8581   C.ar      1 RES1   0.0000
    28 H6       9.0053   1.2866   5.6021   H         1 RES1   0.0000
    29 C14     11.3729   3.5178   1.5798   C.ar      1 RES1   0.0000
    30 H7      11.5551   3.0495   0.7734   H         1 RES1   0.0000
    31 C15     14.0220   6.8271   6.8196   C.ar      1 RES1   0.0000
    32 C16     12.5396   4.4944   6.9261   C.ar      1 RES1   0.0000
    33 H8      12.0370   3.6886   6.9628   H         1 RES1   0.0000
    34 C17      8.8403   8.2007   3.9219   C.ar      1 RES1   0.0000
    35 C18      8.8891   4.3360   8.2746   C.ar      1 RES1   0.0000
    36 C19     14.6972   8.0672   6.7107   C.ar      1 RES1   0.0000
    37 H9      15.5701   8.1644   7.0717   H         1 RES1   0.0000
    38 C20      6.3044   7.9661   2.7313   C.ar      1 RES1   0.0000
    39 H10      5.4545   7.8800   2.3177   H         1 RES1   0.0000
    40 C21      6.8233   6.9300   3.4704   C.ar      1 RES1   0.0000
    41 H11      6.3094   6.1365   3.5634   H         1 RES1   0.0000
    42 C22     13.8339   4.5190   7.4878   C.ar      1 RES1   0.0000
    43 H12     14.1927   3.7461   7.9075   H         1 RES1   0.0000
    44 C23     10.7304   2.8702   2.6505   C.ar      1 RES1   0.0000
    45 C24     12.7897   9.0271   5.5494   C.ar      1 RES1   0.0000
    46 H13     12.3823   9.7746   5.1285   H         1 RES1   0.0000
    47 C25      8.4672   5.7209  10.6522   C.ar      1 RES1   0.0000
    48 H14      8.3312   6.1953  11.4635   H         1 RES1   0.0000
    49 C26     10.3052   1.5197   2.6003   C.ar      1 RES1   0.0000
    50 H15     10.4576   1.0020   1.8184   H         1 RES1   0.0000
    51 C27      8.3618   3.6837   9.4114   C.ar      1 RES1   0.0000
    52 H16      8.1470   2.7596   9.3637   H         1 RES1   0.0000
    53 C28      9.0702   3.5223   7.1047   C.2       1 RES1   0.0000
    54 H17      8.7627   2.6240   7.1415   H         1 RES1   0.0000
    55 C29     14.5723   5.6841   7.4180   C.ar      1 RES1   0.0000
    56 H18     15.4527   5.7116   7.7753   H         1 RES1   0.0000
    57 C30     11.7331   4.8389   1.7144   C.ar      1 RES1   0.0000
    58 H19     12.1834   5.2847   1.0083   H         1 RES1   0.0000
    59 C31      8.9734   6.3854   9.5534   C.ar      1 RES1   0.0000
    60 H20      9.1737   7.3110   9.6219   H         1 RES1   0.0000
    61 C32      9.1976   5.7206   8.3333   C.ar      1 RES1   0.0000
    62 S1      15.4867   5.8253   3.6801   S.o2      2 RES2   0.0000
    63 F1      15.9662   3.5776   2.3997   F         2 RES2   0.0000
    64 F2      14.9463   5.0522   1.2274   F         2 RES2   0.0000
    65 F3      17.0615   5.2694   1.6275   F         2 RES2   0.0000
    66 O3      14.1761   5.3589   4.0051   O.2       2 RES2   0.0000
    67 O4      16.5283   5.4234   4.5876   O.2       2 RES2   0.0000
    68 O5      15.5532   7.2071   3.2465   O.3       2 RES2  -1.0000
    69 C33     15.8827   4.8852   2.1415   C.3       2 RES2   0.0000
    70 O6      13.0443   8.5310   2.5844   O.3       3 RES3   0.0000
    71 H21     13.6909   8.1558   2.9674   H         3 RES3   0.0000
    72 C34     13.2494   8.5183   1.1980   C.3       3 RES3   0.0000
    73 H22     12.4402   8.8696   0.7501   H         3 RES3   0.0000
    74 H23     13.3753   7.5818   0.9006   H         3 RES3   0.0000
    75 C35     14.4282   9.3245   0.7673   C.3       3 RES3   0.0000
    76 H24     14.3533  10.2319   1.1295   H         3 RES3   0.0000
    77 H25     14.4564   9.3640  -0.2117   H         3 RES3   0.0000
    78 H26     15.2488   8.9061   1.1013   H         3 RES3   0.0000
@<TRIPOS>BOND
     1     1    13    1
     2     2    20    1
     3     3     4    1
     4     4    61    1
     5     5     3    1
     6     6     3    1
     7     7     3    1
     8     8     3    1
     9     9     3    1
    10    10     6    2
    11    11    10    1
    12    12     6    1
    13    13    16   ar
    14    14     5    1
    15    15     8   ar
    16    16    17    1
    17    18     9   ar
    18    19    18    1
    19    20    47   ar
    20    21     7    1
    21    22     9   ar
    22    23    24    1
    23    25    26    1
    24    27    21   ar
    25    28    27    1
    26    29    30    1
    27    31    15   ar
    28    32     8   ar
    29    33    32    1
    30    34    10    1
    31    35    51   ar
    32    36    25   ar
    33    37    36    1
    34    38    13   ar
    35    39    38    1
    36    40    14   ar
    37    41    40    1
    38    42    32   ar
    39    43    42    1
    40    44    22   ar
    41    45    12   ar
    42    46    45    1
    43    47    48    1
    44    49    23   ar
    45    50    49    1
    46    51    20   ar
    47    52    51    1
    48    53     7    2
    49    54    53    1
    50    55    31   ar
    51    56    55    1
    52    57    18   ar
    53    58    57    1
    54    59    47   ar
    55    60    59    1
    56    61    35   ar
    57    12    15   ar
    58    14    34   ar
    59    16    34   ar
    60    21    22   ar
    61    23    27   ar
    62    25    45   ar
    63    29    44   ar
    64    29    57   ar
    65    31    36   ar
    66    35    53    1
    67    38    40   ar
    68    42    55   ar
    69    44    49   ar
    70    59    61   ar
    71    62    66    2
    72    63    69    1
    73    64    69    1
    74    65    69    1
    75    67    62    2
    76    68    62    1
    77    69    62    1
    78    70    71    1
    79    72    70    1
    80    73    72    1
    81    74    72    1
    82    75    72    1
    83    76    75    1
    84    77    75    1
    85    78    75    1
@<TRIPOS>SUBSTRUCTURE
     1 RES1        1 GROUP             0 ****  ****    0  
     2 RES2       62 GROUP             0 ****  ****    0  
     3 RES3       70 GROUP             0 ****  ****    0  
@<TRIPOS>CRYSIN
   12.4300   12.3360   13.1830  111.8300   99.2300   66.0500     2     1
