@<TRIPOS>MOLECULE
TAQZET02
    78    85     3     0     0
SMALL
USER_CHARGES
****
Generated from the CSD

@<TRIPOS>ATOM
     1 I1       8.7561   5.4844  -6.0018   I         1 RES1   0.0000
     2 I2      13.5993  10.7151   5.9473   I         1 RES1   0.0000
     3 Fe1      8.3205   9.5463   0.4914   Fe        1 RES1   1.0000
     4 O1       9.7178   8.7256   1.5219   O.3       1 RES1   0.0000
     5 O2       9.1871   9.3476  -1.2129   O.3       1 RES1   0.0000
     6 N1       9.0782  11.4334   1.0821   N.2       1 RES1   0.0000
     7 N2       6.9882   9.3798   2.1655   N.ar      1 RES1   0.0000
     8 N3       6.9291  10.9251  -0.4000   N.ar      1 RES1   0.0000
     9 C1      10.7066  10.5870   2.6770   C.ar      1 RES1   0.0000
    10 N4       7.1401   7.8745   0.0038   N.2       1 RES1   0.0000
    11 C2       8.4548  12.5521   0.4757   C.ar      1 RES1   0.0000
    12 C3       7.2935  12.2377  -0.3116   C.ar      1 RES1   0.0000
    13 C4       8.9341   6.7707  -4.3027   C.ar      1 RES1   0.0000
    14 C5       5.8500  10.5849  -1.1475   C.ar      1 RES1   0.0000
    15 H1       5.6052   9.6827  -1.2359   H         1 RES1   0.0000
    16 C6       9.0937   8.5545  -2.1437   C.ar      1 RES1   0.0000
    17 C7       8.8528  13.8824   0.5731   C.ar      1 RES1   0.0000
    18 H2       9.6111  14.1047   1.0808   H         1 RES1   0.0000
    19 C8      10.5377   9.1975   2.4411   C.ar      1 RES1   0.0000
    20 C9       6.1290   7.5462   0.9513   C.ar      1 RES1   0.0000
    21 C10      8.1973   7.4257  -2.1309   C.ar      1 RES1   0.0000
    22 C11     10.0077  11.6069   1.9667   C.2       1 RES1   0.0000
    23 H3      10.2454  12.4961   2.1616   H         1 RES1   0.0000
    24 C12      6.0932   8.3529   2.0706   C.ar      1 RES1   0.0000
    25 C13      6.5797  13.2534  -0.9872   C.ar      1 RES1   0.0000
    26 C14      7.2908   7.1652  -1.0629   C.2       1 RES1   0.0000
    27 H4       6.7493   6.4016  -1.1436   H         1 RES1   0.0000
    28 C15      5.1555   8.1252   3.1270   C.ar      1 RES1   0.0000
    29 C16      9.9004   8.6938  -3.3053   C.ar      1 RES1   0.0000
    30 H5      10.5121   9.4067  -3.3489   H         1 RES1   0.0000
    31 C17      8.1337  14.8921  -0.0808   C.ar      1 RES1   0.0000
    32 H6       8.4126  15.7875  -0.0051   H         1 RES1   0.0000
    33 C18      5.4471  12.8960  -1.6988   C.ar      1 RES1   0.0000
    34 H7       4.9250  13.5572  -2.1155   H         1 RES1   0.0000
    35 C19      5.2048   6.5308   0.8180   C.ar      1 RES1   0.0000
    36 H8       5.2014   5.9957   0.0449   H         1 RES1   0.0000
    37 C20      4.2597   6.2928   1.8475   C.ar      1 RES1   0.0000
    38 H9       3.6420   5.5910   1.7539   H         1 RES1   0.0000
    39 C21      8.1369   6.5345  -3.2463   C.ar      1 RES1   0.0000
    40 H10      7.5536   5.7976  -3.2412   H         1 RES1   0.0000
    41 C22      6.0832   9.9962   4.3143   C.ar      1 RES1   0.0000
    42 H11      6.1108  10.5567   5.0682   H         1 RES1   0.0000
    43 C23      5.0896  11.5906  -1.7949   C.ar      1 RES1   0.0000
    44 H12      4.3310  11.3514  -2.2950   H         1 RES1   0.0000
    45 C24      6.9706  10.1871   3.2360   C.ar      1 RES1   0.0000
    46 H13      7.5730  10.9077   3.2694   H         1 RES1   0.0000
    47 C25     11.3254   8.2784   3.1886   C.ar      1 RES1   0.0000
    48 H14     11.2457   7.3555   3.0245   H         1 RES1   0.0000
    49 C26     12.1974   8.7233   4.1438   C.ar      1 RES1   0.0000
    50 H15     12.7039   8.1045   4.6386   H         1 RES1   0.0000
    51 C27      9.8201   7.8170  -4.3784   C.ar      1 RES1   0.0000
    52 H16     10.3586   7.9367  -5.1387   H         1 RES1   0.0000
    53 C28      5.1819   8.9737   4.2322   C.ar      1 RES1   0.0000
    54 H17      4.5694   8.8401   4.9335   H         1 RES1   0.0000
    55 C29     12.3379  10.0794   4.3861   C.ar      1 RES1   0.0000
    56 C30      7.0129  14.5819  -0.8372   C.ar      1 RES1   0.0000
    57 H18      6.5329  15.2741  -1.2565   H         1 RES1   0.0000
    58 C31     11.6326  10.9799   3.6668   C.ar      1 RES1   0.0000
    59 H19     11.7639  11.8962   3.8296   H         1 RES1   0.0000
    60 C32      4.2322   7.0620   2.9681   C.ar      1 RES1   0.0000
    61 H20      3.5985   6.8878   3.6399   H         1 RES1   0.0000
    62 S1      12.4675   4.3805   3.3533   S.o2      2 RES2   0.0000
    63 O3      11.5993   4.8695   2.3398   O.2       2 RES2   0.0000
    64 F1      10.6375   4.9273   5.1066   F         2 RES2   0.0000
    65 F2      11.9969   3.4377   5.7323   F         2 RES2   0.0000
    66 O4      13.2794   5.3461   3.9745   O.2       2 RES2   0.0000
    67 F3      10.4761   3.0202   4.2938   F         2 RES2   0.0000
    68 O5      13.1114   3.1574   2.9847   O.3       2 RES2  -1.0000
    69 C33     11.3303   3.8766   4.6630   C.3       2 RES2   0.0000
    70 C34      7.9373  13.2295   5.0207   C.3       3 RES3   0.0000
    71 H21      8.1815  12.3203   5.2912   H         3 RES3   0.0000
    72 H22      6.9774  13.3430   5.1823   H         3 RES3   0.0000
    73 O6       8.1919  13.3826   3.6501   O.3       3 RES3   0.0000
    74 H23      7.7890  14.0510   3.3668   H         3 RES3   0.0000
    75 C35      8.6905  14.2069   5.8592   C.3       3 RES3   0.0000
    76 H24      9.6394  14.0095   5.8118   H         3 RES3   0.0000
    77 H25      8.3917  14.1415   6.7798   H         3 RES3   0.0000
    78 H26      8.5309  15.1051   5.5310   H         3 RES3   0.0000
@<TRIPOS>BOND
     1     1    13    1
     2     2    55    1
     3     3     4    1
     4     4    19    1
     5     5     3    1
     6     6     3    1
     7     7     3    1
     8     8     3    1
     9     9    19   ar
    10    10     3    1
    11    11     6    1
    12    12     8   ar
    13    13    39   ar
    14    14     8   ar
    15    15    14    1
    16    16     5    1
    17    17    11   ar
    18    18    17    1
    19    19    47   ar
    20    20    10    1
    21    21    16   ar
    22    22     6    2
    23    23    22    1
    24    24     7   ar
    25    25    12   ar
    26    26    10    2
    27    27    26    1
    28    28    24   ar
    29    29    16   ar
    30    30    29    1
    31    31    17   ar
    32    32    31    1
    33    33    25   ar
    34    34    33    1
    35    35    20   ar
    36    36    35    1
    37    37    35   ar
    38    38    37    1
    39    39    21   ar
    40    40    39    1
    41    41    42    1
    42    43    14   ar
    43    44    43    1
    44    45     7   ar
    45    46    45    1
    46    47    48    1
    47    49    47   ar
    48    50    49    1
    49    51    13   ar
    50    52    51    1
    51    53    28   ar
    52    54    53    1
    53    55    49   ar
    54    56    25   ar
    55    57    56    1
    56    58     9   ar
    57    59    58    1
    58    60    28   ar
    59    61    60    1
    60     9    22    1
    61    11    12   ar
    62    20    24   ar
    63    21    26    1
    64    29    51   ar
    65    31    56   ar
    66    33    43   ar
    67    37    60   ar
    68    41    45   ar
    69    41    53   ar
    70    55    58   ar
    71    62    63    2
    72    64    69    1
    73    65    69    1
    74    66    62    2
    75    67    69    1
    76    68    62    1
    77    69    62    1
    78    70    71    1
    79    72    70    1
    80    73    70    1
    81    74    73    1
    82    75    70    1
    83    76    75    1
    84    77    75    1
    85    78    75    1
@<TRIPOS>SUBSTRUCTURE
     1 RES1        1 GROUP             0 ****  ****    0  
     2 RES2       62 GROUP             0 ****  ****    0  
     3 RES3       70 GROUP             0 ****  ****    0  
@<TRIPOS>CRYSIN
   11.5003   13.1342   13.5498   71.6520   87.4880   68.8580     2     1
