@<TRIPOS>MOLECULE
TAQZET03
    78    85     3     0     0
SMALL
USER_CHARGES
****
Generated from the CSD

@<TRIPOS>ATOM
     1 I1       9.3980   2.7602  18.9224   I         1 RES1   0.0000
     2 I2       4.5817  -2.4784   6.9456   I         1 RES1   0.0000
     3 Fe1      4.1431   1.5763  13.4486   Fe        1 RES1   1.0000
     4 N1       2.7669   2.9656  12.5242   N.ar      1 RES1   0.0000
     5 N2       2.7820   1.4420  15.1129   N.ar      1 RES1   0.0000
     6 C1       4.0109   6.8859  12.8353   C.ar      1 RES1   0.0000
     7 H1       4.3109   7.7635  12.9154   H         1 RES1   0.0000
     8 C2       0.9757  -1.4209  13.7004   C.ar      1 RES1   0.0000
     9 H2       0.9717  -1.9576  12.9399   H         1 RES1   0.0000
    10 O1       5.0299   1.3792  11.7753   O.3       1 RES1   0.0000
    11 O2       5.5232   0.7539  14.4880   O.3       1 RES1   0.0000
    12 C3       0.9371   0.1949  16.0180   C.ar      1 RES1   0.0000
    13 C4       4.7009   5.8821  13.4822   C.ar      1 RES1   0.0000
    14 H3       5.4591   6.0952  13.9767   H         1 RES1   0.0000
    15 C5       1.8841   0.4092  15.0135   C.ar      1 RES1   0.0000
    16 C6       3.9881  -1.4096   9.6862   C.ar      1 RES1   0.0000
    17 H4       3.4021  -2.1310   9.7056   H         1 RES1   0.0000
    18 C7       5.8306   3.6206  14.9102   C.2       1 RES1   0.0000
    19 H5       6.0667   4.5004  15.1000   H         1 RES1   0.0000
    20 N3       2.9370  -0.0975  12.9244   N.2       1 RES1   0.0000
    21 C8       1.9118  -0.4170  13.8424   C.ar      1 RES1   0.0000
    22 C9       3.1097  -0.8164  11.8502   C.2       1 RES1   0.0000
    23 H6       2.5834  -1.5788  11.7689   H         1 RES1   0.0000
    24 N4       4.9144   3.4558  14.0000   N.2       1 RES1   0.0000
    25 C10      7.1312   0.3282  16.1523   C.ar      1 RES1   0.0000
    26 H7       7.0375  -0.5853  16.0051   H         1 RES1   0.0000
    27 C11     -0.0217  -0.8704  15.8360   C.ar      1 RES1   0.0000
    28 H8      -0.6680  -1.0393  16.4828   H         1 RES1   0.0000
    29 C12      4.7602  -1.2467   8.5939   C.ar      1 RES1   0.0000
    30 C13      3.1460   4.2746  12.6184   C.ar      1 RES1   0.0000
    31 C14      4.8998   0.5376  10.8160   C.ar      1 RES1   0.0000
    32 C15      4.0179  -0.5529  10.7940   C.ar      1 RES1   0.0000
    33 C16      7.4226   3.0107  16.6559   C.ar      1 RES1   0.0000
    34 H9       7.5143   3.9167  16.8470   H         1 RES1   0.0000
    35 C17      2.7514   2.2105  16.2182   C.ar      1 RES1   0.0000
    36 H10      3.3715   2.8976  16.3060   H         1 RES1   0.0000
    37 C18      6.5097   2.6233  15.6462   C.ar      1 RES1   0.0000
    38 C19      1.3349   4.9333  11.1736   C.ar      1 RES1   0.0000
    39 H11      0.8652   5.5863  10.7062   H         1 RES1   0.0000
    40 C20      2.4379   5.2890  11.9483   C.ar      1 RES1   0.0000
    41 C21      5.6623  -0.1706   8.5836   C.ar      1 RES1   0.0000
    42 H12      6.2116  -0.0187   7.8489   H         1 RES1   0.0000
    43 C22      4.2928   4.5801  13.4086   C.ar      1 RES1   0.0000
    44 C23      1.6971   2.6642  11.8089   C.ar      1 RES1   0.0000
    45 H13      1.4244   1.7766  11.7689   H         1 RES1   0.0000
    46 C24      0.0363  -1.6208  14.7075   C.ar      1 RES1   0.0000
    47 H14     -0.5847  -2.3058  14.6003   H         1 RES1   0.0000
    48 C25      1.8424   2.0140  17.2098   C.ar      1 RES1   0.0000
    49 H15      1.8375   2.5846  17.9431   H         1 RES1   0.0000
    50 C26      8.0101   0.7707  17.0949   C.ar      1 RES1   0.0000
    51 H16      8.5178   0.1564  17.5752   H         1 RES1   0.0000
    52 C27      0.9638   1.0244  17.1478   C.ar      1 RES1   0.0000
    53 H17      0.3711   0.8814  17.8502   H         1 RES1   0.0000
    54 C28      8.1562   2.1384  17.3466   C.ar      1 RES1   0.0000
    55 C29      2.8904   6.6284  12.0749   C.ar      1 RES1   0.0000
    56 H18      2.4384   7.3214  11.6501   H         1 RES1   0.0000
    57 C30      5.7198   0.6610   9.6862   C.ar      1 RES1   0.0000
    58 H19      6.3457   1.3481   9.6785   H         1 RES1   0.0000
    59 C31      6.3562   1.2396  15.3944   C.ar      1 RES1   0.0000
    60 C32      0.9469   3.6386  11.1000   C.ar      1 RES1   0.0000
    61 H20      0.2041   3.3919  10.5965   H         1 RES1   0.0000
    62 S1       1.5375   8.6736  16.2905   S.o2      2 RES2   0.0000
    63 F1       1.0095   7.7493  18.6894   F         2 RES2   0.0000
    64 C33      0.4003   8.2067  17.6358   C.3       2 RES2   0.0000
    65 O3       2.3546   9.6312  16.9270   O.2       2 RES2   0.0000
    66 O4       0.6817   9.1902  15.3002   O.2       2 RES2   0.0000
    67 F2      -0.2886   9.2426  18.0503   F         2 RES2   0.0000
    68 O5       2.1555   7.4318  15.9367   O.3       2 RES2  -1.0000
    69 F3      -0.4914   7.3840  17.2007   F         2 RES2   0.0000
    70 O6       4.0157   5.4652  16.6275   O.3       3 RES3   0.0000
    71 H21      3.7857   6.2179  16.3963   H         3 RES3   0.0000
    72 C34      3.8310   5.3252  17.9909   C.3       3 RES3   0.0000
    73 H22      2.8898   5.4514  18.1885   H         3 RES3   0.0000
    74 H23      4.0630   4.4178  18.2414   H         3 RES3   0.0000
    75 C35      4.5603   6.1921  18.7721   C.3       3 RES3   0.0000
    76 H24      5.4948   5.9947  18.6817   H         3 RES3   0.0000
    77 H25      4.2994   6.0903  19.6901   H         3 RES3   0.0000
    78 H26      4.3933   7.0936  18.4893   H         3 RES3   0.0000
@<TRIPOS>BOND
     1     1    54    1
     2     2    29    1
     3     3     4    1
     4     4    30   ar
     5     5     3    1
     6     6     7    1
     7     8     9    1
     8    10     3    1
     9    11     3    1
    10    12    15   ar
    11    13     6   ar
    12    14    13    1
    13    15     5   ar
    14    16    17    1
    15    18    19    1
    16    20     3    1
    17    21     8   ar
    18    22    20    2
    19    23    22    1
    20    24     3    1
    21    25    26    1
    22    27    12   ar
    23    28    27    1
    24    29    16   ar
    25    30    40   ar
    26    31    10    1
    27    32    16   ar
    28    33    34    1
    29    35     5   ar
    30    36    35    1
    31    37    18    1
    32    38    39    1
    33    40    38   ar
    34    41    29   ar
    35    42    41    1
    36    43    13   ar
    37    44     4   ar
    38    45    44    1
    39    46     8   ar
    40    47    46    1
    41    48    35   ar
    42    49    48    1
    43    50    25   ar
    44    51    50    1
    45    52    12   ar
    46    53    52    1
    47    54    33   ar
    48    55     6   ar
    49    56    55    1
    50    57    31   ar
    51    58    57    1
    52    59    11    1
    53    60    38   ar
    54    61    60    1
    55    15    21   ar
    56    18    24    2
    57    20    21    1
    58    22    32    1
    59    24    43    1
    60    25    59   ar
    61    27    46   ar
    62    30    43   ar
    63    31    32   ar
    64    33    37   ar
    65    37    59   ar
    66    40    55   ar
    67    41    57   ar
    68    44    60   ar
    69    48    52   ar
    70    50    54   ar
    71    62    64    1
    72    63    64    1
    73    64    67    1
    74    65    62    2
    75    66    62    2
    76    68    62    1
    77    69    64    1
    78    70    71    1
    79    72    70    1
    80    73    72    1
    81    74    72    1
    82    75    72    1
    83    76    75    1
    84    77    75    1
    85    78    75    1
@<TRIPOS>SUBSTRUCTURE
     1 RES1        1 GROUP             0 ****  ****    0  
     2 RES2       62 GROUP             0 ****  ****    0  
     3 RES3       70 GROUP             0 ****  ****    0  
@<TRIPOS>CRYSIN
   11.5289   13.1814   13.6233   71.9470   87.6440   68.8710     2     1
