@<TRIPOS>MOLECULE
TAQZET01
    78    85     3     0     0
SMALL
USER_CHARGES
****
Generated from the CSD

@<TRIPOS>ATOM
     1 I1      12.1343  -0.6440  -6.0206   I         1 RES1   0.0000
     2 I2      16.9878   4.5875   5.8675   I         1 RES1   0.0000
     3 Fe1     11.6836   3.4223   0.4625   Fe        1 RES1   1.0000
     4 N1      10.2672   4.7678  -0.4158   N.ar      1 RES1   0.0000
     5 C1      12.1850   7.7225   0.5290   C.ar      1 RES1   0.0000
     6 H1      12.9618   7.9486   1.0287   H         1 RES1   0.0000
     7 C2      10.3602   8.4427  -0.8341   C.ar      1 RES1   0.0000
     8 H2       9.8796   9.1455  -1.2563   H         1 RES1   0.0000
     9 O1      12.5502   3.2670  -1.2296   O.3       1 RES1   0.0000
    10 C3      13.9042   3.0569   2.3765   C.ar      1 RES1   0.0000
    11 N2      12.4421   5.2892   1.0312   N.2       1 RES1   0.0000
    12 C4       8.4396   5.4030  -1.7992   C.ar      1 RES1   0.0000
    13 H3       7.6731   5.1393  -2.2951   H         1 RES1   0.0000
    14 C5      11.5149   0.4268  -3.2780   C.ar      1 RES1   0.0000
    15 H4      10.9285  -0.3210  -3.2576   H         1 RES1   0.0000
    16 N3      10.3777   3.2705   2.1489   N.ar      1 RES1   0.0000
    17 C6      12.4509   2.4103  -2.2124   C.ar      1 RES1   0.0000
    18 C7      13.3698   5.4605   1.9225   C.2       1 RES1   0.0000
    19 H5      13.6013   6.3583   2.1285   H         1 RES1   0.0000
    20 C8      13.1712   1.7228  -4.4122   C.ar      1 RES1   0.0000
    21 H6      13.7153   1.8664  -5.1776   H         1 RES1   0.0000
    22 C9      12.2885   0.6354  -4.3702   C.ar      1 RES1   0.0000
    23 N4      10.5206   1.7415  -0.0267   N.2       1 RES1   0.0000
    24 C10     14.0783   4.4399   2.6231   C.ar      1 RES1   0.0000
    25 C11      8.8058   6.7190  -1.7254   C.ar      1 RES1   0.0000
    26 H7       8.2984   7.3771  -2.1857   H         1 RES1   0.0000
    27 C12     11.5605   1.2932  -2.1756   C.ar      1 RES1   0.0000
    28 C13     14.6773   2.1582   3.1203   C.ar      1 RES1   0.0000
    29 H8      14.5857   1.2268   2.9614   H         1 RES1   0.0000
    30 C14      8.5506   1.9896   3.1114   C.ar      1 RES1   0.0000
    31 C15      9.2113   4.4593  -1.1367   C.ar      1 RES1   0.0000
    32 H9       8.9645   3.5439  -1.2067   H         1 RES1   0.0000
    33 C16     10.3607   4.0478   3.2157   C.ar      1 RES1   0.0000
    34 H10     10.9798   4.7653   3.2627   H         1 RES1   0.0000
    35 C17      8.6037   0.3776   0.8189   C.ar      1 RES1   0.0000
    36 H11      8.6003  -0.1694   0.0420   H         1 RES1   0.0000
    37 C18     10.6538   6.0871  -0.3255   C.ar      1 RES1   0.0000
    38 C19     15.0022   4.8627   3.6048   C.ar      1 RES1   0.0000
    39 H12     15.1204   5.7907   3.7713   H         1 RES1   0.0000
    40 C20     10.6806   1.0279  -1.0922   C.2       1 RES1   0.0000
    41 H13     10.1518   0.2410  -1.1571   H         1 RES1   0.0000
    42 C21     11.8009   6.4050   0.4438   C.ar      1 RES1   0.0000
    43 C22      9.4739   3.8599   4.2761   C.ar      1 RES1   0.0000
    44 H14      9.4894   4.4435   5.0250   H         1 RES1   0.0000
    45 C23     11.4691   8.7185  -0.0915   C.ar      1 RES1   0.0000
    46 H15     11.7558   9.6201  -0.0013   H         1 RES1   0.0000
    47 C24      9.9274   7.1035  -0.9714   C.ar      1 RES1   0.0000
    48 C25      9.5206   1.4072   0.9269   C.ar      1 RES1   0.0000
    49 C26      7.6440   0.9137   2.9537   C.ar      1 RES1   0.0000
    50 H16      7.0013   0.7361   3.6315   H         1 RES1   0.0000
    51 C27      8.5861   2.8313   4.2202   C.ar      1 RES1   0.0000
    52 H17      7.9866   2.6862   4.9424   H         1 RES1   0.0000
    53 C28     15.7201   3.9582   4.3104   C.ar      1 RES1   0.0000
    54 C29     13.2452   2.5767  -3.3492   C.ar      1 RES1   0.0000
    55 H18     13.8558   3.3043  -3.3822   H         1 RES1   0.0000
    56 C30     15.5586   2.5884   4.0701   C.ar      1 RES1   0.0000
    57 H19     16.0638   1.9569   4.5686   H         1 RES1   0.0000
    58 C31      7.6831   0.1332   1.8424   C.ar      1 RES1   0.0000
    59 H20      7.0734  -0.5918   1.7598   H         1 RES1   0.0000
    60 C32      9.4829   2.2264   2.0764   C.ar      1 RES1   0.0000
    61 O2      13.0775   2.5900   1.4648   O.3       1 RES1   0.0000
    62 S1       9.0834  10.4736   3.3104   S.o2      2 RES2   0.0000
    63 F1       7.2627  11.0067   5.0912   F         2 RES2   0.0000
    64 F2       8.6469   9.5318   5.6964   F         2 RES2   0.0000
    65 C33      7.9805   9.9821   4.6449   C.3       2 RES2   0.0000
    66 O3       8.1997  10.9512   2.3027   O.2       2 RES2   0.0000
    67 O4       9.8942  11.4624   3.9353   O.2       2 RES2   0.0000
    68 O5       9.7436   9.2570   2.9639   O.3       2 RES2  -1.0000
    69 F3       7.1191   9.0547   4.2647   F         2 RES2   0.0000
    70 O6      11.5386   7.2311   3.6022   O.3       3 RES3   0.0000
    71 H21     11.3198   7.9938   3.3288   H         3 RES3   0.0000
    72 C34     11.2592   7.1274   4.9843   C.3       3 RES3   0.0000
    73 H22     11.5045   6.2204   5.2946   H         3 RES3   0.0000
    74 H23     10.2855   7.2427   5.1242   H         3 RES3   0.0000
    75 C35     11.9814   8.1241   5.7943   C.3       3 RES3   0.0000
    76 H24     11.6973   9.0256   5.5349   H         3 RES3   0.0000
    77 H25     12.9458   8.0302   5.6455   H         3 RES3   0.0000
    78 H26     11.7823   7.9792   6.7429   H         3 RES3   0.0000
@<TRIPOS>BOND
     1     1    22    1
     2     2    53    1
     3     3     4    1
     4     4    31   ar
     5     5     6    1
     6     7     8    1
     7     9     3    1
     8    10    24   ar
     9    11     3    1
    10    12    13    1
    11    14    15    1
    12    16     3    1
    13    17     9    1
    14    18    11    2
    15    19    18    1
    16    20    21    1
    17    22    14   ar
    18    23     3    1
    19    24    18    1
    20    25    12   ar
    21    26    25    1
    22    27    14   ar
    23    28    10   ar
    24    29    28    1
    25    30    49   ar
    26    31    12   ar
    27    32    31    1
    28    33    16   ar
    29    34    33    1
    30    35    36    1
    31    37     4   ar
    32    38    24   ar
    33    39    38    1
    34    40    23    2
    35    41    40    1
    36    42     5   ar
    37    43    33   ar
    38    44    43    1
    39    45     5   ar
    40    46    45    1
    41    47     7   ar
    42    48    23    1
    43    49    50    1
    44    51    30   ar
    45    52    51    1
    46    53    38   ar
    47    54    17   ar
    48    55    54    1
    49    56    28   ar
    50    57    56    1
    51    58    35   ar
    52    59    58    1
    53    60    16   ar
    54    61     3    1
    55     7    45   ar
    56    10    61    1
    57    11    42    1
    58    17    27   ar
    59    20    22   ar
    60    20    54   ar
    61    25    47   ar
    62    27    40    1
    63    30    60   ar
    64    35    48   ar
    65    37    42   ar
    66    37    47   ar
    67    43    51   ar
    68    48    60   ar
    69    49    58   ar
    70    53    56   ar
    71    62    65    1
    72    63    65    1
    73    64    65    1
    74    65    69    1
    75    66    62    2
    76    67    62    2
    77    68    62    1
    78    70    71    1
    79    72    70    1
    80    73    72    1
    81    74    72    1
    82    75    72    1
    83    76    75    1
    84    77    75    1
    85    78    75    1
@<TRIPOS>SUBSTRUCTURE
     1 RES1        1 GROUP             0 ****  ****    0  
     2 RES2       62 GROUP             0 ****  ****    0  
     3 RES3       70 GROUP             0 ****  ****    0  
@<TRIPOS>CRYSIN
   11.4760   13.0698   13.4649   71.3420   87.4370   68.6740     2     1
