@<TRIPOS>MOLECULE
TARBAS01
    81    88     3     0     0
SMALL
USER_CHARGES
****
Generated from the CSD

@<TRIPOS>ATOM
     1 I1       6.3935  10.5214  10.8241   I         1 RES1   0.0000
     2 I2       6.9956   1.7866   0.0299   I         1 RES1   0.0000
     3 Fe1      9.5482   5.0490   6.4846   Fe        1 RES1   1.0000
     4 N1      10.4014   6.9245   6.9255   N.2       1 RES1   0.0000
     5 C1       9.8388   7.8307   7.6482   C.2       1 RES1   0.0000
     6 H1      10.3138   8.6208   7.7725   H         1 RES1   0.0000
     7 C2      11.7094   7.1160   6.3857   C.ar      1 RES1   0.0000
     8 C3       8.5591   7.7446   8.2763   C.ar      1 RES1   0.0000
     9 C4       6.9492   8.8575   9.6805   C.ar      1 RES1   0.0000
    10 C5       7.6837   6.6332   8.1432   C.ar      1 RES1   0.0000
    11 C6       8.1435   8.8491   9.0338   C.ar      1 RES1   0.0000
    12 H2       8.6971   9.5928   9.0935   H         1 RES1   0.0000
    13 N2       9.0175   3.0309   6.2377   N.2       1 RES1   0.0000
    14 C7       8.5497   2.5237   5.1407   C.2       1 RES1   0.0000
    15 H3       8.3164   1.6249   5.1606   H         1 RES1   0.0000
    16 C8       9.2046   2.2043   7.3807   C.ar      1 RES1   0.0000
    17 C9       8.3602   3.2136   3.8993   C.ar      1 RES1   0.0000
    18 O1       8.9132   5.3940   4.7041   O.3       1 RES1   0.0000
    19 O2       7.9522   5.6078   7.3795   O.3       1 RES1   0.0000
    20 N3      11.5410   4.8281   5.7688   N.ar      1 RES1   0.0000
    21 C10      8.5695   4.6084   3.7177   C.ar      1 RES1   0.0000
    22 C11     13.7186   8.3435   5.8297   C.ar      1 RES1   0.0000
    23 H4      14.1902   9.1445   5.8322   H         1 RES1   0.0000
    24 C12     14.2772   7.2489   5.2725   C.ar      1 RES1   0.0000
    25 H5      15.1272   7.3028   4.8994   H         1 RES1   0.0000
    26 C13      8.3564   5.1255   2.4329   C.ar      1 RES1   0.0000
    27 H6       8.5080   6.0319   2.2861   H         1 RES1   0.0000
    28 C14     12.0589   3.7398   5.2426   C.ar      1 RES1   0.0000
    29 H7      11.5512   2.9615   5.2277   H         1 RES1   0.0000
    30 C15     12.4235   8.2967   6.4131   C.ar      1 RES1   0.0000
    31 H8      12.0602   9.0551   6.8098   H         1 RES1   0.0000
    32 C16     12.2772   5.9783   5.7986   C.ar      1 RES1   0.0000
    33 C17     13.5801   6.0247   5.2526   C.ar      1 RES1   0.0000
    34 C18     13.3479   3.7171   4.7041   C.ar      1 RES1   0.0000
    35 H9      13.6889   2.9316   4.3396   H         1 RES1   0.0000
    36 C19      9.0526   0.1864   8.7004   C.ar      1 RES1   0.0000
    37 H10      8.7926  -0.7044   8.7664   H         1 RES1   0.0000
    38 C20      8.8250   0.8804   7.5014   C.ar      1 RES1   0.0000
    39 H11      8.4190   0.4486   6.7850   H         1 RES1   0.0000
    40 C21      9.8289   2.8407   8.4741   C.ar      1 RES1   0.0000
    41 C22      6.4619   6.6770   8.8372   C.ar      1 RES1   0.0000
    42 H12      5.8882   5.9464   8.7838   H         1 RES1   0.0000
    43 C23     10.0570   2.1383   9.6781   C.ar      1 RES1   0.0000
    44 C24      6.0876   7.7549   9.5873   C.ar      1 RES1   0.0000
    45 H13      5.2701   7.7576  10.0301   H         1 RES1   0.0000
    46 C25      7.8943   2.4460   2.8185   C.ar      1 RES1   0.0000
    47 H14      7.7189   1.5416   2.9453   H         1 RES1   0.0000
    48 C26      9.6354   0.7801   9.7514   C.ar      1 RES1   0.0000
    49 H15      9.7666   0.2987  10.5363   H         1 RES1   0.0000
    50 C27      7.6931   2.9942   1.5871   C.ar      1 RES1   0.0000
    51 C28      7.9339   4.3524   1.3856   C.ar      1 RES1   0.0000
    52 H16      7.8083   4.7303   0.5448   H         1 RES1   0.0000
    53 C29     14.0946   4.8382   4.7153   C.ar      1 RES1   0.0000
    54 H17     14.9546   4.8241   4.3633   H         1 RES1   0.0000
    55 N4      10.2102   4.1446   8.3285   N.ar      1 RES1   0.0000
    56 C30     10.8328   4.7480   9.3286   C.ar      1 RES1   0.0000
    57 H18     11.1013   5.6324   9.2203   H         1 RES1   0.0000
    58 C31     11.1023   4.1095  10.5425   C.ar      1 RES1   0.0000
    59 H19     11.5410   4.5660  11.2241   H         1 RES1   0.0000
    60 C32     10.7190   2.8087  10.7229   C.ar      1 RES1   0.0000
    61 H20     10.8937   2.3739  11.5264   H         1 RES1   0.0000
    62 S1      13.4434   5.2703  16.2760   S.o2      2 RES2   0.0000
    63 O3      12.3881   5.7710  17.0949   O.2       2 RES2   0.0000
    64 O4      14.7370   5.7724  16.5799   O.2       2 RES2   0.0000
    65 O5      13.3873   3.8559  16.0314   O.3       2 RES2  -1.0000
    66 F1      13.0367   7.3252  14.7304   F         2 RES2   0.0000
    67 F2      14.0366   5.7070  13.7739   F         2 RES2   0.0000
    68 F3      11.9526   5.5937  14.1558   F         2 RES2   0.0000
    69 C33     13.0984   5.9983  14.6533   C.3       2 RES2   0.0000
    70 O6      12.5767   8.2534   9.4616   O.3       3 RES3   0.0000
    71 H21     13.3549   8.0515   9.3037   H         3 RES3   0.0000
    72 C34     14.7332   8.9888  11.4953   C.3       3 RES3   0.0000
    73 H22     15.0334   8.1228  11.7826   H         3 RES3   0.0000
    74 H23     15.1097   9.6632  12.0637   H         3 RES3   0.0000
    75 H24     15.0145   9.1394  10.5898   H         3 RES3   0.0000
    76 C35     13.1117   9.0538  11.5761   C.3       3 RES3   0.0000
    77 H25     12.8585   8.8729  12.4953   H         3 RES3   0.0000
    78 H26     12.8457   9.9662  11.3833   H         3 RES3   0.0000
    79 C36     12.3688   8.2269  10.7714   C.3       3 RES3   0.0000
    80 H27     12.5123   7.3170  11.0736   H         3 RES3   0.0000
    81 H28     11.4323   8.4326  10.9244   H         3 RES3   0.0000
@<TRIPOS>BOND
     1     1     9    1
     2     2    50    1
     3     3     4    1
     4     4     5    2
     5     5     6    1
     6     7     4    1
     7     8     5    1
     8     9    11   ar
     9    10     8   ar
    10    11     8   ar
    11    12    11    1
    12    13     3    1
    13    14    13    2
    14    15    14    1
    15    16    13    1
    16    17    14    1
    17    18     3    1
    18    19     3    1
    19    20     3    1
    20    21    17   ar
    21    22    23    1
    22    24    22   ar
    23    25    24    1
    24    26    21   ar
    25    27    26    1
    26    28    20   ar
    27    29    28    1
    28    30     7   ar
    29    31    30    1
    30    32     7   ar
    31    33    24   ar
    32    34    28   ar
    33    35    34    1
    34    36    37    1
    35    38    16   ar
    36    39    38    1
    37    40    16   ar
    38    41    10   ar
    39    42    41    1
    40    43    40   ar
    41    44     9   ar
    42    45    44    1
    43    46    17   ar
    44    47    46    1
    45    48    36   ar
    46    49    48    1
    47    50    46   ar
    48    51    26   ar
    49    52    51    1
    50    53    33   ar
    51    54    53    1
    52    55     3    1
    53    56    55   ar
    54    57    56    1
    55    58    56   ar
    56    59    58    1
    57    60    43   ar
    58    61    60    1
    59    10    19    1
    60    18    21    1
    61    20    32   ar
    62    22    30   ar
    63    32    33   ar
    64    34    53   ar
    65    36    38   ar
    66    40    55   ar
    67    41    44   ar
    68    43    48   ar
    69    50    51   ar
    70    58    60   ar
    71    62    63    2
    72    64    62    2
    73    65    62    1
    74    66    69    1
    75    67    69    1
    76    68    69    1
    77    69    62    1
    78    70    71    1
    79    72    73    1
    80    74    72    1
    81    75    72    1
    82    76    72    1
    83    77    76    1
    84    78    76    1
    85    79    70    1
    86    80    79    1
    87    81    79    1
    88    76    79    1
@<TRIPOS>SUBSTRUCTURE
     1 RES1        1 GROUP             0 ****  ****    0  
     2 RES2       62 GROUP             0 ****  ****    0  
     3 RES3       70 GROUP             0 ****  ****    0  
@<TRIPOS>CRYSIN
   12.4864   12.4925   13.6444   65.7510   82.5940   69.1910     2     1
