@<TRIPOS>MOLECULE
TARBAS02
    81    88     3     0     0
SMALL
USER_CHARGES
****
Generated from the CSD

@<TRIPOS>ATOM
     1 I1      14.8611  15.7217   7.6347   I         1 RES1   0.0000
     2 I2      21.8734  12.0145  18.0309   I         1 RES1   0.0000
     3 Fe1     18.3205  10.2674  11.5754   Fe        1 RES1   1.0000
     4 O1      17.9709  11.0505  13.2636   O.3       1 RES1   0.0000
     5 O2      18.7070  11.9124  10.7350   O.3       1 RES1   0.0000
     6 N1      18.7491   9.3713   9.8845   N.ar      1 RES1   0.0000
     7 N2      16.4107  10.3482  11.2250   N.2       1 RES1   0.0000
     8 N3      17.8458   8.5160  12.3357   N.ar      1 RES1   0.0000
     9 N4      20.2385  10.1122  11.8832   N.2       1 RES1   0.0000
    10 C1      20.1332   9.1522   9.7175   C.ar      1 RES1   0.0000
    11 C2      20.2464  11.0096  14.1178   C.ar      1 RES1   0.0000
    12 C3      13.7663   7.8500  12.2594   C.ar      1 RES1   0.0000
    13 H1      12.8256   7.7214  12.2474   H         1 RES1   0.0000
    14 C4      20.6729   8.5758   8.5391   C.ar      1 RES1   0.0000
    15 C5      20.9387   9.5565  10.7895   C.ar      1 RES1   0.0000
    16 C6      22.8508   8.8070   9.5070   C.ar      1 RES1   0.0000
    17 H2      23.7903   8.6860   9.4344   H         1 RES1   0.0000
    18 C7      16.4430  12.4599  10.0478   C.ar      1 RES1   0.0000
    19 C8      16.1004  14.4752   8.7230   C.ar      1 RES1   0.0000
    20 C9      20.5977  11.7121  16.4080   C.ar      1 RES1   0.0000
    21 C10     15.9821   7.0491  12.8765   C.ar      1 RES1   0.0000
    22 C11     20.8822  10.4988  12.9430   C.2       1 RES1   0.0000
    23 H3      21.8301  10.4380  12.9370   H         1 RES1   0.0000
    24 C12     16.5174   8.2598  12.3199   C.ar      1 RES1   0.0000
    25 C13     15.8098  11.3064  10.6225   C.2       1 RES1   0.0000
    26 H4      14.8641  11.2498  10.5487   H         1 RES1   0.0000
    27 C14     19.2008  11.9543  16.5290   C.ar      1 RES1   0.0000
    28 H5      18.8486  12.2642  17.3554   H         1 RES1   0.0000
    29 C15     15.6683   9.2215  11.7295   C.ar      1 RES1   0.0000
    30 C16     18.3639  11.7489  15.4765   C.ar      1 RES1   0.0000
    31 H6      17.4366  11.9209  15.5878   H         1 RES1   0.0000
    32 C17     18.2088   6.4135  13.4149   C.ar      1 RES1   0.0000
    33 H7      18.8270   5.7878  13.7754   H         1 RES1   0.0000
    34 C18     21.0661  11.2776  15.2321   C.ar      1 RES1   0.0000
    35 H8      22.0030  11.1436  15.1437   H         1 RES1   0.0000
    36 C19     18.6615   7.6169  12.8692   C.ar      1 RES1   0.0000
    37 H9      19.5942   7.7993  12.8801   H         1 RES1   0.0000
    38 C20     14.3292   9.0168  11.6775   C.ar      1 RES1   0.0000
    39 H10     13.7689   9.6550  11.2529   H         1 RES1   0.0000
    40 C21     18.4665   8.3914   7.6765   C.ar      1 RES1   0.0000
    41 H11     17.8634   8.1183   6.9978   H         1 RES1   0.0000
    42 C22     22.3053   9.3691  10.6745   C.ar      1 RES1   0.0000
    43 H12     22.8790   9.6228  11.3884   H         1 RES1   0.0000
    44 C23     15.6025  13.3772   9.3618   C.ar      1 RES1   0.0000
    45 H13     14.6649  13.2210   9.3485   H         1 RES1   0.0000
    46 C24     16.8787   6.1474  13.4245   C.ar      1 RES1   0.0000
    47 H14     16.5599   5.3390  13.8093   H         1 RES1   0.0000
    48 C25     18.2964  13.8614   9.4889   C.ar      1 RES1   0.0000
    49 H15     19.2225  14.0637   9.5470   H         1 RES1   0.0000
    50 C26     17.8293  12.6955  10.1132   C.ar      1 RES1   0.0000
    51 C27     18.8321  11.2830  14.2134   C.ar      1 RES1   0.0000
    52 C28     19.7411   8.2282   7.5180   C.ar      1 RES1   0.0000
    53 H16     20.0638   7.8681   6.7002   H         1 RES1   0.0000
    54 C29     17.9707   8.9901   8.8888   C.ar      1 RES1   0.0000
    55 H17     17.0319   9.1182   8.9747   H         1 RES1   0.0000
    56 C30     22.0436   8.4380   8.4835   C.ar      1 RES1   0.0000
    57 H18     22.4353   8.0716   7.6995   H         1 RES1   0.0000
    58 C31     14.5868   6.8991  12.8450   C.ar      1 RES1   0.0000
    59 H19     14.1961   6.1265  13.2346   H         1 RES1   0.0000
    60 C32     17.4876  14.7202   8.8005   C.ar      1 RES1   0.0000
    61 H20     17.8590  15.4837   8.3746   H         1 RES1   0.0000
    62 S1      16.4131   5.0941   9.8131   S.o2      2 RES2   0.0000
    63 F1      18.3039   4.0309   8.3903   F         2 RES2   0.0000
    64 O3      17.2626   6.2224  10.0648   O.2       2 RES2   0.0000
    65 F2      17.0456   5.3430   7.2869   F         2 RES2   0.0000
    66 F3      16.3675   3.3968   7.8011   F         2 RES2   0.0000
    67 O4      16.5459   3.9960  10.7217   O.2       2 RES2   0.0000
    68 O5      15.0329   5.4391   9.4949   O.3       2 RES2  -1.0000
    69 C33     17.0530   4.4484   8.2415   C.3       2 RES2   0.0000
    70 C34     14.3861   7.8677   7.4200   C.3       3 RES3   0.0000
    71 H21     15.2860   7.5037   7.1805   H         3 RES3   0.0000
    72 O6      14.3207   8.0934   8.8743   O.3       3 RES3   0.0000
    73 H22     14.4389   7.3648   9.2759   H         3 RES3   0.0000
    74 C35     13.3109   6.8441   7.0583   C.3       3 RES3   0.0000
    75 H23     13.7333   5.9787   6.8732   H         3 RES3   0.0000
    76 H24     12.8250   7.1469   6.2634   H         3 RES3   0.0000
    77 H25     12.6849   6.7480   7.8072   H         3 RES3   0.0000
    78 C36     14.1819   9.2155   6.7304   C.3       3 RES3   0.0000
    79 H26     13.2324   9.4562   6.7558   H         3 RES3   0.0000
    80 H27     14.4788   9.1546   5.7988   H         3 RES3   0.0000
    81 H28     14.7051   9.9031   7.1950   H         3 RES3   0.0000
@<TRIPOS>BOND
     1     1    19    1
     2     2    20    1
     3     3     4    1
     4     4    51    1
     5     5     3    1
     6     6     3    1
     7     7     3    1
     8     8     3    1
     9     9     3    1
    10    10     6   ar
    11    11    22    1
    12    12    13    1
    13    14    10   ar
    14    15     9    1
    15    16    17    1
    16    18    25    1
    17    19    44   ar
    18    20    27   ar
    19    21    24   ar
    20    22     9    2
    21    23    22    1
    22    24     8   ar
    23    25     7    2
    24    26    25    1
    25    27    28    1
    26    29     7    1
    27    30    27   ar
    28    31    30    1
    29    32    33    1
    30    34    11   ar
    31    35    34    1
    32    36     8   ar
    33    37    36    1
    34    38    12   ar
    35    39    38    1
    36    40    41    1
    37    42    15   ar
    38    43    42    1
    39    44    18   ar
    40    45    44    1
    41    46    21   ar
    42    47    46    1
    43    48    49    1
    44    50     5    1
    45    51    11   ar
    46    52    14   ar
    47    53    52    1
    48    54     6   ar
    49    55    54    1
    50    56    14   ar
    51    57    56    1
    52    58    12   ar
    53    59    58    1
    54    60    19   ar
    55    61    60    1
    56    10    15   ar
    57    16    42   ar
    58    16    56   ar
    59    18    50   ar
    60    20    34   ar
    61    21    58   ar
    62    24    29   ar
    63    29    38   ar
    64    30    51   ar
    65    32    36   ar
    66    32    46   ar
    67    40    52   ar
    68    40    54   ar
    69    48    50   ar
    70    48    60   ar
    71    62    64    2
    72    63    69    1
    73    65    69    1
    74    66    69    1
    75    67    62    2
    76    68    62    1
    77    69    62    1
    78    70    71    1
    79    72    70    1
    80    73    72    1
    81    74    70    1
    82    75    74    1
    83    76    74    1
    84    77    74    1
    85    78    70    1
    86    79    78    1
    87    80    78    1
    88    81    78    1
@<TRIPOS>SUBSTRUCTURE
     1 RES1        1 GROUP             0 ****  ****    0  
     2 RES2       62 GROUP             0 ****  ****    0  
     3 RES3       70 GROUP             0 ****  ****    0  
@<TRIPOS>CRYSIN
   12.2308   12.6838   13.0436   83.1370   68.0610   70.0960     2     1
