@<TRIPOS>MOLECULE
TARBAS
    81    88     3     0     0
SMALL
USER_CHARGES
****
Generated from the CSD

@<TRIPOS>ATOM
     1 I1       7.1120   9.6508   7.7248   I         1 RES1   0.0000
     2 I2      14.0714   5.9351  18.2640   I         1 RES1   0.0000
     3 Fe1     10.5261   4.2602  11.7746   Fe        1 RES1   1.0000
     4 O1      10.1682   5.0333  13.4670   O.3       1 RES1   0.0000
     5 N1       8.6133   4.3343  11.4040   N.2       1 RES1   0.0000
     6 C1      13.0697   4.4752  13.1623   C.2       1 RES1   0.0000
     7 H1      14.0179   4.4192  13.1635   H         1 RES1   0.0000
     8 O2      10.9096   5.9080  10.9467   O.3       1 RES1   0.0000
     9 N2      10.9790   3.3772  10.0615   N.ar      1 RES1   0.0000
    10 N3      12.4449   4.1008  12.0875   N.2       1 RES1   0.0000
    11 C2      12.3355   3.1983   9.9013   C.ar      1 RES1   0.0000
    12 C3       8.0099   5.2832  10.7633   C.2       1 RES1   0.0000
    13 H2       7.0643   5.2276  10.6802   H         1 RES1   0.0000
    14 C4      10.8682   1.6098  13.0754   C.ar      1 RES1   0.0000
    15 H3      11.8016   1.7846  13.0901   H         1 RES1   0.0000
    16 C5      13.1581   3.5715  10.9822   C.ar      1 RES1   0.0000
    17 C6      12.4312   4.9633  14.3409   C.ar      1 RES1   0.0000
    18 C7       8.6620   6.4079  10.1716   C.ar      1 RES1   0.0000
    19 C8      10.0530   6.6591  10.2816   C.ar      1 RES1   0.0000
    20 C9      10.1708   3.0199   9.0773   C.ar      1 RES1   0.0000
    21 H4       9.2341   3.1266   9.1934   H         1 RES1   0.0000
    22 C10     11.0343   5.2112  14.4363   C.ar      1 RES1   0.0000
    23 C11      7.8336   7.3104   9.4624   C.ar      1 RES1   0.0000
    24 H5       6.8975   7.1544   9.4208   H         1 RES1   0.0000
    25 C12     12.7806   5.6368  16.6506   C.ar      1 RES1   0.0000
    26 C13     14.5290   3.4135  10.8795   C.ar      1 RES1   0.0000
    27 H6      15.0908   3.6506  11.6070   H         1 RES1   0.0000
    28 C14     13.2779   5.2059  15.4487   C.ar      1 RES1   0.0000
    29 H7      14.2127   5.0664  15.3558   H         1 RES1   0.0000
    30 C15     14.2892   2.5357   8.6310   C.ar      1 RES1   0.0000
    31 H8      14.6851   2.1940   7.8374   H         1 RES1   0.0000
    32 C16      8.3671   8.4072   8.8364   C.ar      1 RES1   0.0000
    33 C17     15.0906   2.8985   9.6947   C.ar      1 RES1   0.0000
    34 H9      16.0329   2.8009   9.6262   H         1 RES1   0.0000
    35 C18     10.6462   2.4853   7.8607   C.ar      1 RES1   0.0000
    36 H10     10.0342   2.2422   7.1760   H         1 RES1   0.0000
    37 C19      9.7401   8.6679   8.9269   C.ar      1 RES1   0.0000
    38 H11     10.1099   9.4318   8.4989   H         1 RES1   0.0000
    39 C20      8.7139   2.2508  12.5081   C.ar      1 RES1   0.0000
    40 C21     10.5530   7.8178   9.6397   C.ar      1 RES1   0.0000
    41 H12     11.4800   8.0133   9.7033   H         1 RES1   0.0000
    42 C22     12.8883   2.6683   8.7129   C.ar      1 RES1   0.0000
    43 C23     11.3977   5.8834  16.7655   C.ar      1 RES1   0.0000
    44 H13     11.0408   6.1866  17.5921   H         1 RES1   0.0000
    45 C24      8.1652   1.0715  13.0547   C.ar      1 RES1   0.0000
    46 C25     10.5609   5.6909  15.6920   C.ar      1 RES1   0.0000
    47 H14      9.6362   5.8839  15.7898   H         1 RES1   0.0000
    48 C26     11.9859   2.3171   7.6712   C.ar      1 RES1   0.0000
    49 H15     12.3126   1.9684   6.8507   H         1 RES1   0.0000
    50 C27      7.8964   3.2217  11.9041   C.ar      1 RES1   0.0000
    51 C28     10.3970   0.4107  13.6330   C.ar      1 RES1   0.0000
    52 H16     11.0029  -0.2120  14.0169   H         1 RES1   0.0000
    53 C29      9.0543   0.1498  13.6171   C.ar      1 RES1   0.0000
    54 H17      8.7258  -0.6605  13.9900   H         1 RES1   0.0000
    55 N4      10.0612   2.5059  12.5289   N.ar      1 RES1   0.0000
    56 C30      6.5268   3.0272  11.8601   C.ar      1 RES1   0.0000
    57 H18      5.9645   3.6791  11.4566   H         1 RES1   0.0000
    58 C31      5.9682   1.8596  12.4128   C.ar      1 RES1   0.0000
    59 H19      5.0270   1.7373  12.3969   H         1 RES1   0.0000
    60 C32      6.7653   0.8970  12.9754   C.ar      1 RES1   0.0000
    61 H20      6.3717   0.1020  13.3163   H         1 RES1   0.0000
    62 S1       9.1196   0.6311   2.3415   S.o2      2 RES2   0.0000
    63 F1       7.2511   1.8214   3.7475   F         2 RES2   0.0000
    64 F2       9.2527   2.2966   4.3870   F         2 RES2   0.0000
    65 F3       8.4072   0.3881   4.8565   F         2 RES2   0.0000
    66 O3       9.0529   1.7527   1.4391   O.2       2 RES2   0.0000
    67 O4      10.4589   0.1930   2.6850   O.3       2 RES2  -1.0000
    68 O5       8.1907  -0.4291   2.0712   O.2       2 RES2   0.0000
    69 C33      8.4775   1.3266   3.9114   C.3       2 RES2   0.0000
    70 C34      5.1172   0.7731   7.0937   C.3       3 RES3   0.0000
    71 H21      5.8283   0.1564   6.8189   H         3 RES3   0.0000
    72 H22      4.2953   0.5640   6.6025   H         3 RES3   0.0000
    73 H23      4.9566   0.6781   8.0563   H         3 RES3   0.0000
    74 O6       6.6689   2.6639   8.9485   O.3       3 RES3   0.0000
    75 H24      6.5733   1.8394   9.0773   H         3 RES3   0.0000
    76 C35      5.5801   2.3384   6.7599   C.3       3 RES3   0.0000
    77 H25      5.8909   2.3747   5.8200   H         3 RES3   0.0000
    78 H26      4.7798   2.9172   6.8287   H         3 RES3   0.0000
    79 C36      6.6486   2.9186   7.6235   C.3       3 RES3   0.0000
    80 H27      7.5176   2.6206   7.2542   H         3 RES3   0.0000
    81 H28      6.6116   3.9014   7.5147   H         3 RES3   0.0000
@<TRIPOS>BOND
     1     1    32    1
     2     2    25    1
     3     3     4    1
     4     4    22    1
     5     5     3    1
     6     6     7    1
     7     8     3    1
     8     9     3    1
     9    10     3    1
    10    11     9   ar
    11    12     5    2
    12    13    12    1
    13    14    15    1
    14    16    10    1
    15    17     6    1
    16    18    12    1
    17    19     8    1
    18    20     9   ar
    19    21    20    1
    20    22    17   ar
    21    23    18   ar
    22    24    23    1
    23    25    28   ar
    24    26    16   ar
    25    27    26    1
    26    28    17   ar
    27    29    28    1
    28    30    31    1
    29    32    23   ar
    30    33    26   ar
    31    34    33    1
    32    35    20   ar
    33    36    35    1
    34    37    32   ar
    35    38    37    1
    36    39    45   ar
    37    40    19   ar
    38    41    40    1
    39    42    11   ar
    40    43    25   ar
    41    44    43    1
    42    45    53   ar
    43    46    22   ar
    44    47    46    1
    45    48    35   ar
    46    49    48    1
    47    50     5    1
    48    51    14   ar
    49    52    51    1
    50    53    51   ar
    51    54    53    1
    52    55     3    1
    53    56    50   ar
    54    57    56    1
    55    58    56   ar
    56    59    58    1
    57    60    45   ar
    58    61    60    1
    59     6    10    2
    60    11    16   ar
    61    14    55   ar
    62    18    19   ar
    63    30    33   ar
    64    30    42   ar
    65    37    40   ar
    66    39    50   ar
    67    39    55   ar
    68    42    48   ar
    69    43    46   ar
    70    58    60   ar
    71    62    66    2
    72    63    69    1
    73    64    69    1
    74    65    69    1
    75    67    62    1
    76    68    62    2
    77    69    62    1
    78    70    71    1
    79    72    70    1
    80    73    70    1
    81    74    75    1
    82    76    70    1
    83    77    76    1
    84    78    76    1
    85    79    74    1
    86    80    79    1
    87    81    79    1
    88    76    79    1
@<TRIPOS>SUBSTRUCTURE
     1 RES1        1 GROUP             0 ****  ****    0  
     2 RES2       62 GROUP             0 ****  ****    0  
     3 RES3       70 GROUP             0 ****  ****    0  
@<TRIPOS>CRYSIN
   12.2320   12.5470   13.2790   81.8900   67.0400   68.2500     2     1
