@<TRIPOS>MOLECULE
TARBAS03
    81    88     3     0     0
SMALL
USER_CHARGES
****
Generated from the CSD

@<TRIPOS>ATOM
     1 I1      15.1306  15.4251   7.7050   I         1 RES1   0.0000
     2 I2      22.6695  11.6401  18.3282   I         1 RES1   0.0000
     3 Fe1     18.8842  10.1942  11.8441   Fe        1 RES1   1.0000
     4 O1      18.7145  10.9507  13.5858   O.3       1 RES1   0.0000
     5 O2      19.0522  11.8717  10.9428   O.3       1 RES1   0.0000
     6 N1      19.4484   9.1993  10.0750   N.ar      1 RES1   0.0000
     7 N2      16.8591  10.1830  11.4199   N.2       1 RES1   0.0000
     8 N3      18.3332   8.3227  12.5774   N.ar      1 RES1   0.0000
     9 N4      20.9109   9.9476  12.1460   N.2       1 RES1   0.0000
    10 C1      20.8372   8.9857   9.9579   C.ar      1 RES1   0.0000
    11 C2      20.9434  10.7638  14.4376   C.ar      1 RES1   0.0000
    12 C3      14.2489   7.6984  12.4714   C.ar      1 RES1   0.0000
    13 H1      13.3268   7.5744  12.4394   H         1 RES1   0.0000
    14 C4      21.4052   8.4182   8.8041   C.ar      1 RES1   0.0000
    15 C5      21.6343   9.3979  11.0489   C.ar      1 RES1   0.0000
    16 C6      23.5673   8.6651   9.7940   C.ar      1 RES1   0.0000
    17 H2      24.4886   8.5462   9.7459   H         1 RES1   0.0000
    18 C7      16.8285  12.2483  10.1576   C.ar      1 RES1   0.0000
    19 C8      16.4477  14.1990   8.8139   C.ar      1 RES1   0.0000
    20 C9      21.3366  11.3853  16.7329   C.ar      1 RES1   0.0000
    21 C10     16.4282   6.9022  13.1112   C.ar      1 RES1   0.0000
    22 C11     21.5280  10.2620  13.2567   C.2       1 RES1   0.0000
    23 H3      22.4504  10.1420  13.2678   H         1 RES1   0.0000
    24 C12     16.9897   8.0837  12.5429   C.ar      1 RES1   0.0000
    25 C13     16.2336  11.1016  10.7666   C.2       1 RES1   0.0000
    26 H4      15.3126  11.0084  10.6840   H         1 RES1   0.0000
    27 C14     20.0016  11.6575  16.8845   C.ar      1 RES1   0.0000
    28 H5      19.6828  11.9445  17.7092   H         1 RES1   0.0000
    29 C15     16.1569   9.0365  11.9611   C.ar      1 RES1   0.0000
    30 C16     19.1354  11.5125  15.8404   C.ar      1 RES1   0.0000
    31 H6      18.2339  11.7058  15.9637   H         1 RES1   0.0000
    32 C17     18.6517   6.2357  13.6832   C.ar      1 RES1   0.0000
    33 H7      19.2377   5.6205  14.0616   H         1 RES1   0.0000
    34 C18     21.7862  10.9509  15.5655   C.ar      1 RES1   0.0000
    35 H8      22.6913  10.7592  15.4817   H         1 RES1   0.0000
    36 C19     19.1349   7.4120  13.1346   C.ar      1 RES1   0.0000
    37 H9      20.0505   7.5730  13.1543   H         1 RES1   0.0000
    38 C20     14.7978   8.8355  11.9241   C.ar      1 RES1   0.0000
    39 H10     14.2470   9.4712  11.5284   H         1 RES1   0.0000
    40 C21     19.1846   8.2421   7.8931   C.ar      1 RES1   0.0000
    41 H11     18.6099   7.9890   7.2089   H         1 RES1   0.0000
    42 C22     22.9916   9.2357  10.9737   C.ar      1 RES1   0.0000
    43 H12     23.5339   9.4942  11.6825   H         1 RES1   0.0000
    44 C23     15.9703  13.1158   9.4500   C.ar      1 RES1   0.0000
    45 H13     15.0583  12.9348   9.4241   H         1 RES1   0.0000
    46 C24     17.3061   5.9833  13.6672   C.ar      1 RES1   0.0000
    47 H14     16.9786   5.1916  14.0296   H         1 RES1   0.0000
    48 C25     18.6442  13.7191   9.6016   C.ar      1 RES1   0.0000
    49 H15     19.5463  13.9399   9.6547   H         1 RES1   0.0000
    50 C26     18.1937  12.5642  10.2612   C.ar      1 RES1   0.0000
    51 C27     19.5905  11.0686  14.5596   C.ar      1 RES1   0.0000
    52 C28     20.5223   8.0559   7.7723   C.ar      1 RES1   0.0000
    53 H16     20.8627   7.6825   6.9920   H         1 RES1   0.0000
    54 C29     18.6757   8.8313   9.0876   C.ar      1 RES1   0.0000
    55 H17     17.7583   8.9591   9.1665   H         1 RES1   0.0000
    56 C30     22.8064   8.3015   8.7659   C.ar      1 RES1   0.0000
    57 H18     23.2112   7.9622   8.0016   H         1 RES1   0.0000
    58 C31     15.0279   6.7539  13.0545   C.ar      1 RES1   0.0000
    59 H19     14.6332   5.9977  13.4243   H         1 RES1   0.0000
    60 C32     17.8019  14.5370   8.8780   C.ar      1 RES1   0.0000
    61 H20     18.1276  15.2934   8.4454   H         1 RES1   0.0000
    62 S1      16.9126   4.9483   9.9811   S.o2      2 RES2   0.0000
    63 F1      18.7403   3.8896   8.4848   F         2 RES2   0.0000
    64 O3      17.7734   6.0487  10.2624   O.2       2 RES2   0.0000
    65 F2      17.4934   5.2867   7.4653   F         2 RES2   0.0000
    66 F3      16.7883   3.3350   7.9227   F         2 RES2   0.0000
    67 O4      17.0573   3.8393  10.8479   O.2       2 RES2   0.0000
    68 O5      15.5353   5.2923   9.7077   O.3       2 RES2  -1.0000
    69 C33     17.5032   4.3475   8.3739   C.3       2 RES2   0.0000
    70 C34     14.8093   7.7460   7.6650   C.3       3 RES3   0.0000
    71 H21     15.6981   7.3981   7.4419   H         3 RES3   0.0000
    72 O6      14.6886   7.8789   9.1271   O.3       3 RES3   0.0000
    73 H22     14.8165   7.1503   9.4796   H         3 RES3   0.0000
    74 C35     13.7441   6.7564   7.1966   C.3       3 RES3   0.0000
    75 H23     14.1540   5.9082   7.0105   H         3 RES3   0.0000
    76 H24     13.3237   7.0905   6.4015   H         3 RES3   0.0000
    77 H25     13.0836   6.6475   7.8857   H         3 RES3   0.0000
    78 C36     14.6410   9.1371   7.0561   C.3       3 RES3   0.0000
    79 H26     13.7126   9.3824   7.0709   H         3 RES3   0.0000
    80 H27     14.9555   9.1282   6.1488   H         3 RES3   0.0000
    81 H28     15.1496   9.7735   7.5640   H         3 RES3   0.0000
@<TRIPOS>BOND
     1     1    19    1
     2     2    20    1
     3     3     4    1
     4     4    51    1
     5     5     3    1
     6     6     3    1
     7     7     3    1
     8     8     3    1
     9     9     3    1
    10    10     6   ar
    11    11    22    1
    12    12    13    1
    13    14    10   ar
    14    15     9    1
    15    16    17    1
    16    18    25    1
    17    19    44   ar
    18    20    27   ar
    19    21    24   ar
    20    22     9    2
    21    23    22    1
    22    24     8   ar
    23    25     7    2
    24    26    25    1
    25    27    28    1
    26    29     7    1
    27    30    27   ar
    28    31    30    1
    29    32    33    1
    30    34    11   ar
    31    35    34    1
    32    36     8   ar
    33    37    36    1
    34    38    12   ar
    35    39    38    1
    36    40    41    1
    37    42    15   ar
    38    43    42    1
    39    44    18   ar
    40    45    44    1
    41    46    21   ar
    42    47    46    1
    43    48    49    1
    44    50     5    1
    45    51    11   ar
    46    52    14   ar
    47    53    52    1
    48    54     6   ar
    49    55    54    1
    50    56    14   ar
    51    57    56    1
    52    58    12   ar
    53    59    58    1
    54    60    19   ar
    55    61    60    1
    56    10    15   ar
    57    16    42   ar
    58    16    56   ar
    59    18    50   ar
    60    20    34   ar
    61    21    58   ar
    62    24    29   ar
    63    29    38   ar
    64    30    51   ar
    65    32    36   ar
    66    32    46   ar
    67    40    52   ar
    68    40    54   ar
    69    48    50   ar
    70    48    60   ar
    71    62    64    2
    72    63    69    1
    73    65    69    1
    74    66    69    1
    75    67    62    2
    76    68    62    1
    77    69    62    1
    78    70    71    1
    79    72    70    1
    80    73    72    1
    81    74    70    1
    82    75    74    1
    83    76    74    1
    84    77    74    1
    85    78    70    1
    86    79    78    1
    87    80    78    1
    88    81    78    1
@<TRIPOS>SUBSTRUCTURE
     1 RES1        1 GROUP             0 ****  ****    0  
     2 RES2       62 GROUP             0 ****  ****    0  
     3 RES3       70 GROUP             0 ****  ****    0  
@<TRIPOS>CRYSIN
   12.4632   12.6561   13.3650   83.2980   67.3000   69.6440     2     1
