@<TRIPOS>MOLECULE
TARCAT01
    79    86     3     0     0
SMALL
USER_CHARGES
****
Generated from the CSD

@<TRIPOS>ATOM
     1 I1      14.0684   0.9090   0.9220   I         1 RES1   0.0000
     2 I2      15.6925   7.4565  12.3077   I         1 RES1   0.0000
     3 Fe1     10.9940   4.5002   6.9864   Fe        1 RES1   1.0000
     4 O1      12.3843   4.0504   8.2640   O.3       1 RES1   0.0000
     5 N1       9.3970   5.3527   5.8853   N.ar      1 RES1   0.0000
     6 O2      12.1930   4.7104   5.4743   O.3       1 RES1   0.0000
     7 N2      11.0952   6.4963   7.5767   N.2       1 RES1   0.0000
     8 N3       9.5183   3.9147   8.3799   N.ar      1 RES1   0.0000
     9 N4      10.5788   2.5629   6.3665   N.2       1 RES1   0.0000
    10 C1      12.8416   6.1906   9.2532   C.ar      1 RES1   0.0000
    11 C2      12.1540   2.5127   4.5093   C.ar      1 RES1   0.0000
    12 C3       8.9813   2.6817   8.1427   C.ar      1 RES1   0.0000
    13 C4       8.3316   7.4278   5.2627   C.ar      1 RES1   0.0000
    14 C5       7.4373   3.0013   9.9594   C.ar      1 RES1   0.0000
    15 H1       6.7249   2.7149  10.4836   H         1 RES1   0.0000
    16 C6       9.5445   1.9174   7.0969   C.ar      1 RES1   0.0000
    17 C7      10.2111   7.3611   6.8961   C.ar      1 RES1   0.0000
    18 C8      10.1434   8.7334   6.9689   C.ar      1 RES1   0.0000
    19 H2      10.7340   9.1887   7.5255   H         1 RES1   0.0000
    20 C9       7.9282   2.1823   8.9527   C.ar      1 RES1   0.0000
    21 C10     13.9521   4.2132  10.0133   C.ar      1 RES1   0.0000
    22 H3      14.0599   3.2910   9.9917   H         1 RES1   0.0000
    23 C11     13.5912   6.9806  10.1764   C.ar      1 RES1   0.0000
    24 H4      13.4655   7.9009  10.2289   H         1 RES1   0.0000
    25 C12      7.4559   0.8698   8.6454   C.ar      1 RES1   0.0000
    26 H5       6.7618   0.5037   9.1454   H         1 RES1   0.0000
    27 C13     11.9060   6.9521   8.4594   C.2       1 RES1   0.0000
    28 H6      11.8886   7.8710   8.6050   H         1 RES1   0.0000
    29 C14      7.5797   5.3904   4.3234   C.ar      1 RES1   0.0000
    30 H7       7.0216   4.9182   3.7466   H         1 RES1   0.0000
    31 C15     11.1898   1.9309   5.3961   C.2       1 RES1   0.0000
    32 H8      10.9825   1.0331   5.2721   H         1 RES1   0.0000
    33 C16      9.2753   6.6947   6.0026   C.ar      1 RES1   0.0000
    34 C17      8.5602   4.7052   5.0700   C.ar      1 RES1   0.0000
    35 H9       8.6269   3.7812   4.9918   H         1 RES1   0.0000
    36 C18     12.5758   3.8651   4.5862   C.ar      1 RES1   0.0000
    37 C19     13.0108   4.8233   9.1386   C.ar      1 RES1   0.0000
    38 C20     12.6156   1.6674   3.4730   C.ar      1 RES1   0.0000
    39 H10     12.3392   0.7804   3.4460   H         1 RES1   0.0000
    40 C21      8.3134   8.8482   5.4110   C.ar      1 RES1   0.0000
    41 H11      7.6888   9.3604   4.9500   H         1 RES1   0.0000
    42 C22     14.7038   4.9511  10.8879   C.ar      1 RES1   0.0000
    43 H12     15.3446   4.5275  11.4122   H         1 RES1   0.0000
    44 C23      9.0352   4.6342   9.3543   C.ar      1 RES1   0.0000
    45 H13      9.4007   5.4746   9.5160   H         1 RES1   0.0000
    46 C24      9.2207   9.4483   6.2357   C.ar      1 RES1   0.0000
    47 H14      9.2153  10.3757   6.3045   H         1 RES1   0.0000
    48 C25     13.4612   2.1378   2.5121   C.ar      1 RES1   0.0000
    49 C26      7.4454   6.7673   4.4474   C.ar      1 RES1   0.0000
    50 H15      6.7771   7.2274   3.9918   H         1 RES1   0.0000
    51 C27      9.0465   0.6759   6.8557   C.ar      1 RES1   0.0000
    52 H16      9.3991   0.1613   6.1657   H         1 RES1   0.0000
    53 C28     13.4673   4.3119   3.5431   C.ar      1 RES1   0.0000
    54 H17     13.7545   5.1963   3.5498   H         1 RES1   0.0000
    55 C29      7.9756   4.1817  10.1723   C.ar      1 RES1   0.0000
    56 H18      7.6599   4.7186  10.8637   H         1 RES1   0.0000
    57 C30     13.9049   3.4901   2.5485   C.ar      1 RES1   0.0000
    58 H19     14.4890   3.8094   1.8989   H         1 RES1   0.0000
    59 C31     14.5223   6.3330  11.0038   C.ar      1 RES1   0.0000
    60 C32      7.9925   0.1586   7.6535   C.ar      1 RES1   0.0000
    61 H20      7.6689  -0.6958   7.4796   H         1 RES1   0.0000
    62 S1      10.0551   8.1808  11.8596   S.o2      2 RES2   0.0000
    63 O3       9.8839   7.7873  10.6952   O.2       2 RES2   0.0000
    64 F1      10.5176   5.8947  12.6507   F         2 RES2   0.0000
    65 F2      10.0004   7.0812  14.0739   F         2 RES2   0.0000
    66 O4      11.2345   8.5682  12.0901   O.2       2 RES2   0.0000
    67 O5       9.1860   9.0448  12.2316   O.3       2 RES2  -1.0000
    68 F3       8.6802   6.3977  12.8556   F         2 RES2   0.0000
    69 C33      9.8260   6.9438  12.8138   C.3       2 RES2   0.0000
    70 O6       8.8989   2.0071   2.8760   O.2       3 RES3   0.0000
    71 C34      9.4723   2.4532   1.9231   C.2       3 RES3   0.0000
    72 C35      9.7678   1.5202   0.8288   C.3       3 RES3   0.0000
    73 H21     10.6756   1.6341   0.5458   H         3 RES3   0.0000
    74 H22      9.1767   1.6981   0.0903   H         3 RES3   0.0000
    75 H23      9.6337   0.6191   1.1321   H         3 RES3   0.0000
    76 C36      9.9529   3.8399   1.8221   C.3       3 RES3   0.0000
    77 H24     10.2370   4.1448   2.6873   H         3 RES3   0.0000
    78 H25      9.2429   4.4026   1.5027   H         3 RES3   0.0000
    79 H26     10.6921   3.8789   1.2102   H         3 RES3   0.0000
@<TRIPOS>BOND
     1     1    48    1
     2     2    59    1
     3     3     4    1
     4     4    37    1
     5     5     3    1
     6     6     3    1
     7     7     3    1
     8     8     3    1
     9     9     3    1
    10    10    23   ar
    11    11    31    1
    12    12     8   ar
    13    13    33   ar
    14    14    15    1
    15    16     9    1
    16    17     7    1
    17    18    17   ar
    18    19    18    1
    19    20    12   ar
    20    21    22    1
    21    23    24    1
    22    25    20   ar
    23    26    25    1
    24    27     7    2
    25    28    27    1
    26    29    30    1
    27    31     9    2
    28    32    31    1
    29    33     5   ar
    30    34     5   ar
    31    35    34    1
    32    36     6    1
    33    37    10   ar
    34    38    11   ar
    35    39    38    1
    36    40    13   ar
    37    41    40    1
    38    42    21   ar
    39    43    42    1
    40    44     8   ar
    41    45    44    1
    42    46    18   ar
    43    47    46    1
    44    48    38   ar
    45    49    13   ar
    46    50    49    1
    47    51    16   ar
    48    52    51    1
    49    53    36   ar
    50    54    53    1
    51    55    14   ar
    52    56    55    1
    53    57    48   ar
    54    58    57    1
    55    59    23   ar
    56    60    25   ar
    57    61    60    1
    58    10    27    1
    59    11    36   ar
    60    12    16   ar
    61    14    20   ar
    62    17    33   ar
    63    21    37   ar
    64    29    34   ar
    65    29    49   ar
    66    40    46   ar
    67    42    59   ar
    68    44    55   ar
    69    51    60   ar
    70    53    57   ar
    71    62    63    2
    72    64    69    1
    73    65    69    1
    74    66    62    2
    75    67    62    1
    76    68    69    1
    77    69    62    1
    78    70    71    2
    79    71    72    1
    80    72    73    1
    81    74    72    1
    82    75    72    1
    83    76    71    1
    84    77    76    1
    85    78    76    1
    86    79    76    1
@<TRIPOS>SUBSTRUCTURE
     1 RES1        1 GROUP             0 ****  ****    0  
     2 RES2       62 GROUP             0 ****  ****    0  
     3 RES3       70 GROUP             0 ****  ****    0  
@<TRIPOS>CRYSIN
   10.3585   12.9759   14.1074   78.5580   76.6060   86.2650     2     1
