@<TRIPOS>MOLECULE
TARCAT
    79    86     3     0     0
SMALL
USER_CHARGES
****
Generated from the CSD

@<TRIPOS>ATOM
     1 I1      14.1978   1.0130   0.9138   I         1 RES1   0.0000
     2 I2      15.7697   7.1091  11.9727   I         1 RES1   0.0000
     3 Fe1     10.8524   4.4211   6.8353   Fe        1 RES1   1.0000
     4 O1      12.2514   3.8147   7.9950   O.3       1 RES1   0.0000
     5 N1       9.3597   5.1396   5.7390   N.ar      1 RES1   0.0000
     6 O2      12.0843   4.7827   5.4039   O.3       1 RES1   0.0000
     7 N2      11.0259   6.2878   7.3604   N.2       1 RES1   0.0000
     8 N3       9.5214   3.9411   8.2166   N.ar      1 RES1   0.0000
     9 N4      10.5741   2.5702   6.2812   N.2       1 RES1   0.0000
    10 C1      12.8026   5.9716   8.9911   C.ar      1 RES1   0.0000
    11 C2      12.1899   2.5508   4.4659   C.ar      1 RES1   0.0000
    12 C3       9.0038   2.6883   8.0491   C.ar      1 RES1   0.0000
    13 C4       8.2319   7.2037   5.0978   C.ar      1 RES1   0.0000
    14 C5       7.4655   3.0168   9.8909   C.ar      1 RES1   0.0000
    15 H1       6.7437   2.7441  10.4450   H         1 RES1   0.0000
    16 C6       9.5654   1.8906   7.0134   C.ar      1 RES1   0.0000
    17 C7      10.1267   7.1562   6.6955   C.ar      1 RES1   0.0000
    18 C8      10.0468   8.5440   6.7905   C.ar      1 RES1   0.0000
    19 H2      10.6419   9.0092   7.3670   H         1 RES1   0.0000
    20 C9       7.9646   2.1554   8.8565   C.ar      1 RES1   0.0000
    21 C10     13.8596   3.9285   9.7048   C.ar      1 RES1   0.0000
    22 H3      13.9499   2.9842   9.6652   H         1 RES1   0.0000
    23 C11     13.6155   6.6702   9.8843   C.ar      1 RES1   0.0000
    24 H4      13.5379   7.6153   9.9423   H         1 RES1   0.0000
    25 C12      7.5111   0.8545   8.6085   C.ar      1 RES1   0.0000
    26 H5       6.8176   0.4878   9.1441   H         1 RES1   0.0000
    27 C13     11.8787   6.7476   8.2061   C.2       1 RES1   0.0000
    28 H6      11.9005   7.6898   8.3248   H         1 RES1   0.0000
    29 C14      7.5104   5.1055   4.1914   C.ar      1 RES1   0.0000
    30 H7       6.9406   4.5954   3.6281   H         1 RES1   0.0000
    31 C15     11.2406   1.9453   5.3643   C.2       1 RES1   0.0000
    32 H8      11.0920   1.0114   5.2772   H         1 RES1   0.0000
    33 C16      9.2266   6.4809   5.8313   C.ar      1 RES1   0.0000
    34 C17      8.5242   4.4659   4.9672   C.ar      1 RES1   0.0000
    35 H9       8.6006   3.5201   4.9263   H         1 RES1   0.0000
    36 C18     12.5390   3.9142   4.5252   C.ar      1 RES1   0.0000
    37 C19     12.9181   4.5720   8.8526   C.ar      1 RES1   0.0000
    38 C20     12.7063   1.7297   3.4553   C.ar      1 RES1   0.0000
    39 H10     12.4749   0.8086   3.4447   H         1 RES1   0.0000
    40 C21      8.2027   8.6093   5.2271   C.ar      1 RES1   0.0000
    41 H11      7.5560   9.1095   4.7429   H         1 RES1   0.0000
    42 C22     14.6475   4.6514  10.5914   C.ar      1 RES1   0.0000
    43 H12     15.2759   4.1963  11.1402   H         1 RES1   0.0000
    44 C23      9.0404   4.6858   9.2075   C.ar      1 RES1   0.0000
    45 H13      9.3881   5.5608   9.3433   H         1 RES1   0.0000
    46 C24      9.0950   9.2678   6.0411   C.ar      1 RES1   0.0000
    47 H14      9.0695  10.2154   6.0992   H         1 RES1   0.0000
    48 C25     13.5466   2.2229   2.4671   C.ar      1 RES1   0.0000
    49 C26      7.3702   6.4674   4.2706   C.ar      1 RES1   0.0000
    50 H15      6.6949   6.9093   3.7679   H         1 RES1   0.0000
    51 C27      9.0777   0.6397   6.8010   C.ar      1 RES1   0.0000
    52 H16      9.4331   0.1114   6.0965   H         1 RES1   0.0000
    53 C28     13.4278   4.3997   3.5160   C.ar      1 RES1   0.0000
    54 H17     13.6879   5.3122   3.5357   H         1 RES1   0.0000
    55 C29      8.0398   4.2124  10.0531   C.ar      1 RES1   0.0000
    56 H18      7.7540   4.7618  10.7748   H         1 RES1   0.0000
    57 C30     13.9171   3.5944   2.5225   C.ar      1 RES1   0.0000
    58 H19     14.5060   3.9522   1.8681   H         1 RES1   0.0000
    59 C31     14.5263   6.0183  10.6838   C.ar      1 RES1   0.0000
    60 C32      8.0497   0.1188   7.6177   C.ar      1 RES1   0.0000
    61 H20      7.7338  -0.7645   7.4646   H         1 RES1   0.0000
    62 S1      10.0708   7.9065  11.7761   S.o2      2 RES2   0.0000
    63 O3       9.8349   7.5991  10.5149   O.2       2 RES2   0.0000
    64 F1      10.4890   5.5389  12.3448   F         2 RES2   0.0000
    65 F2      10.2022   6.8496  14.0295   F         2 RES2   0.0000
    66 O4      11.4626   8.2266  12.1126   O.3       2 RES2  -1.0000
    67 O5       9.2726   8.9477  12.3843   O.2       2 RES2   0.0000
    68 F3       8.5063   6.3461  12.7511   F         2 RES2   0.0000
    69 C33      9.8281   6.6241  12.7340   C.3       2 RES2   0.0000
    70 O6       8.9890   1.9514   2.8471   O.2       3 RES3   0.0000
    71 C34      9.5833   2.4215   1.9209   C.2       3 RES3   0.0000
    72 C35      9.9359   1.5346   0.7612   C.3       3 RES3   0.0000
    73 H21     10.8844   1.6452   0.5422   H         3 RES3   0.0000
    74 H22      9.3913   1.7803  -0.0158   H         3 RES3   0.0000
    75 H23      9.7619   0.6006   1.0000   H         3 RES3   0.0000
    76 C36     10.0775   3.8028   1.8484   C.3       3 RES3   0.0000
    77 H24     10.0478   4.2084   2.7402   H         3 RES3   0.0000
    78 H25      9.5145   4.3204   1.2362   H         3 RES3   0.0000
    79 H26     11.0021   3.8027   1.5212   H         3 RES3   0.0000
@<TRIPOS>BOND
     1     1    48    1
     2     2    59    1
     3     3     4    1
     4     4    37    1
     5     5     3    1
     6     6     3    1
     7     7     3    1
     8     8     3    1
     9     9     3    1
    10    10    23   ar
    11    11    31    1
    12    12     8   ar
    13    13    33   ar
    14    14    15    1
    15    16     9    1
    16    17     7    1
    17    18    17   ar
    18    19    18    1
    19    20    12   ar
    20    21    22    1
    21    23    24    1
    22    25    20   ar
    23    26    25    1
    24    27     7    2
    25    28    27    1
    26    29    30    1
    27    31     9    2
    28    32    31    1
    29    33     5   ar
    30    34     5   ar
    31    35    34    1
    32    36     6    1
    33    37    10   ar
    34    38    11   ar
    35    39    38    1
    36    40    13   ar
    37    41    40    1
    38    42    21   ar
    39    43    42    1
    40    44     8   ar
    41    45    44    1
    42    46    18   ar
    43    47    46    1
    44    48    38   ar
    45    49    13   ar
    46    50    49    1
    47    51    16   ar
    48    52    51    1
    49    53    36   ar
    50    54    53    1
    51    55    14   ar
    52    56    55    1
    53    57    48   ar
    54    58    57    1
    55    59    23   ar
    56    60    25   ar
    57    61    60    1
    58    10    27    1
    59    11    36   ar
    60    12    16   ar
    61    14    20   ar
    62    17    33   ar
    63    21    37   ar
    64    29    34   ar
    65    29    49   ar
    66    40    46   ar
    67    42    59   ar
    68    44    55   ar
    69    51    60   ar
    70    53    57   ar
    71    62    63    2
    72    64    69    1
    73    65    69    1
    74    66    62    1
    75    67    62    2
    76    68    69    1
    77    69    62    1
    78    70    71    2
    79    71    72    1
    80    72    73    1
    81    74    72    1
    82    75    72    1
    83    76    71    1
    84    77    76    1
    85    78    76    1
    86    79    76    1
@<TRIPOS>SUBSTRUCTURE
     1 RES1        1 GROUP             0 ****  ****    0  
     2 RES2       62 GROUP             0 ****  ****    0  
     3 RES3       70 GROUP             0 ****  ****    0  
@<TRIPOS>CRYSIN
   10.3759   12.8053   13.8091   79.0800   76.2670   86.6090     2     1
