@<TRIPOS>MOLECULE
TARCIB
    75    82     3     0     0
SMALL
USER_CHARGES
****
Generated from the CSD

@<TRIPOS>ATOM
     1 I1      -2.1100  10.4768  -4.7099   I         1 RES1   0.0000
     2 I2       9.1481   7.8189  -0.4929   I         1 RES1   0.0000
     3 Fe1      1.8916   8.6300   1.4581   Fe        1 RES1   1.0000
     4 C1       0.1759  12.2413   2.6675   C.ar      1 RES1   0.0000
     5 H1      -0.3645  12.6093   1.9791   H         1 RES1   0.0000
     6 O1       3.3344   9.6289   0.7710   O.3       1 RES1   0.0000
     7 O2       1.4033   7.9480  -0.2113   O.3       1 RES1   0.0000
     8 N1       2.9258   7.0100   1.7022   N.2       1 RES1   0.0000
     9 N2       0.4673   7.5677   2.3020   N.ar      1 RES1   0.0000
    10 N3       0.8364  10.2481   1.2846   N.2       1 RES1   0.0000
    11 C2       4.5234   9.1667   0.4735   C.ar      1 RES1   0.0000
    12 C3      -0.6394  10.4323  -2.0446   C.ar      1 RES1   0.0000
    13 H2      -0.9917  11.3089  -1.9523   H         1 RES1   0.0000
    14 N4       2.2550   9.3162   3.2636   N.ar      1 RES1   0.0000
    15 C4       2.7045   4.7336   2.7428   C.ar      1 RES1   0.0000
    16 H3       3.6105   4.5045   2.5716   H         1 RES1   0.0000
    17 C5       0.6728   8.5650  -1.1194   C.ar      1 RES1   0.0000
    18 C6       1.5888  10.5093   3.5319   C.ar      1 RES1   0.0000
    19 C7       0.2538  10.6459   0.2040   C.2       1 RES1   0.0000
    20 H4      -0.1251  11.5173   0.2040   H         1 RES1   0.0000
    21 C8       4.9615   7.8304   0.6702   C.ar      1 RES1   0.0000
    22 C9       2.2148   5.9732   2.3652   C.ar      1 RES1   0.0000
    23 C10      0.0333   5.3954   3.3328   C.ar      1 RES1   0.0000
    24 C11      7.1667   8.3798  -0.1238   C.ar      1 RES1   0.0000
    25 C12      0.8812   6.2978   2.6735   C.ar      1 RES1   0.0000
    26 C13      6.2807   7.4617   0.3630   C.ar      1 RES1   0.0000
    27 H5       6.5606   6.5632   0.4954   H         1 RES1   0.0000
    28 C14      0.8384  11.0427   2.4671   C.ar      1 RES1   0.0000
    29 C15      0.4282   7.8732  -2.3445   C.ar      1 RES1   0.0000
    30 H6       0.8029   7.0106  -2.4781   H         1 RES1   0.0000
    31 C16      1.6864  11.1468   4.7849   C.ar      1 RES1   0.0000
    32 C17      0.5513   4.1287   3.6776   C.ar      1 RES1   0.0000
    33 H7      -0.0008   3.4905   4.1147   H         1 RES1   0.0000
    34 C18      5.4768  10.0789  -0.0656   C.ar      1 RES1   0.0000
    35 H8       5.2160  10.9789  -0.2234   H         1 RES1   0.0000
    36 C19      3.1216   9.3513   5.4952   C.ar      1 RES1   0.0000
    37 H9       3.6574   8.9319   6.1581   H         1 RES1   0.0000
    38 C20      0.1340   9.8722  -0.9944   C.ar      1 RES1   0.0000
    39 C21      2.4483  10.5101   5.7805   C.ar      1 RES1   0.0000
    40 H10      2.4978  10.8847   6.6523   H         1 RES1   0.0000
    41 C22     -0.3383   8.4369  -3.3316   C.ar      1 RES1   0.0000
    42 H11     -0.5039   7.9467  -4.1281   H         1 RES1   0.0000
    43 C23      4.1317   6.8291   1.2664   C.2       1 RES1   0.0000
    44 H12      4.4960   5.9561   1.3501   H         1 RES1   0.0000
    45 C24     -1.3095   5.8058   3.5890   C.ar      1 RES1   0.0000
    46 H13     -1.9174   5.2179   4.0212   H         1 RES1   0.0000
    47 C25      0.3113  12.9133   3.9059   C.ar      1 RES1   0.0000
    48 H14     -0.1001  13.7617   4.0176   H         1 RES1   0.0000
    49 C26      3.0099   8.7930   4.2192   C.ar      1 RES1   0.0000
    50 H15      3.4986   8.0024   4.0273   H         1 RES1   0.0000
    51 C27      6.7513   9.6980  -0.3606   C.ar      1 RES1   0.0000
    52 H16      7.3606  10.3273  -0.7273   H         1 RES1   0.0000
    53 C28     -0.8805   9.7192  -3.1896   C.ar      1 RES1   0.0000
    54 C29      1.8564   3.8218   3.3802   C.ar      1 RES1   0.0000
    55 H17      2.1932   2.9637   3.6133   H         1 RES1   0.0000
    56 C30      1.0128  12.3802   4.9343   C.ar      1 RES1   0.0000
    57 H18      1.0519  12.8406   5.7648   H         1 RES1   0.0000
    58 C31     -1.7103   7.0561   3.2029   C.ar      1 RES1   0.0000
    59 H19     -2.6010   7.3424   3.3668   H         1 RES1   0.0000
    60 C32     -0.7920   7.9235   2.5594   C.ar      1 RES1   0.0000
    61 H20     -1.0847   8.7900   2.3008   H         1 RES1   0.0000
    62 S1       6.2452   6.7078   4.9733   S.o2      2 RES2   0.0000
    63 O3       7.6025   6.2330   5.0399   O.2       2 RES2   0.0000
    64 F1       5.5338   4.2216   5.4515   F         2 RES2   0.0000
    65 F2       5.6362   5.4695   7.1975   F         2 RES2   0.0000
    66 O4       5.6585   6.6373   3.6521   O.3       2 RES2  -1.0000
    67 O5       5.9596   7.8996   5.6895   O.2       2 RES2   0.0000
    68 C33      5.3254   5.4439   5.8995   C.3       2 RES2   0.0000
    69 F3       3.9981   5.6826   5.8170   F         2 RES2   0.0000
    70 N5       9.3184  10.7185   2.0835   N.1       3 RES3   0.0000
    71 C34      8.3964  10.3664   2.6298   C.1       3 RES3   0.0000
    72 C35      7.1768   9.9119   3.3255   C.3       3 RES3   0.0000
    73 H21      6.4559  10.5590   3.1786   H         3 RES3   0.0000
    74 H22      7.3578   9.8358   4.2859   H         3 RES3   0.0000
    75 H23      6.9062   9.0379   2.9734   H         3 RES3   0.0000
@<TRIPOS>BOND
     1     1    53    1
     2     2    24    1
     3     3     6    1
     4     4     5    1
     5     6    11    1
     6     7     3    1
     7     8     3    1
     8     9     3    1
     9    10     3    1
    10    11    21   ar
    11    12    13    1
    12    14     3    1
    13    15    16    1
    14    17     7    1
    15    18    14   ar
    16    19    10    2
    17    20    19    1
    18    21    26   ar
    19    22     8    1
    20    23    25   ar
    21    24    26   ar
    22    25     9   ar
    23    26    27    1
    24    28     4   ar
    25    29    17   ar
    26    30    29    1
    27    31    18   ar
    28    32    23   ar
    29    33    32    1
    30    34    11   ar
    31    35    34    1
    32    36    37    1
    33    38    12   ar
    34    39    31   ar
    35    40    39    1
    36    41    29   ar
    37    42    41    1
    38    43     8    2
    39    44    43    1
    40    45    23   ar
    41    46    45    1
    42    47     4   ar
    43    48    47    1
    44    49    14   ar
    45    50    49    1
    46    51    24   ar
    47    52    51    1
    48    53    12   ar
    49    54    15   ar
    50    55    54    1
    51    56    31   ar
    52    57    56    1
    53    58    45   ar
    54    59    58    1
    55    60     9   ar
    56    61    60    1
    57    10    28    1
    58    15    22   ar
    59    17    38   ar
    60    18    28   ar
    61    19    38    1
    62    21    43    1
    63    22    25   ar
    64    32    54   ar
    65    34    51   ar
    66    36    39   ar
    67    36    49   ar
    68    41    53   ar
    69    47    56   ar
    70    58    60   ar
    71    62    63    2
    72    64    68    1
    73    65    68    1
    74    66    62    1
    75    67    62    2
    76    68    62    1
    77    69    68    1
    78    70    71    3
    79    71    72    1
    80    72    73    1
    81    74    72    1
    82    75    72    1
@<TRIPOS>SUBSTRUCTURE
     1 RES1        1 GROUP             0 ****  ****    0  
     2 RES2       62 GROUP             0 ****  ****    0  
     3 RES3       70 GROUP             0 ****  ****    0  
@<TRIPOS>CRYSIN
   12.0127   12.6193   13.2123  110.5460   92.3100  111.2710     2     1
