@<TRIPOS>MOLECULE
TAWLAG
    92    97     2     0     0
SMALL
USER_CHARGES
****
Generated from the CSD

@<TRIPOS>ATOM
     1 Fe1     15.1487  11.2034  10.8411   Fe        1 RES1   0.0000
     2 I1      17.5878  12.2710  10.9717   I         1 RES1  -1.0000
     3 O1      16.2713  10.1205   8.4238   O.2       1 RES1   0.0000
     4 P1      13.1998  10.0911  10.5575   P.3       1 RES1   0.0000
     5 N1      16.0807   8.9150  12.5992   N.1       1 RES1   0.0000
     6 O2      14.3216  13.7033   9.6068   O.2       1 RES1   0.0000
     7 N2      14.4458  12.6435  13.3925   N.1       1 RES1   0.0000
     8 C1      14.6310  12.7081  10.0603   C.1       1 RES1   0.0000
     9 C2      14.6677  12.1005  12.5128   C.1       1 RES1   0.0000
    10 C3      15.7424   9.7205  11.9668   C.1       1 RES1   0.0000
    11 C4      12.3685   9.6260  12.1048   C.ar      1 RES1   0.0000
    12 C5      11.7788  10.5707  12.8813   C.ar      1 RES1   0.0000
    13 H1      11.7915  11.4592  12.6038   H         1 RES1   0.0000
    14 C6      11.1630  10.2458  14.0750   C.ar      1 RES1   0.0000
    15 H2      10.7680  10.9103  14.5922   H         1 RES1   0.0000
    16 C7      11.1309   8.9607  14.4906   C.ar      1 RES1   0.0000
    17 H3      10.7175   8.7488  15.2959   H         1 RES1   0.0000
    18 C8      11.7111   7.9496  13.7261   C.ar      1 RES1   0.0000
    19 H4      11.6844   7.0632  14.0083   H         1 RES1   0.0000
    20 C9      12.3291   8.2961  12.5325   C.ar      1 RES1   0.0000
    21 H5      12.7218   7.6343  12.0092   H         1 RES1   0.0000
    22 C10     13.3700   8.5298   9.5825   C.ar      1 RES1   0.0000
    23 C11     14.4291   7.6598   9.7721   C.ar      1 RES1   0.0000
    24 H6      15.0334   7.8301  10.4577   H         1 RES1   0.0000
    25 C12     14.6176   6.5567   8.9834   C.ar      1 RES1   0.0000
    26 H7      15.3471   5.9988   9.1290   H         1 RES1   0.0000
    27 C13     13.7177   6.2680   7.9642   C.ar      1 RES1   0.0000
    28 H8      13.8436   5.5250   7.4197   H         1 RES1   0.0000
    29 C14     12.6294   7.1085   7.7731   C.ar      1 RES1   0.0000
    30 H9      12.0111   6.9122   7.1057   H         1 RES1   0.0000
    31 C15     12.4535   8.2272   8.5572   C.ar      1 RES1   0.0000
    32 H10     11.7246   8.7858   8.4086   H         1 RES1   0.0000
    33 C16     11.9103  10.9403   9.5643   C.ar      1 RES1   0.0000
    34 C17     10.5553  10.8319   9.8722   C.ar      1 RES1   0.0000
    35 H11     10.2851  10.4270  10.6639   H         1 RES1   0.0000
    36 C18      9.6071  11.3416   8.9789   C.ar      1 RES1   0.0000
    37 H12      8.7007  11.2518   9.1715   H         1 RES1   0.0000
    38 C19      9.9812  11.9518   7.8535   C.ar      1 RES1   0.0000
    39 H13      9.3324  12.2918   7.2802   H         1 RES1   0.0000
    40 C20     11.2919  12.0831   7.5319   C.ar      1 RES1   0.0000
    41 H14     11.5392  12.5173   6.7478   H         1 RES1   0.0000
    42 C21     12.2803  11.5636   8.3919   C.ar      1 RES1   0.0000
    43 H15     13.1800  11.6400   8.1674   H         1 RES1   0.0000
    44 C47     15.7980  10.4570   9.3626   C.1       1 RES1   0.0000
    45 P2       8.5900   3.5761  13.8379   P.3       2 RES2   1.0000
    46 C22      7.4620   2.4262  13.0421   C.ar      2 RES2   0.0000
    47 C23      6.4270   1.8416  13.7944   C.ar      2 RES2   0.0000
    48 H16      6.3401   2.0385  14.6984   H         2 RES2   0.0000
    49 C24      5.5337   0.9693  13.1801   C.ar      2 RES2   0.0000
    50 H17      4.8456   0.5782  13.6670   H         2 RES2   0.0000
    51 C25      5.6896   0.6920  11.8151   C.ar      2 RES2   0.0000
    52 H18      5.1007   0.1109  11.3874   H         2 RES2   0.0000
    53 C26      6.7060   1.2749  11.1098   C.ar      2 RES2   0.0000
    54 H19      6.7999   1.0828  10.2044   H         2 RES2   0.0000
    55 C27      7.5984   2.1443  11.7150   C.ar      2 RES2   0.0000
    56 H20      8.2849   2.5318  11.2221   H         2 RES2   0.0000
    57 C28      9.7945   4.1258  12.6220   C.ar      2 RES2   0.0000
    58 C29     10.8778   3.3101  12.2731   C.ar      2 RES2   0.0000
    59 H21     11.0095   2.4886  12.6902   H         2 RES2   0.0000
    60 C30     11.7408   3.7512  11.2949   C.ar      2 RES2   0.0000
    61 H22     12.4743   3.2275  11.0659   H         2 RES2   0.0000
    62 C31     11.5465   4.9229  10.6654   C.ar      2 RES2   0.0000
    63 H23     12.1566   5.2062  10.0239   H         2 RES2   0.0000
    64 C32     10.4735   5.6973  10.9536   C.ar      2 RES2   0.0000
    65 H24     10.3288   6.4806  10.4728   H         2 RES2   0.0000
    66 C33      9.5840   5.3322  11.9592   C.ar      2 RES2   0.0000
    67 H25      8.8671   5.8817  12.1837   H         2 RES2   0.0000
    68 C34      7.6886   5.0142  14.4269   C.ar      2 RES2   0.0000
    69 C35      6.4371   5.3377  13.8536   C.ar      2 RES2   0.0000
    70 H26      6.0394   4.7628  13.2408   H         2 RES2   0.0000
    71 C36      5.8212   6.4953  14.2039   C.ar      2 RES2   0.0000
    72 H27      5.0062   6.7198  13.8141   H         2 RES2   0.0000
    73 C37      6.3961   7.3483  15.1412   C.ar      2 RES2   0.0000
    74 H28      5.9629   8.1338  15.3854   H         2 RES2   0.0000
    75 C38      7.6079   7.0255  15.7039   C.ar      2 RES2   0.0000
    76 H29      7.9894   7.5945  16.3334   H         2 RES2   0.0000
    77 C39      8.2587   5.8719  15.3475   C.ar      2 RES2   0.0000
    78 H30      9.0843   5.6681  15.7252   H         2 RES2   0.0000
    79 C40      9.5023   2.7768  15.1882   C.3       2 RES2   0.0000
    80 H31     10.1409   2.1564  14.8030   H         2 RES2   0.0000
    81 H32     10.0087   3.4561  15.6615   H         2 RES2   0.0000
    82 C41      8.6518   2.0237  16.1969   C.ar      2 RES2   0.0000
    83 C42      8.6356   0.6364  16.1574   C.ar      2 RES2   0.0000
    84 H33      9.1350   0.1845  15.5159   H         2 RES2   0.0000
    85 C43      7.8789  -0.0775  17.0735   C.ar      2 RES2   0.0000
    86 H34      7.8576  -1.0057  17.0310   H         2 RES2   0.0000
    87 C44      7.1603   0.5768  18.0427   C.ar      2 RES2   0.0000
    88 H35      6.6641   0.0926  18.6615   H         2 RES2   0.0000
    89 C45      7.1769   1.9691  18.0958   C.ar      2 RES2   0.0000
    90 H36      6.6854   2.4176  18.7464   H         2 RES2   0.0000
    91 C46      7.9383   2.6924  17.1615   C.ar      2 RES2   0.0000
    92 H37      7.9589   3.6218  17.1964   H         2 RES2   0.0000
@<TRIPOS>BOND
     1     1     2    1
     2     3    44    3
     3     4     1    1
     4     5    10    3
     5     6     8    3
     6     7     9    3
     7     8     1    1
     8     9     1    1
     9    10     1    1
    10    11     4    1
    11    12    11   ar
    12    13    12    1
    13    14    12   ar
    14    15    14    1
    15    16    14   ar
    16    17    16    1
    17    18    16   ar
    18    19    18    1
    19    20    11   ar
    20    21    20    1
    21    22     4    1
    22    23    22   ar
    23    24    23    1
    24    25    23   ar
    25    26    25    1
    26    27    25   ar
    27    28    27    1
    28    29    27   ar
    29    30    29    1
    30    31    22   ar
    31    32    31    1
    32    33     4    1
    33    34    33   ar
    34    35    34    1
    35    36    34   ar
    36    37    36    1
    37    38    36   ar
    38    39    38    1
    39    40    38   ar
    40    41    40    1
    41    42    33   ar
    42    43    42    1
    43    44     1    1
    44    18    20   ar
    45    29    31   ar
    46    40    42   ar
    47    45    46    1
    48    46    47   ar
    49    47    48    1
    50    49    47   ar
    51    50    49    1
    52    51    49   ar
    53    52    51    1
    54    53    51   ar
    55    54    53    1
    56    55    46   ar
    57    56    55    1
    58    57    45    1
    59    58    57   ar
    60    59    58    1
    61    60    58   ar
    62    61    60    1
    63    62    60   ar
    64    63    62    1
    65    64    62   ar
    66    65    64    1
    67    66    57   ar
    68    67    66    1
    69    68    45    1
    70    69    68   ar
    71    70    69    1
    72    71    69   ar
    73    72    71    1
    74    73    71   ar
    75    74    73    1
    76    75    73   ar
    77    76    75    1
    78    77    68   ar
    79    78    77    1
    80    79    45    1
    81    80    79    1
    82    81    79    1
    83    82    79    1
    84    83    82   ar
    85    84    83    1
    86    85    83   ar
    87    86    85    1
    88    87    85   ar
    89    88    87    1
    90    89    87   ar
    91    90    89    1
    92    91    82   ar
    93    92    91    1
    94    53    55   ar
    95    64    66   ar
    96    75    77   ar
    97    89    91   ar
@<TRIPOS>SUBSTRUCTURE
     1 RES1        1 GROUP             0 ****  ****    0  
     2 RES2       45 GROUP             0 ****  ****    0  
@<TRIPOS>CRYSIN
   12.2330   13.1540   16.2510   75.8200   71.4920   74.8620     2     1
