@<TRIPOS>MOLECULE
TAYBAZ
    90    95     2     0     0
SMALL
USER_CHARGES
****
Generated from the CSD

@<TRIPOS>ATOM
     1 Fe1      4.4731   7.4615   4.0868   Fe        1 RES1   1.0000
     2 O1       5.4520   8.7170   5.0948   O.3       1 RES1   0.0000
     3 O2       3.5090   6.3160   2.9508   O.3       1 RES1   0.0000
     4 N1       6.9486  10.3667   9.2982   N.pl3     1 RES1   0.0000
     5 N2       5.7539   6.0673   4.5627   N.2       1 RES1   0.0000
     6 N3       5.5645   7.9148   2.4413   N.3       1 RES1   0.0000
     7 H1       6.3298   8.4799   2.7482   H         1 RES1   0.0000
     8 N4       3.3078   9.0235   3.5311   N.3       1 RES1   0.0000
     9 H2       2.4907   8.6390   3.1012   H         1 RES1   0.0000
    10 N5       3.2375   7.1018   5.5579   N.2       1 RES1   0.0000
    11 N6       1.9946   1.9665   1.7627   N.pl3     1 RES1   0.0000
    12 C1       5.0037  11.8869   9.0068   C.3       1 RES1   0.0000
    13 H3       4.5587  11.2624   8.3964   H         1 RES1   0.0000
    14 H4       4.7700  12.8059   8.7606   H         1 RES1   0.0000
    15 H5       4.7115  11.7102   9.9252   H         1 RES1   0.0000
    16 C2       6.5050  11.7048   8.9097   C.3       1 RES1   0.0000
    17 H6       6.7909  11.8801   7.9787   H         1 RES1   0.0000
    18 H7       6.9486  12.3716   9.4920   H         1 RES1   0.0000
    19 C3       9.3374  10.6190   9.8759   C.3       1 RES1   0.0000
    20 H8       9.6323   9.8845   9.2979   H         1 RES1   0.0000
    21 H9       9.9468  10.6989  10.6396   H         1 RES1   0.0000
    22 H10      9.3395  11.4560   9.3668   H         1 RES1   0.0000
    23 C4       7.9442  10.3381  10.3738   C.3       1 RES1   0.0000
    24 H11      7.9282   9.4490  10.8056   H         1 RES1   0.0000
    25 H12      7.7027  11.0132  11.0573   H         1 RES1   0.0000
    26 C5       6.8346   9.3254   8.4034   C.ar      1 RES1   0.0000
    27 C6       6.2075   9.5008   7.1643   C.ar      1 RES1   0.0000
    28 H13      5.8932  10.3658   6.9295   H         1 RES1   0.0000
    29 C7       6.0263   8.4490   6.2600   C.ar      1 RES1   0.0000
    30 C8       6.4909   7.1535   6.6004   C.ar      1 RES1   0.0000
    31 C9       7.1831   7.0062   7.8226   C.ar      1 RES1   0.0000
    32 H14      7.5465   6.1541   8.0377   H         1 RES1   0.0000
    33 C10      7.3536   8.0296   8.7114   C.ar      1 RES1   0.0000
    34 H15      7.8131   7.8795   9.5300   H         1 RES1   0.0000
    35 C11      6.4726   6.0937   5.6482   C.2       1 RES1   0.0000
    36 H16      7.0314   5.3438   5.8198   H         1 RES1   0.0000
    37 C12      6.2027   5.1077   3.5231   C.3       1 RES1   0.0000
    38 H17      5.4174   4.6677   3.1110   H         1 RES1   0.0000
    39 H18      6.7700   4.4087   3.9338   H         1 RES1   0.0000
    40 C13      6.9950   5.8608   2.4570   C.3       1 RES1   0.0000
    41 H19      7.7154   6.3777   2.8972   H         1 RES1   0.0000
    42 H20      7.4232   5.2035   1.8523   H         1 RES1   0.0000
    43 C14      6.1436   6.8075   1.6301   C.3       1 RES1   0.0000
    44 H21      6.6979   7.1916   0.9071   H         1 RES1   0.0000
    45 H22      5.4084   6.2954   1.2095   H         1 RES1   0.0000
    46 C15      4.7087   8.7756   1.5850   C.3       1 RES1   0.0000
    47 H23      4.0321   8.2265   1.1153   H         1 RES1   0.0000
    48 H24      5.2610   9.2396   0.9071   H         1 RES1   0.0000
    49 C16      4.0328   9.7799   2.4823   C.3       1 RES1   0.0000
    50 H25      4.7066  10.3774   2.8944   H         1 RES1   0.0000
    51 H26      3.3998  10.3342   1.9606   H         1 RES1   0.0000
    52 C17      2.8404   9.9472   4.6032   C.3       1 RES1   0.0000
    53 H27      2.2834  10.6575   4.1982   H         1 RES1   0.0000
    54 H28      3.6265  10.3808   5.0210   H         1 RES1   0.0000
    55 C18      2.0376   9.2417   5.6763   C.3       1 RES1   0.0000
    56 H29      1.2614   8.7974   5.2516   H         1 RES1   0.0000
    57 H30      1.6880   9.9185   6.3092   H         1 RES1   0.0000
    58 C19      2.8323   8.2021   6.4583   C.3       1 RES1   0.0000
    59 H31      3.6371   8.6235   6.8521   H         1 RES1   0.0000
    60 H32      2.2782   7.8438   7.1953   H         1 RES1   0.0000
    61 C20      2.5101   6.0182   5.6327   C.2       1 RES1   0.0000
    62 H33      1.9582   5.9159   6.3993   H         1 RES1   0.0000
    63 C21      2.4766   4.9775   4.6637   C.ar      1 RES1   0.0000
    64 C22      1.7546   3.7904   4.9394   C.ar      1 RES1   0.0000
    65 H34      1.3820   3.6724   5.8043   H         1 RES1   0.0000
    66 C23      1.5735   2.8084   4.0083   C.ar      1 RES1   0.0000
    67 H35      1.0901   2.0230   4.2348   H         1 RES1   0.0000
    68 C24      2.1101   2.9602   2.6905   C.ar      1 RES1   0.0000
    69 C25      2.7779   4.1636   2.3937   C.ar      1 RES1   0.0000
    70 H36      3.1273   4.2924   1.5189   H         1 RES1   0.0000
    71 C26      2.9446   5.1730   3.3389   C.ar      1 RES1   0.0000
    72 C27      2.5708   2.1159   0.4233   C.3       1 RES1   0.0000
    73 H37      2.4189   3.0417   0.1041   H         1 RES1   0.0000
    74 H38      2.1109   1.4989  -0.1997   H         1 RES1   0.0000
    75 C28      4.0586   1.8215   0.4107   C.3       1 RES1   0.0000
    76 H39      4.3982   1.8941  -0.5049   H         1 RES1   0.0000
    77 H40      4.2141   0.9142   0.7482   H         1 RES1   0.0000
    78 H41      4.5239   2.4662   0.9845   H         1 RES1   0.0000
    79 C29      1.1221   0.8097   1.9535   C.3       1 RES1   0.0000
    80 H42      1.1357   0.5465   2.9085   H         1 RES1   0.0000
    81 H43      1.4685   0.0494   1.4233   H         1 RES1   0.0000
    82 C30     -0.2993   1.0965   1.5386   C.3       1 RES1   0.0000
    83 H44     -0.3103   1.4278   0.6160   H         1 RES1   0.0000
    84 H45     -0.6826   1.7750   2.1336   H         1 RES1   0.0000
    85 H46     -0.8287   0.2747   1.5977   H         1 RES1   0.0000
    86 Cl1      7.9677  10.7845   1.6821   Cl        2 RES2   0.0000
    87 O3       8.9717  11.7385   2.0047   O.2       2 RES2   0.0000
    88 O4       8.1037   9.6248   2.4880   O.2       2 RES2   0.0000
    89 O5       7.8973  10.5142   0.3305   O.2       2 RES2   0.0000
    90 O6       6.6796  11.4042   2.0365   O.3       2 RES2  -1.0000
@<TRIPOS>BOND
     1     1     2    1
     2     2    29    1
     3     3     1    1
     4     4    16    1
     5     5     1    1
     6     6     1    1
     7     7     6    1
     8     8     1    1
     9     9     8    1
    10    10     1    1
    11    11    68    1
    12    12    13    1
    13    14    12    1
    14    15    12    1
    15    16    12    1
    16    17    16    1
    17    18    16    1
    18    19    20    1
    19    21    19    1
    20    22    19    1
    21    23     4    1
    22    24    23    1
    23    25    23    1
    24    26     4    1
    25    27    26   ar
    26    28    27    1
    27    29    27   ar
    28    30    29   ar
    29    31    30   ar
    30    32    31    1
    31    33    26   ar
    32    34    33    1
    33    35     5    2
    34    36    35    1
    35    37     5    1
    36    38    37    1
    37    39    37    1
    38    40    37    1
    39    41    40    1
    40    42    40    1
    41    43     6    1
    42    44    43    1
    43    45    43    1
    44    46     6    1
    45    47    46    1
    46    48    46    1
    47    49     8    1
    48    50    49    1
    49    51    49    1
    50    52     8    1
    51    53    52    1
    52    54    52    1
    53    55    52    1
    54    56    55    1
    55    57    55    1
    56    58    10    1
    57    59    58    1
    58    60    58    1
    59    61    10    2
    60    62    61    1
    61    63    61    1
    62    64    63   ar
    63    65    64    1
    64    66    64   ar
    65    67    66    1
    66    68    66   ar
    67    69    68   ar
    68    70    69    1
    69    71     3    1
    70    72    11    1
    71    73    72    1
    72    74    72    1
    73    75    72    1
    74    76    75    1
    75    77    75    1
    76    78    75    1
    77    79    11    1
    78    80    79    1
    79    81    79    1
    80    82    79    1
    81    83    82    1
    82    84    82    1
    83    85    82    1
    84    19    23    1
    85    30    35    1
    86    31    33   ar
    87    40    43    1
    88    46    49    1
    89    55    58    1
    90    63    71   ar
    91    69    71   ar
    92    86    87    2
    93    88    86    2
    94    89    86    2
    95    90    86    1
@<TRIPOS>SUBSTRUCTURE
     1 RES1        1 GROUP             0 ****  ****    0  
     2 RES2       86 GROUP             0 ****  ****    0  
@<TRIPOS>CRYSIN
    7.6630   14.7250   15.0880  109.1200   98.5400   91.0100     2     1
