@<TRIPOS>MOLECULE
TAYBAZ01
    90    95     2     0     0
SMALL
USER_CHARGES
****
Generated from the CSD

@<TRIPOS>ATOM
     1 Fe1      4.3714   9.6583   9.9631   Fe        1 RES1   1.0000
     2 O1       3.3973   8.4003   8.9549   O.3       1 RES1   0.0000
     3 C1       2.8272   8.6662   7.7931   C.ar      1 RES1   0.0000
     4 C2       2.6408   7.6121   6.8879   C.ar      1 RES1   0.0000
     5 H1       2.9541   6.7460   7.1215   H         1 RES1   0.0000
     6 C3       2.0042   7.7905   5.6432   C.ar      1 RES1   0.0000
     7 N1       1.8945   6.7434   4.7550   N.pl3     1 RES1   0.0000
     8 C4       2.3432   5.4081   5.1476   C.3       1 RES1   0.0000
     9 H2       1.9015   4.7382   4.5684   H         1 RES1   0.0000
    10 H3       2.0592   5.2360   6.0795   H         1 RES1   0.0000
    11 C5       3.8475   5.2279   5.0501   C.3       1 RES1   0.0000
    12 H4       4.1373   5.3961   4.1302   H         1 RES1   0.0000
    13 H5       4.0832   4.3109   5.3043   H         1 RES1   0.0000
    14 H6       4.2913   5.8584   5.6540   H         1 RES1   0.0000
    15 C6       0.9069   6.7740   3.6821   C.3       1 RES1   0.0000
    16 H7       1.1539   6.1072   2.9927   H         1 RES1   0.0000
    17 H8       0.9157   7.6674   3.2567   H         1 RES1   0.0000
    18 C7      -0.4981   6.4753   4.1878   C.3       1 RES1   0.0000
    19 H9      -1.1126   6.4084   3.4281   H         1 RES1   0.0000
    20 H10     -0.7914   7.1953   4.7847   H         1 RES1   0.0000
    21 H11     -0.4951   5.6260   4.6793   H         1 RES1   0.0000
    22 C8       1.4919   9.0813   5.3380   C.ar      1 RES1   0.0000
    23 H12      1.0325   9.2305   4.5193   H         1 RES1   0.0000
    24 C9       1.6625  10.1070   6.2265   C.ar      1 RES1   0.0000
    25 H13      1.2987  10.9581   6.0121   H         1 RES1   0.0000
    26 C10      2.3551   9.9583   7.4492   C.ar      1 RES1   0.0000
    27 C11      2.3725  11.0188   8.4011   C.2       1 RES1   0.0000
    28 H14      1.8123  11.7666   8.2268   H         1 RES1   0.0000
    29 N2       3.0856  11.0527   9.4847   N.2       1 RES1   0.0000
    30 C12      2.6430  12.0088  10.5208   C.3       1 RES1   0.0000
    31 H15      2.0801  12.7118  10.1100   H         1 RES1   0.0000
    32 H16      3.4300  12.4433  10.9344   H         1 RES1   0.0000
    33 C13      1.8420  11.2616  11.5887   C.3       1 RES1   0.0000
    34 H17      1.4162  11.9212  12.1913   H         1 RES1   0.0000
    35 H18      1.1210  10.7463  11.1479   H         1 RES1   0.0000
    36 C14      2.6937  10.3126  12.4168   C.3       1 RES1   0.0000
    37 H19      3.4277  10.8247  12.8401   H         1 RES1   0.0000
    38 H20      2.1381   9.9272  13.1393   H         1 RES1   0.0000
    39 N3       3.2781   9.2037  11.6109   N.3       1 RES1   0.0000
    40 H21      2.5151   8.6349  11.3037   H         1 RES1   0.0000
    41 C15      4.1338   8.3465  12.4688   C.3       1 RES1   0.0000
    42 H22      3.5830   7.8838  13.1491   H         1 RES1   0.0000
    43 H23      4.8125   8.8973  12.9342   H         1 RES1   0.0000
    44 C16      4.8063   7.3401  11.5690   C.3       1 RES1   0.0000
    45 H24      5.4344   6.7816  12.0916   H         1 RES1   0.0000
    46 H25      4.1309   6.7485  11.1535   H         1 RES1   0.0000
    47 N4       5.5429   8.0941  10.5183   N.3       1 RES1   0.0000
    48 H26      6.3594   8.4773  10.9498   H         1 RES1   0.0000
    49 C17      6.0043   7.1709   9.4528   C.3       1 RES1   0.0000
    50 H27      5.2173   6.7404   9.0343   H         1 RES1   0.0000
    51 H28      6.5590   6.4586   9.8587   H         1 RES1   0.0000
    52 C18      6.8146   7.8794   8.3755   C.3       1 RES1   0.0000
    53 H29      7.1650   7.2036   7.7437   H         1 RES1   0.0000
    54 H30      7.5896   8.3254   8.7998   H         1 RES1   0.0000
    55 C19      6.0156   8.9192   7.5924   C.3       1 RES1   0.0000
    56 H31      6.5684   9.2775   6.8533   H         1 RES1   0.0000
    57 H32      5.2110   8.4957   7.2002   H         1 RES1   0.0000
    58 N5       5.6123  10.0183   8.4914   N.2       1 RES1   0.0000
    59 C20      6.3306  11.0971   8.4176   C.2       1 RES1   0.0000
    60 H33      6.8782  11.1993   7.6482   H         1 RES1   0.0000
    61 C21      6.3740  12.1431   9.3857   C.ar      1 RES1   0.0000
    62 C22      7.0894  13.3285   9.1145   C.ar      1 RES1   0.0000
    63 H34      7.4611  13.4453   8.2478   H         1 RES1   0.0000
    64 C23      7.2721  14.3171  10.0405   C.ar      1 RES1   0.0000
    65 H35      7.7618  15.0984   9.8137   H         1 RES1   0.0000
    66 C24      6.7222  14.1697  11.3585   C.ar      1 RES1   0.0000
    67 N6       6.8386  15.1630  12.2816   N.pl3     1 RES1   0.0000
    68 C25      7.7089  16.3202  12.0917   C.3       1 RES1   0.0000
    69 H36      7.3599  17.0790  12.6224   H         1 RES1   0.0000
    70 H37      7.6926  16.5850  11.1380   H         1 RES1   0.0000
    71 C26      9.1356  16.0439  12.5031   C.3       1 RES1   0.0000
    72 H38      9.5135  15.3498  11.9245   H         1 RES1   0.0000
    73 H39      9.1542  15.7405  13.4342   H         1 RES1   0.0000
    74 H40      9.6648  16.8647  12.4160   H         1 RES1   0.0000
    75 C27      6.2614  15.0185  13.6194   C.3       1 RES1   0.0000
    76 H41      6.7179  15.6405  14.2403   H         1 RES1   0.0000
    77 H42      6.4172  14.0962  13.9440   H         1 RES1   0.0000
    78 C28      4.7676  15.3077  13.6280   C.3       1 RES1   0.0000
    79 H43      4.3104  14.6840  13.0255   H         1 RES1   0.0000
    80 H44      4.6111  16.2269  13.3260   H         1 RES1   0.0000
    81 H45      4.4186  15.1995  14.5366   H         1 RES1   0.0000
    82 C29      6.0521  12.9631  11.6548   C.ar      1 RES1   0.0000
    83 H46      5.6986  12.8380  12.5284   H         1 RES1   0.0000
    84 C30      5.8902  11.9491  10.7125   C.ar      1 RES1   0.0000
    85 O2       5.3314  10.8123  11.0969   O.3       1 RES1   0.0000
    86 Cl1      0.8727   6.3382  12.3676   Cl        2 RES2   0.0000
    87 O3      -0.1341   5.3836  12.0386   O.2       2 RES2   0.0000
    88 O4       2.1603   5.7217  12.0087   O.3       2 RES2  -1.0000
    89 O5       0.7273   7.4994  11.5593   O.2       2 RES2   0.0000
    90 O6       0.9408   6.6043  13.7235   O.2       2 RES2   0.0000
@<TRIPOS>BOND
     1     1     2    1
     2     2     3    1
     3     3     4   ar
     4     4     5    1
     5     6     4   ar
     6     7     6    1
     7     8     7    1
     8     9     8    1
     9    10     8    1
    10    11     8    1
    11    12    11    1
    12    13    11    1
    13    14    11    1
    14    15     7    1
    15    16    15    1
    16    17    15    1
    17    18    15    1
    18    19    18    1
    19    20    18    1
    20    21    18    1
    21    22     6   ar
    22    23    22    1
    23    24    22   ar
    24    25    24    1
    25    26     3   ar
    26    27    26    1
    27    28    27    1
    28    29     1    1
    29    30    29    1
    30    31    30    1
    31    32    30    1
    32    33    30    1
    33    34    33    1
    34    35    33    1
    35    36    33    1
    36    37    36    1
    37    38    36    1
    38    39     1    1
    39    40    39    1
    40    41    39    1
    41    42    41    1
    42    43    41    1
    43    44    41    1
    44    45    44    1
    45    46    44    1
    46    47     1    1
    47    48    47    1
    48    49    47    1
    49    50    49    1
    50    51    49    1
    51    52    49    1
    52    53    52    1
    53    54    52    1
    54    55    52    1
    55    56    55    1
    56    57    55    1
    57    58     1    1
    58    59    58    2
    59    60    59    1
    60    61    59    1
    61    62    61   ar
    62    63    62    1
    63    64    62   ar
    64    65    64    1
    65    66    64   ar
    66    67    66    1
    67    68    67    1
    68    69    68    1
    69    70    68    1
    70    71    68    1
    71    72    71    1
    72    73    71    1
    73    74    71    1
    74    75    67    1
    75    76    75    1
    76    77    75    1
    77    78    75    1
    78    79    78    1
    79    80    78    1
    80    81    78    1
    81    82    66   ar
    82    83    82    1
    83    84    61   ar
    84    85     1    1
    85    24    26   ar
    86    27    29    2
    87    36    39    1
    88    44    47    1
    89    55    58    1
    90    82    84   ar
    91    84    85    1
    92    86    87    2
    93    88    86    1
    94    89    86    2
    95    90    86    2
@<TRIPOS>SUBSTRUCTURE
     1 RES1        1 GROUP             0 ****  ****    0  
     2 RES2       86 GROUP             0 ****  ****    0  
@<TRIPOS>CRYSIN
    7.6716   14.7421   15.0675  109.1030   98.5700   91.1290     2     1
