@<TRIPOS>MOLECULE
TAYYUO
    89    90     1     0     0
SMALL
NO_CHARGES
****
Generated from the CSD

@<TRIPOS>ATOM
     1 Fe1     -2.3279   5.9074  -7.8770   Fe        1 RES1   0.0000
     2 P1      -2.8290   4.2090  -6.5703   P.3       1 RES1   0.0000
     3 P2      -4.2110   5.4671  -8.9479   P.3       1 RES1   0.0000
     4 P3      -1.6510   7.3879  -9.4198   P.3       1 RES1   0.0000
     5 P4      -0.3637   6.2659  -6.9151   P.3       1 RES1   0.0000
     6 O1      -2.9786   7.5962  -6.9151   O.3       1 RES1   0.0000
     7 O2      -5.8098   8.6821  -3.7933   O.2       1 RES1   0.0000
     8 O3      -6.3557   6.5235  -3.9748   O.3       1 RES1   0.0000
     9 C1      -3.6589   9.5055  -5.6628   C.3       1 RES1   0.0000
    10 C2      -3.8170   8.0145  -6.0258   C.2       1 RES1   0.0000
    11 C3      -4.7162   7.2337  -5.4087   C.2       1 RES1   0.0000
    12 C4      -5.6399   7.6274  -4.3015   C.2       1 RES1   0.0000
    13 C5      -7.2549   6.7580  -2.8858   C.3       1 RES1   0.0000
    14 C6      -1.8968   2.6146  -6.7155   C.3       1 RES1   0.0000
    15 C7      -1.7270   2.0340  -7.9315   C.3       1 RES1   0.0000
    16 C8      -2.7994   4.3665  -4.7371   C.3       1 RES1   0.0000
    17 C9      -3.5836   3.3462  -3.9204   C.3       1 RES1   0.0000
    18 C10     -4.5988   3.6546  -6.8788   C.3       1 RES1   0.0000
    19 C11     -4.9969   3.9203  -8.2763   C.3       1 RES1   0.0000
    20 C12     -4.2922   5.0718 -10.7266   C.3       1 RES1   0.0000
    21 C13     -3.3811   4.0679 -11.2711   C.3       1 RES1   0.0000
    22 C14     -5.5657   6.6973  -8.7664   C.3       1 RES1   0.0000
    23 C15     -6.8411   6.5612  -9.5468   C.3       1 RES1   0.0000
    24 C16     -1.1786   6.8729 -11.0714   C.3       1 RES1   0.0000
    25 C17     -0.0960   5.9051 -11.2711   C.3       1 RES1   0.0000
    26 C18     -2.7709   8.7723  -9.8191   C.3       1 RES1   0.0000
    27 C19     -2.2029   9.9402 -10.5814   C.3       1 RES1   0.0000
    28 C20     -0.2556   8.3327  -8.7119   C.3       1 RES1   0.0000
    29 C21      0.5541   7.5126  -7.8226   C.3       1 RES1   0.0000
    30 C22      0.8339   4.9701  -6.6792   C.3       1 RES1   0.0000
    31 C23      2.1084   5.0357  -6.4432   C.3       1 RES1   0.0000
    32 C24     -0.3958   6.9057  -5.1909   C.3       1 RES1   0.0000
    33 C25      0.5170   7.8898  -4.6464   C.3       1 RES1   0.0000
    34 H1      -2.7316   9.7073  -5.4268   H         1 RES1   0.0000
    35 H2      -3.7592  10.0616  -6.5340   H         1 RES1   0.0000
    36 H3      -4.2455   9.7696  -5.0892   H         1 RES1   0.0000
    37 H4      -4.6553   6.3168  -5.7662   H         1 RES1   0.0000
    38 H5      -6.7132   6.9057  -2.0836   H         1 RES1   0.0000
    39 H6      -7.8682   7.2977  -3.0419   H         1 RES1   0.0000
    40 H7      -7.6316   5.8083  -2.6826   H         1 RES1   0.0000
    41 H8      -1.0106   2.7590  -6.3978   H         1 RES1   0.0000
    42 H9      -2.3475   1.9782  -6.2889   H         1 RES1   0.0000
    43 H10     -2.4474   1.8421  -8.5631   H         1 RES1   0.0000
    44 H11     -1.1058   2.6146  -8.6666   H         1 RES1   0.0000
    45 H12     -1.1393   1.1974  -8.0331   H         1 RES1   0.0000
    46 H13     -1.8190   4.3189  -4.5665   H         1 RES1   0.0000
    47 H14     -3.0628   5.2440  -4.6210   H         1 RES1   0.0000
    48 H15     -4.4655   3.3757  -4.2380   H         1 RES1   0.0000
    49 H16     -3.2188   2.4555  -4.1727   H         1 RES1   0.0000
    50 H17     -3.4553   3.5201  -3.0691   H         1 RES1   0.0000
    51 H18     -4.5449   2.6852  -6.7772   H         1 RES1   0.0000
    52 H19     -5.0846   4.0696  -6.3270   H         1 RES1   0.0000
    53 H20     -5.8961   4.0187  -8.3834   H         1 RES1   0.0000
    54 H21     -4.7076   3.1822  -8.9243   H         1 RES1   0.0000
    55 H22     -5.1854   4.7798 -11.0097   H         1 RES1   0.0000
    56 H23     -4.1944   5.9330 -11.3164   H         1 RES1   0.0000
    57 H24     -3.3448   3.2002 -10.9807   H         1 RES1   0.0000
    58 H25     -3.3699   3.9138 -12.3582   H         1 RES1   0.0000
    59 H26     -2.3487   4.3517 -11.2765   H         1 RES1   0.0000
    60 H27     -5.7672   6.6711  -7.9533   H         1 RES1   0.0000
    61 H28     -5.1332   7.5306  -9.0786   H         1 RES1   0.0000
    62 H29     -7.3531   7.2665  -9.4525   H         1 RES1   0.0000
    63 H30     -6.5515   6.5940 -10.5977   H         1 RES1   0.0000
    64 H31     -7.1803   5.7246  -9.4779   H         1 RES1   0.0000
    65 H32     -1.9668   6.4989 -11.5960   H         1 RES1   0.0000
    66 H33     -0.9440   7.6602 -11.6976   H         1 RES1   0.0000
    67 H34     -0.2885   5.0833 -10.8681   H         1 RES1   0.0000
    68 H35      0.0840   5.6738 -12.2530   H         1 RES1   0.0000
    69 H36      0.7349   6.2446 -10.9662   H         1 RES1   0.0000
    70 H37     -3.4202   8.4410 -10.4561   H         1 RES1   0.0000
    71 H38     -3.0392   9.1562  -9.1330   H         1 RES1   0.0000
    72 H39     -1.2545  10.2437 -10.2293   H         1 RES1   0.0000
    73 H40     -1.6257   9.5219 -11.5524   H         1 RES1   0.0000
    74 H41     -2.5825  10.5865 -10.9553   H         1 RES1   0.0000
    75 H42      0.4210   8.5574  -9.5523   H         1 RES1   0.0000
    76 H43     -0.4425   9.0627  -8.3653   H         1 RES1   0.0000
    77 H44      1.0413   8.0768  -7.3071   H         1 RES1   0.0000
    78 H45      1.2929   7.0467  -8.4397   H         1 RES1   0.0000
    79 H46      0.5178   4.2845  -6.2490   H         1 RES1   0.0000
    80 H47      1.0247   4.5371  -7.6919   H         1 RES1   0.0000
    81 H48      2.5557   4.1582  -6.3815   H         1 RES1   0.0000
    82 H49      2.6387   5.6016  -6.9441   H         1 RES1   0.0000
    83 H50      2.1301   5.3605  -5.4976   H         1 RES1   0.0000
    84 H51     -1.1744   7.5536  -5.1382   H         1 RES1   0.0000
    85 H52     -0.6276   6.2053  -4.6010   H         1 RES1   0.0000
    86 H53      1.5991   7.0123  -4.8496   H         1 RES1   0.0000
    87 H54      1.0490   8.3622  -5.3796   H         1 RES1   0.0000
    88 H55      0.8194   7.9604  -3.9004   H         1 RES1   0.0000
    89 H56     -1.7895   4.6388  -8.7192   H         1 RES1   0.0000
@<TRIPOS>BOND
     1     1     2    1
     2     2    14    1
     3     3     1    1
     4     4     1    1
     5     5     1    1
     6     6     1    1
     7     7    12    2
     8     8    12    1
     9     9    10    1
    10    10     6    1
    11    11    10    2
    12    12    11    1
    13    13     8    1
    14    14    15    1
    15    15    43    1
    16    16     2    1
    17    17    16    1
    18    18     2    1
    19    19     3    1
    20    20     3    1
    21    21    20    1
    22    22     3    1
    23    23    22    1
    24    24     4    1
    25    25    24    1
    26    26     4    1
    27    27    26    1
    28    28     4    1
    29    29     5    1
    30    30     5    1
    31    31    30    1
    32    32     5    1
    33    33    32    1
    34    34     9    1
    35    35     9    1
    36    36     9    1
    37    37    11    1
    38    38    13    1
    39    39    13    1
    40    40    13    1
    41    41    14    1
    42    42    14    1
    43    44    15    1
    44    45    15    1
    45    46    16    1
    46    47    16    1
    47    48    17    1
    48    49    17    1
    49    50    17    1
    50    51    18    1
    51    52    18    1
    52    53    19    1
    53    54    19    1
    54    55    20    1
    55    56    20    1
    56    57    21    1
    57    58    21    1
    58    59    21    1
    59    60    22    1
    60    61    22    1
    61    62    23    1
    62    63    23    1
    63    64    23    1
    64    65    24    1
    65    66    24    1
    66    67    25    1
    67    68    25    1
    68    69    25    1
    69    70    26    1
    70    71    26    1
    71    72    27    1
    72    73    27    1
    73    74    27    1
    74    75    28    1
    75    76    28    1
    76    77    29    1
    77    78    29    1
    78    79    30    1
    79    80    30    1
    80    81    31    1
    81    82    31    1
    82    83    31    1
    83    84    32    1
    84    85    32    1
    85    86    33    1
    86    87    33    1
    87    88    33    1
    88    89     1    1
    89    18    19    1
    90    28    29    1
@<TRIPOS>SUBSTRUCTURE
     1 RES1        1 GROUP             0 ****  ****    0  
@<TRIPOS>CRYSIN
   10.9870   16.4030   18.3260   90.0000   97.9500   90.0000     9     1
