@<TRIPOS>MOLECULE
TAZSAO
    46    54     1     0     0
SMALL
NO_CHARGES
****
Generated from the CSD

@<TRIPOS>ATOM
     1 Fe1      2.7255   4.6348   7.5741   Fe        1 RES1   0.0000
     2 C1       2.7255   4.6348  10.0573   C.3       1 RES1   0.0000
     3 C2       3.3306   6.6796   6.2530   C.3       1 RES1   0.0000
     4 N1       1.9798   5.4542   9.3483   N.2       1 RES1   0.0000
     5 N2       4.1722   6.1308   7.1080   N.2       1 RES1   0.0000
     6 N3       2.1553   6.0975   6.2103   N.2       1 RES1   0.0000
     7 C3       1.0564   6.3051   9.9686   C.ar      1 RES1   0.0000
     8 C4       0.3118   5.9195  11.0617   C.ar      1 RES1   0.0000
     9 C5      -0.5353   6.8020  11.6788   C.ar      1 RES1   0.0000
    10 C6      -0.6607   8.0756  11.2078   C.ar      1 RES1   0.0000
    11 C7       0.0512   8.4593  10.1262   C.ar      1 RES1   0.0000
    12 C8       0.9038   7.5899   9.5042   C.ar      1 RES1   0.0000
    13 C9       5.4412   6.6536   7.3870   C.ar      1 RES1   0.0000
    14 C10      5.8555   7.8772   6.9882   C.ar      1 RES1   0.0000
    15 C11      7.1223   8.3370   7.2722   C.ar      1 RES1   0.0000
    16 C12      7.9650   7.5973   7.9959   C.ar      1 RES1   0.0000
    17 C13      7.5758   6.4015   8.4489   C.ar      1 RES1   0.0000
    18 C14      6.3057   5.9306   8.1486   C.ar      1 RES1   0.0000
    19 C15      1.1545   6.4479   5.2912   C.ar      1 RES1   0.0000
    20 C16      1.4009   6.9966   4.0488   C.ar      1 RES1   0.0000
    21 C17      0.3412   7.2821   3.1938   C.ar      1 RES1   0.0000
    22 C18     -0.9310   7.0374   3.6024   C.ar      1 RES1   0.0000
    23 C19     -1.1883   6.4998   4.8120   C.ar      1 RES1   0.0000
    24 C20     -0.1548   6.1976   5.6621   C.ar      1 RES1   0.0000
    25 N1A      3.4712   3.8153   9.3483   N.2       1 RES1   0.0000
    26 N2A      1.2788   3.1387   7.1080   N.2       1 RES1   0.0000
    27 C2A      2.1204   2.5899   6.2530   C.3       1 RES1   0.0000
    28 N3A      3.2957   3.1720   6.2103   N.2       1 RES1   0.0000
    29 C15A     4.2965   2.8216   5.2912   C.ar      1 RES1   0.0000
    30 C16A     4.0501   2.2729   4.0488   C.ar      1 RES1   0.0000
    31 C17A     5.1098   1.9874   3.1938   C.ar      1 RES1   0.0000
    32 C18A     6.3820   2.2321   3.6024   C.ar      1 RES1   0.0000
    33 C19A     6.6393   2.7697   4.8120   C.ar      1 RES1   0.0000
    34 C20A     5.6058   3.0719   5.6621   C.ar      1 RES1   0.0000
    35 C9A      0.0098   2.6159   7.3870   C.ar      1 RES1   0.0000
    36 C10A    -0.4045   1.3923   6.9882   C.ar      1 RES1   0.0000
    37 C11A    -1.6713   0.9325   7.2722   C.ar      1 RES1   0.0000
    38 C12A    -2.5140   1.6722   7.9959   C.ar      1 RES1   0.0000
    39 C13A    -2.1248   2.8680   8.4489   C.ar      1 RES1   0.0000
    40 C14A    -0.8547   3.3389   8.1486   C.ar      1 RES1   0.0000
    41 C3A      4.3946   2.9644   9.9686   C.ar      1 RES1   0.0000
    42 C4A      5.1392   3.3500  11.0617   C.ar      1 RES1   0.0000
    43 C5A      5.9863   2.4675  11.6788   C.ar      1 RES1   0.0000
    44 C6A      6.1117   1.1939  11.2078   C.ar      1 RES1   0.0000
    45 C7A      5.3998   0.8102  10.1262   C.ar      1 RES1   0.0000
    46 C8A      4.5472   1.6796   9.5042   C.ar      1 RES1   0.0000
@<TRIPOS>BOND
     1     1     4    1
     2     2     4   un
     3     3     5   un
     4     4     7    1
     5     5     1    1
     6     6     1    1
     7     7     8   ar
     8     8     9   ar
     9     9    10   ar
    10    10    11   ar
    11    11    12   ar
    12    12     7   ar
    13    13     5    1
    14    14    13   ar
    15    15    14   ar
    16    16    15   ar
    17    17    16   ar
    18    18    13   ar
    19    19     6    1
    20    20    19   ar
    21    21    20   ar
    22    22    21   ar
    23    23    22   ar
    24    24    19   ar
    25    25     1    1
    26    26     1    1
    27    27    26   un
    28    28     1    1
    29    29    28    1
    30    30    29   ar
    31    31    30   ar
    32    32    31   ar
    33    33    32   ar
    34    34    29   ar
    35    35    26    1
    36    36    35   ar
    37    37    36   ar
    38    38    37   ar
    39    39    38   ar
    40    40    35   ar
    41    41    25    1
    42    42    41   ar
    43    43    42   ar
    44    44    43   ar
    45    45    44   ar
    46    46    41   ar
    47     2    25   un
    48     3     6   un
    49    17    18   ar
    50    23    24   ar
    51    27    28   un
    52    33    34   ar
    53    39    40   ar
    54    45    46   ar
@<TRIPOS>SUBSTRUCTURE
     1 RES1        1 GROUP             0 ****  ****    0  
@<TRIPOS>CRYSIN
   10.9020   18.5390   16.4120   90.0000   90.0000   90.0000    56     1
