@<TRIPOS>MOLECULE
TAZTAP
    67    78     2     0     0
SMALL
USER_CHARGES
****
Generated from the CSD

@<TRIPOS>ATOM
     1 Fe1      0.0000  14.2206   5.1755   Fe        1 RES1  -1.0000
     2 N1       0.3842  16.1245   4.1901   N.2       1 RES1   0.0000
     3 N2       1.8681  13.5414   6.0512   N.2       1 RES1   0.0000
     4 N3       1.2269  12.7213   4.2066   N.2       1 RES1   0.0000
     5 N4       0.0000  16.8982   5.1755   N.2       1 RES1   0.0000
     6 N5       2.1237  12.6215   5.1486   N.2       1 RES1   0.0000
     7 C1       0.7832  16.7806   3.0163   C.ar      1 RES1   0.0000
     8 C2       1.3338  15.9979   2.0184   C.ar      1 RES1   0.0000
     9 C3       1.7260  16.5506   0.8177   C.ar      1 RES1   0.0000
    10 C4       1.5718  17.8947   0.5879   C.ar      1 RES1   0.0000
    11 C5       1.0321  18.6845   1.5734   C.ar      1 RES1   0.0000
    12 C6       0.6412  18.1479   2.7782   C.ar      1 RES1   0.0000
    13 C7       2.7216  13.5343   7.1650   C.ar      1 RES1   0.0000
    14 C8       2.4254  14.4131   8.1959   C.ar      1 RES1   0.0000
    15 C9       3.2167  14.4488   9.3325   C.ar      1 RES1   0.0000
    16 C10      4.2935  13.6127   9.4629   C.ar      1 RES1   0.0000
    17 C11      4.5924  12.7427   8.4402   C.ar      1 RES1   0.0000
    18 C12      3.8268  12.6964   7.2975   C.ar      1 RES1   0.0000
    19 C13      1.3121  11.7462   3.1943   C.ar      1 RES1   0.0000
    20 C14      2.2509  10.7212   3.1653   C.ar      1 RES1   0.0000
    21 C15      2.2455   9.7959   2.1447   C.ar      1 RES1   0.0000
    22 C16      1.3135   9.8797   1.1345   C.ar      1 RES1   0.0000
    23 C17      0.3788  10.8834   1.1572   C.ar      1 RES1   0.0000
    24 C18      0.3720  11.8211   2.1716   C.ar      1 RES1   0.0000
    25 N1C     -0.3842  16.1245   6.1609   N.2       1 RES1   0.0000
    26 N2C     -1.8681  13.5414   4.2998   N.2       1 RES1   0.0000
    27 N5C     -2.1237  12.6215   5.2024   N.2       1 RES1   0.0000
    28 N3C     -1.2269  12.7213   6.1444   N.2       1 RES1   0.0000
    29 C13C    -1.3121  11.7462   7.1567   C.ar      1 RES1   0.0000
    30 C14C    -2.2509  10.7212   7.1857   C.ar      1 RES1   0.0000
    31 C15C    -2.2455   9.7959   8.2063   C.ar      1 RES1   0.0000
    32 C16C    -1.3135   9.8797   9.2165   C.ar      1 RES1   0.0000
    33 C17C    -0.3788  10.8834   9.1938   C.ar      1 RES1   0.0000
    34 C18C    -0.3720  11.8211   8.1794   C.ar      1 RES1   0.0000
    35 C7C     -2.7216  13.5343   3.1860   C.ar      1 RES1   0.0000
    36 C8C     -2.4254  14.4131   2.1551   C.ar      1 RES1   0.0000
    37 C9C     -3.2167  14.4488   1.0185   C.ar      1 RES1   0.0000
    38 C10C    -4.2935  13.6127   0.8881   C.ar      1 RES1   0.0000
    39 C11C    -4.5924  12.7427   1.9108   C.ar      1 RES1   0.0000
    40 C12C    -3.8268  12.6964   3.0535   C.ar      1 RES1   0.0000
    41 C1C     -0.7832  16.7806   7.3347   C.ar      1 RES1   0.0000
    42 C2C     -1.3338  15.9979   8.3326   C.ar      1 RES1   0.0000
    43 C3C     -1.7260  16.5506   9.5333   C.ar      1 RES1   0.0000
    44 C4C     -1.5718  17.8947   9.7631   C.ar      1 RES1   0.0000
    45 C5C     -1.0321  18.6845   8.7776   C.ar      1 RES1   0.0000
    46 C6C     -0.6412  18.1479   7.5728   C.ar      1 RES1   0.0000
    47 Li1      0.0000   6.9597   5.1755   Li        2 RES2   1.0000
    48 O1       1.4650   8.0917   5.6516   O.3       2 RES2   0.0000
    49 O2       0.5478   5.8063   3.7471   O.3       2 RES2   0.0000
    50 C19      1.2986   9.2255   6.5191   C.3       2 RES2   0.0000
    51 C20      2.4781   9.1649   7.4403   C.3       2 RES2   0.0000
    52 C21      3.5752   8.7031   6.5004   C.3       2 RES2   0.0000
    53 C22      2.8664   7.7744   5.5606   C.3       2 RES2   0.0000
    54 C23      0.6155   6.2894   2.4097   C.3       2 RES2   0.0000
    55 C24      1.5096   5.3499   1.6541   C.3       2 RES2   0.0000
    56 C25      2.2752   4.6528   2.7265   C.3       2 RES2   0.0000
    57 C26      1.3311   4.5994   3.8402   C.3       2 RES2   0.0000
    58 O1C     -1.4650   8.0917   4.6994   O.3       2 RES2   0.0000
    59 C19C    -1.2986   9.2255   3.8319   C.3       2 RES2   0.0000
    60 C20C    -2.4781   9.1649   2.9107   C.3       2 RES2   0.0000
    61 C21C    -3.5752   8.7031   3.8506   C.3       2 RES2   0.0000
    62 C22C    -2.8664   7.7744   4.7904   C.3       2 RES2   0.0000
    63 O2C     -0.5478   5.8063   6.6039   O.3       2 RES2   0.0000
    64 C23C    -0.6155   6.2894   7.9413   C.3       2 RES2   0.0000
    65 C24C    -1.5096   5.3499   8.6969   C.3       2 RES2   0.0000
    66 C25C    -2.2752   4.6528   7.6245   C.3       2 RES2   0.0000
    67 C26C    -1.3311   4.5994   6.5108   C.3       2 RES2   0.0000
@<TRIPOS>BOND
     1     1     2    1
     2     2     5   un
     3     3     1    1
     4     4     1    1
     5     5    25   un
     6     6     3   un
     7     7     2    1
     8     8     7   ar
     9     9     8   ar
    10    10     9   ar
    11    11    10   ar
    12    12     7   ar
    13    13     3    1
    14    14    13   ar
    15    15    14   ar
    16    16    15   ar
    17    17    16   ar
    18    18    13   ar
    19    19     4    1
    20    20    19   ar
    21    21    20   ar
    22    22    21   ar
    23    23    22   ar
    24    24    19   ar
    25    25     1    1
    26    26     1    1
    27    27    26   un
    28    28     1    1
    29    29    28    1
    30    30    29   ar
    31    31    30   ar
    32    32    31   ar
    33    33    32   ar
    34    34    29   ar
    35    35    26    1
    36    36    35   ar
    37    37    36   ar
    38    38    37   ar
    39    39    38   ar
    40    40    35   ar
    41    41    25    1
    42    42    41   ar
    43    43    42   ar
    44    44    43   ar
    45    45    44   ar
    46    46    41   ar
    47     4     6   un
    48    11    12   ar
    49    17    18   ar
    50    23    24   ar
    51    27    28   un
    52    33    34   ar
    53    39    40   ar
    54    45    46   ar
    55    47    48    1
    56    48    50    1
    57    49    47    1
    58    50    51    1
    59    51    52    1
    60    52    53    1
    61    53    48    1
    62    54    49    1
    63    55    54    1
    64    56    55    1
    65    57    49    1
    66    58    47    1
    67    59    58    1
    68    60    59    1
    69    61    60    1
    70    62    58    1
    71    63    47    1
    72    64    63    1
    73    65    64    1
    74    66    65    1
    75    67    63    1
    76    56    57    1
    77    61    62    1
    78    66    67    1
@<TRIPOS>SUBSTRUCTURE
     1 RES1        1 GROUP             0 ****  ****    0  
     2 RES2       47 GROUP             0 ****  ****    0  
@<TRIPOS>CRYSIN
   13.5270   17.8270   20.7020   90.0000   90.0000   90.0000    60     1
