@<TRIPOS>MOLECULE
TCPSNF
    47    52     1     0     0
SMALL
NO_CHARGES
****
Generated from the CSD

@<TRIPOS>ATOM
     1 Fe1      2.6935   4.9868   3.4536   Fe        1 RES1   0.0000
     2 Sn1      4.7300   4.1836   4.9749   Sn        1 RES1   0.0000
     3 Sn2      2.7289   2.8950   1.8195   Sn        1 RES1   0.0000
     4 O1       4.9223   6.2187   1.9908   O.2       1 RES1   0.0000
     5 O2       0.6185   6.0763   1.6971   O.2       1 RES1   0.0000
     6 O3       1.0872   3.0672   5.0016   O.2       1 RES1   0.0000
     7 O4       2.2286   7.2019   5.3218   O.2       1 RES1   0.0000
     8 C1       4.0861   5.7090   2.5463   C.1       1 RES1   0.0000
     9 C2       1.4134   5.6142   2.3755   C.1       1 RES1   0.0000
    10 C3       1.7421   3.8070   4.4143   C.1       1 RES1   0.0000
    11 C4       2.4646   6.3224   4.6092   C.1       1 RES1   0.0000
    12 C5       4.2452   2.9705   6.6759   C.ar      1 RES1   0.0000
    13 C6       6.2660   3.0583   3.9423   C.ar      1 RES1   0.0000
    14 C7       5.6686   5.9557   5.7824   C.ar      1 RES1   0.0000
    15 C8       3.0587   1.0139   2.7995   C.ar      1 RES1   0.0000
    16 C9       4.0568   3.0862   0.1278   C.ar      1 RES1   0.0000
    17 C10      0.7533   2.6106   1.0289   C.ar      1 RES1   0.0000
    18 C11      3.6540   1.7371   6.5532   C.ar      1 RES1   0.0000
    19 C12      3.4554   0.9164   7.6605   C.ar      1 RES1   0.0000
    20 C13      3.7970   1.3413   8.8907   C.ar      1 RES1   0.0000
    21 C14      4.4209   2.5327   9.0514   C.ar      1 RES1   0.0000
    22 C15      4.6704   3.3451   7.9491   C.ar      1 RES1   0.0000
    23 C16      6.7224   3.3768   2.6628   C.ar      1 RES1   0.0000
    24 C17      6.7874   1.9381   4.5814   C.ar      1 RES1   0.0000
    25 C18      7.6949   2.5613   2.0718   C.ar      1 RES1   0.0000
    26 C19      8.1967   1.4924   2.7362   C.ar      1 RES1   0.0000
    27 C20      7.7810   1.1973   3.9752   C.ar      1 RES1   0.0000
    28 C21      5.1151   6.6510   6.8468   C.ar      1 RES1   0.0000
    29 C22      6.8568   6.4023   5.2382   C.ar      1 RES1   0.0000
    30 C23      5.7577   7.7523   7.3859   C.ar      1 RES1   0.0000
    31 C24      6.9177   8.1790   6.8379   C.ar      1 RES1   0.0000
    32 C25      7.4677   7.5576   5.8065   C.ar      1 RES1   0.0000
    33 C26      1.9670   0.3983   3.3867   C.ar      1 RES1   0.0000
    34 C27      2.0937  -0.7975   4.0663   C.ar      1 RES1   0.0000
    35 C28      3.3256  -1.4107   4.1562   C.ar      1 RES1   0.0000
    36 C29      4.4302  -0.8012   3.5727   C.ar      1 RES1   0.0000
    37 C30      4.2930   0.3836   2.9032   C.ar      1 RES1   0.0000
    38 C31      4.8187   2.0110  -0.2632   C.ar      1 RES1   0.0000
    39 C32      5.7139   2.0941  -1.3289   C.ar      1 RES1   0.0000
    40 C33      5.7711   3.2494  -1.9996   C.ar      1 RES1   0.0000
    41 C34      4.9872   4.3432  -1.7212   C.ar      1 RES1   0.0000
    42 C35      4.1133   4.2457  -0.5784   C.ar      1 RES1   0.0000
    43 C36     -0.4262   3.0109   1.6048   C.ar      1 RES1   0.0000
    44 C37     -1.6834   2.7659   1.0251   C.ar      1 RES1   0.0000
    45 C38     -1.7275   2.0858  -0.1645   C.ar      1 RES1   0.0000
    46 C39     -0.6314   1.6042  -0.7593   C.ar      1 RES1   0.0000
    47 C40      0.6489   1.9227  -0.1620   C.ar      1 RES1   0.0000
@<TRIPOS>BOND
     1     1     2    1
     2     2    12    1
     3     3     1    1
     4     4     8    3
     5     5     9    3
     6     6    10    3
     7     7    11    3
     8     8     1    1
     9     9     1    1
    10    10     1    1
    11    11     1    1
    12    12    18   ar
    13    13     2    1
    14    14     2    1
    15    15     3    1
    16    16     3    1
    17    17     3    1
    18    18    19   ar
    19    19    20   ar
    20    20    21   ar
    21    21    22   ar
    22    22    12   ar
    23    23    13   ar
    24    24    13   ar
    25    25    23   ar
    26    26    25   ar
    27    27    24   ar
    28    28    14   ar
    29    29    14   ar
    30    30    28   ar
    31    31    30   ar
    32    32    29   ar
    33    33    15   ar
    34    34    33   ar
    35    35    34   ar
    36    36    35   ar
    37    37    15   ar
    38    38    16   ar
    39    39    38   ar
    40    40    39   ar
    41    41    40   ar
    42    42    16   ar
    43    43    17   ar
    44    44    43   ar
    45    45    44   ar
    46    46    45   ar
    47    47    17   ar
    48    26    27   ar
    49    31    32   ar
    50    36    37   ar
    51    41    42   ar
    52    46    47   ar
@<TRIPOS>SUBSTRUCTURE
     1 RES1        1 GROUP             0 ****  ****    0  
@<TRIPOS>CRYSIN
   13.1470   10.9880   12.8750   83.4300   80.9200   82.3000     2     1
