@<TRIPOS>MOLECULE
TEBROK
   115   123     1     0     0
SMALL
NO_CHARGES
****
Generated from the CSD

@<TRIPOS>ATOM
     1 Fe1      4.3724   5.7726   4.4679   Fe        1 RES1   0.0000
     2 S1       3.1265   6.1734   6.3758   S.2       1 RES1   0.0000
     3 S2       5.6405   7.2026   5.7087   S.2       1 RES1   0.0000
     4 C1       4.4189   7.1789   6.9216   C.3       1 RES1   0.0000
     5 N1       4.4394   7.8166   8.0967   N.pl3     1 RES1   0.0000
     6 C2       3.2410   7.7888   8.9813   C.3       1 RES1   0.0000
     7 H1       2.4759   7.4610   8.4282   H         1 RES1   0.0000
     8 C3       3.4150   6.8131  10.1301   C.3       1 RES1   0.0000
     9 H2       4.1650   7.1078  10.7050   H         1 RES1   0.0000
    10 H3       3.6351   5.9175   9.7721   H         1 RES1   0.0000
    11 C4       2.1296   6.7315  10.9656   C.3       1 RES1   0.0000
    12 H4       1.4069   6.3349  10.4173   H         1 RES1   0.0000
    13 H5       2.2823   6.1376  11.7434   H         1 RES1   0.0000
    14 C5       1.6943   8.0941  11.4544   C.3       1 RES1   0.0000
    15 H6       2.3565   8.4358  12.1044   H         1 RES1   0.0000
    16 H7       0.8228   8.0138  11.9185   H         1 RES1   0.0000
    17 C6       1.5611   9.0806  10.3038   C.3       1 RES1   0.0000
    18 H8       1.3303   9.9748  10.6621   H         1 RES1   0.0000
    19 H9       0.8264   8.7913   9.7060   H         1 RES1   0.0000
    20 C7       2.8589   9.1773   9.5003   C.3       1 RES1   0.0000
    21 H10      3.5837   9.5322  10.0742   H         1 RES1   0.0000
    22 H11      2.7356   9.7982   8.7392   H         1 RES1   0.0000
    23 C8       5.6565   8.5117   8.6139   C.3       1 RES1   0.0000
    24 H12      5.4172   8.8418   9.5255   H         1 RES1   0.0000
    25 C9       5.9982   9.7514   7.7950   C.3       1 RES1   0.0000
    26 H13      5.2426  10.3900   7.8313   H         1 RES1   0.0000
    27 H14      6.1365   9.4932   6.8484   H         1 RES1   0.0000
    28 C10      7.2593  10.4267   8.3260   C.3       1 RES1   0.0000
    29 H15      7.5009  11.1813   7.7330   H         1 RES1   0.0000
    30 H16      7.0803  10.7913   9.2288   H         1 RES1   0.0000
    31 C11      8.4244   9.4464   8.3973   C.3       1 RES1   0.0000
    32 H17      8.6308   9.1078   7.4899   H         1 RES1   0.0000
    33 H18      9.2283   9.9083   8.7445   H         1 RES1   0.0000
    34 C12      8.0692   8.2877   9.3052   C.3       1 RES1   0.0000
    35 H19      7.9046   8.6262  10.2207   H         1 RES1   0.0000
    36 H20      8.8313   7.6583   9.3450   H         1 RES1   0.0000
    37 C13      6.8314   7.5512   8.8110   C.3       1 RES1   0.0000
    38 H21      6.5794   6.8555   9.4683   H         1 RES1   0.0000
    39 H22      7.0370   7.1032   7.9528   H         1 RES1   0.0000
    40 S3       3.1096   3.9399   3.8411   S.2       1 RES1   0.0000
    41 C14      4.3724   2.9498   4.4679   C.3       1 RES1   0.0000
    42 N2       4.3724   1.6154   4.4679   N.pl3     1 RES1   0.0000
    43 C15      3.1979   0.9055   3.8831   C.3       1 RES1   0.0000
    44 H23      2.7492   1.5688   3.2830   H         1 RES1   0.0000
    45 C16      2.1662   0.5399   4.9467   C.3       1 RES1   0.0000
    46 H24      1.9572   1.3372   5.4955   H         1 RES1   0.0000
    47 H25      2.5381  -0.1560   5.5437   H         1 RES1   0.0000
    48 C17      0.8893   0.0225   4.2883   C.3       1 RES1   0.0000
    49 H26      0.2434  -0.2477   4.9879   H         1 RES1   0.0000
    50 H27      0.4754   0.7477   3.7548   H         1 RES1   0.0000
    51 C18      1.1872  -1.1670   3.3849   C.3       1 RES1   0.0000
    52 H28      0.3572  -1.4473   2.9238   H         1 RES1   0.0000
    53 H29      1.5031  -1.9266   3.9353   H         1 RES1   0.0000
    54 C19      2.2482  -0.8156   2.3485   C.3       1 RES1   0.0000
    55 H30      1.8896  -0.1284   1.7335   H         1 RES1   0.0000
    56 H31      2.4628  -1.6216   1.8140   H         1 RES1   0.0000
    57 C20      3.5323  -0.2867   3.0056   C.3       1 RES1   0.0000
    58 H32      3.9470  -1.0000   3.5529   H         1 RES1   0.0000
    59 H33      4.1795  -0.0161   2.3072   H         1 RES1   0.0000
    60 S3A      5.6353   3.9399   5.0946   S.2       1 RES1   0.0000
    61 C15A     5.5469   0.9055   5.0526   C.3       1 RES1   0.0000
    62 H23A     5.9957   1.5688   5.6528   H         1 RES1   0.0000
    63 C16A     6.5786   0.5399   3.9891   C.3       1 RES1   0.0000
    64 H24A     6.7877   1.3372   3.4403   H         1 RES1   0.0000
    65 H25A     6.2067  -0.1560   3.3920   H         1 RES1   0.0000
    66 C17A     7.8556   0.0225   4.6475   C.3       1 RES1   0.0000
    67 H26A     8.5014  -0.2477   3.9478   H         1 RES1   0.0000
    68 H27A     8.2694   0.7477   5.1810   H         1 RES1   0.0000
    69 C18A     7.5576  -1.1670   5.5509   C.3       1 RES1   0.0000
    70 H28A     8.3877  -1.4473   6.0120   H         1 RES1   0.0000
    71 H29A     7.2418  -1.9266   5.0004   H         1 RES1   0.0000
    72 C19A     6.4966  -0.8156   6.5873   C.3       1 RES1   0.0000
    73 H30A     6.8552  -0.1284   7.2022   H         1 RES1   0.0000
    74 H31A     6.2821  -1.6216   7.1218   H         1 RES1   0.0000
    75 C20A     5.2125  -0.2867   5.9301   C.3       1 RES1   0.0000
    76 H32A     4.7978  -1.0000   5.3829   H         1 RES1   0.0000
    77 H33A     4.5653  -0.0161   6.6285   H         1 RES1   0.0000
    78 S1A      5.6183   6.1734   2.5599   S.2       1 RES1   0.0000
    79 S2A      3.1043   7.2026   3.2271   S.2       1 RES1   0.0000
    80 C1A      4.3259   7.1789   2.0141   C.3       1 RES1   0.0000
    81 N1A      4.3054   7.8166   0.8391   N.pl3     1 RES1   0.0000
    82 C2A      5.5038   7.7888  -0.0456   C.3       1 RES1   0.0000
    83 H1A      6.2690   7.4610   0.5076   H         1 RES1   0.0000
    84 C3A      5.3299   6.8131  -1.1944   C.3       1 RES1   0.0000
    85 H2A      4.5798   7.1078  -1.7693   H         1 RES1   0.0000
    86 H3A      5.1097   5.9175  -0.8364   H         1 RES1   0.0000
    87 C4A      6.6153   6.7315  -2.0298   C.3       1 RES1   0.0000
    88 H4A      7.3380   6.3349  -1.4815   H         1 RES1   0.0000
    89 H5A      6.4625   6.1376  -2.8076   H         1 RES1   0.0000
    90 C5A      7.0505   8.0941  -2.5186   C.3       1 RES1   0.0000
    91 H6A      6.3883   8.4358  -3.1686   H         1 RES1   0.0000
    92 H7A      7.9220   8.0138  -2.9828   H         1 RES1   0.0000
    93 C6A      7.1838   9.0806  -1.3681   C.3       1 RES1   0.0000
    94 H8A      7.4146   9.9748  -1.7264   H         1 RES1   0.0000
    95 H9A      7.9184   8.7913  -0.7703   H         1 RES1   0.0000
    96 C7A      5.8859   9.1773  -0.5646   C.3       1 RES1   0.0000
    97 H10A     5.1611   9.5322  -1.1384   H         1 RES1   0.0000
    98 H11A     6.0092   9.7982   0.1966   H         1 RES1   0.0000
    99 C8A      3.0883   8.5117   0.3219   C.3       1 RES1   0.0000
   100 H12A     3.3276   8.8418  -0.5898   H         1 RES1   0.0000
   101 C9A      2.7466   9.7514   1.1407   C.3       1 RES1   0.0000
   102 H13A     3.5022  10.3900   1.1045   H         1 RES1   0.0000
   103 H14A     2.6083   9.4932   2.0874   H         1 RES1   0.0000
   104 C10A     1.4855  10.4267   0.6098   C.3       1 RES1   0.0000
   105 H15A     1.2439  11.1813   1.2028   H         1 RES1   0.0000
   106 H16A     1.6645  10.7913  -0.2931   H         1 RES1   0.0000
   107 C11A     0.3205   9.4464   0.5385   C.3       1 RES1   0.0000
   108 H17A     0.1140   9.1078   1.4458   H         1 RES1   0.0000
   109 H18A    -0.4835   9.9083   0.1912   H         1 RES1   0.0000
   110 C12A     0.6756   8.2877  -0.3694   C.3       1 RES1   0.0000
   111 H19A     0.8402   8.6262  -1.2850   H         1 RES1   0.0000
   112 H20A    -0.0864   7.6583  -0.4093   H         1 RES1   0.0000
   113 C13A     1.9134   7.5512   0.1247   C.3       1 RES1   0.0000
   114 H21A     2.1655   6.8555  -0.5326   H         1 RES1   0.0000
   115 H22A     1.7079   7.1032   0.9829   H         1 RES1   0.0000
@<TRIPOS>BOND
     1     1     2    1
     2     2     4   un
     3     3     1    1
     4     4     3   un
     5     5     4    1
     6     6     5    1
     7     7     6    1
     8     8     6    1
     9     9     8    1
    10    10     8    1
    11    11     8    1
    12    12    11    1
    13    13    11    1
    14    14    11    1
    15    15    14    1
    16    16    14    1
    17    17    14    1
    18    18    17    1
    19    19    17    1
    20    20     6    1
    21    21    20    1
    22    22    20    1
    23    23     5    1
    24    24    23    1
    25    25    23    1
    26    26    25    1
    27    27    25    1
    28    28    25    1
    29    29    28    1
    30    30    28    1
    31    31    28    1
    32    32    31    1
    33    33    31    1
    34    34    31    1
    35    35    34    1
    36    36    34    1
    37    37    23    1
    38    38    37    1
    39    39    37    1
    40    40     1    1
    41    41    40   un
    42    42    41    1
    43    43    42    1
    44    44    43    1
    45    45    43    1
    46    46    45    1
    47    47    45    1
    48    48    45    1
    49    49    48    1
    50    50    48    1
    51    51    48    1
    52    52    51    1
    53    53    51    1
    54    54    51    1
    55    55    54    1
    56    56    54    1
    57    57    43    1
    58    58    57    1
    59    59    57    1
    60    60     1    1
    61    61    42    1
    62    62    61    1
    63    63    61    1
    64    64    63    1
    65    65    63    1
    66    66    63    1
    67    67    66    1
    68    68    66    1
    69    69    66    1
    70    70    69    1
    71    71    69    1
    72    72    69    1
    73    73    72    1
    74    74    72    1
    75    75    61    1
    76    76    75    1
    77    77    75    1
    78    78     1    1
    79    79     1    1
    80    80    78   un
    81    81    80    1
    82    82    81    1
    83    83    82    1
    84    84    82    1
    85    85    84    1
    86    86    84    1
    87    87    84    1
    88    88    87    1
    89    89    87    1
    90    90    87    1
    91    91    90    1
    92    92    90    1
    93    93    90    1
    94    94    93    1
    95    95    93    1
    96    96    82    1
    97    97    96    1
    98    98    96    1
    99    99    81    1
   100   100    99    1
   101   101    99    1
   102   102   101    1
   103   103   101    1
   104   104   101    1
   105   105   104    1
   106   106   104    1
   107   107   104    1
   108   108   107    1
   109   109   107    1
   110   110   107    1
   111   111   110    1
   112   112   110    1
   113   113    99    1
   114   114   113    1
   115   115   113    1
   116    17    20    1
   117    34    37    1
   118    41    60   un
   119    54    57    1
   120    72    75    1
   121    79    80   un
   122    93    96    1
   123   110   113    1
@<TRIPOS>SUBSTRUCTURE
     1 RES1        1 GROUP             0 ****  ****    0  
@<TRIPOS>CRYSIN
   10.6108   22.9359   18.2570   90.0000  101.7950   90.0000    15     1
