@<TRIPOS>MOLECULE
TEHLIE
    78    86     2     0     0
SMALL
NO_CHARGES
****
Generated from the CSD

@<TRIPOS>ATOM
     1 Fe1      9.4739   2.8040   2.6250   Fe        1 RES1   0.0000
     2 O1       6.0452   2.5788   4.7471   O.2       1 RES1   0.0000
     3 N1      10.4989   3.6406   1.2152   N.am      1 RES1   0.0000
     4 O2      10.5173   4.1402  -1.0665   O.2       1 RES1   0.0000
     5 N2      11.0147   3.3071   3.7097   N.2       1 RES1   0.0000
     6 N3       8.4494   4.4833   2.9652   N.ar      1 RES1   0.0000
     7 N4      10.1493   0.9728   2.6985   N.2       1 RES1   0.0000
     8 N5       8.1513   2.1201   3.8615   N.am      1 RES1   0.0000
     9 N6       8.2942   2.3885   1.0691   N.ar      1 RES1   0.0000
    10 N7      11.2180   0.3852   2.3462   N.2       1 RES1   0.0000
    11 N8      11.4995   2.8424   4.7934   N.2       1 RES1   0.0000
    12 C1       7.0822   2.8882   4.1590   C.2       1 RES1   0.0000
    13 C2       9.3092   0.1192   3.5068   C.ar      1 RES1   0.0000
    14 C3      11.9474   4.1282   2.9795   C.ar      1 RES1   0.0000
    15 C4      11.6402   4.3172   1.6159   C.ar      1 RES1   0.0000
    16 C5       8.0671   2.6823  -1.3025   C.ar      1 RES1   0.0000
    17 H1       8.4028   3.0321  -2.0961   H         1 RES1   0.0000
    18 C6       8.7164  -1.9599   4.5107   C.ar      1 RES1   0.0000
    19 H2       8.8656  -2.8691   4.6383   H         1 RES1   0.0000
    20 C7       7.1374   1.6987   1.0457   C.ar      1 RES1   0.0000
    21 H3       6.8133   1.3490   1.8445   H         1 RES1   0.0000
    22 C8       6.4242   5.3020   3.9239   C.ar      1 RES1   0.0000
    23 H4       5.6344   5.1310   4.3847   H         1 RES1   0.0000
    24 C9       8.7350   5.7245   2.5642   C.ar      1 RES1   0.0000
    25 H5       9.5268   5.8785   2.1001   H         1 RES1   0.0000
    26 C10      8.2318   0.7597   4.1333   C.ar      1 RES1   0.0000
    27 C11     13.5579   5.7450   1.4569   C.ar      1 RES1   0.0000
    28 H6      14.1000   6.3066   0.9510   H         1 RES1   0.0000
    29 C12     10.0315   3.6358  -0.0442   C.2       1 RES1   0.0000
    30 C13     13.3899   1.3688   2.0312   C.ar      1 RES1   0.0000
    31 H7      13.5490   1.2214   2.9355   H         1 RES1   0.0000
    32 C14     13.8726   5.5307   2.7853   C.ar      1 RES1   0.0000
    33 H8      14.6295   5.9243   3.1551   H         1 RES1   0.0000
    34 C15     13.0590   4.7289   3.5626   C.ar      1 RES1   0.0000
    35 H9      13.2515   4.5919   4.4623   H         1 RES1   0.0000
    36 C16     11.9378   1.2304   0.1370   C.ar      1 RES1   0.0000
    37 H10     11.1151   1.0115  -0.2351   H         1 RES1   0.0000
    38 C17      6.4159   1.4868  -0.1008   C.ar      1 RES1   0.0000
    39 H11      5.6118   1.0209  -0.0668   H         1 RES1   0.0000
    40 C18      6.8868   1.9660  -1.3041   C.ar      1 RES1   0.0000
    41 H12      6.4230   1.8102  -2.0948   H         1 RES1   0.0000
    42 C19     10.0771   0.7982   7.4992   C.ar      1 RES1   0.0000
    43 H13     10.2514  -0.0019   7.9402   H         1 RES1   0.0000
    44 C20      8.7469   2.8773  -0.1136   C.ar      1 RES1   0.0000
    45 C21      6.7105   6.5853   3.4893   C.ar      1 RES1   0.0000
    46 H14      6.1233   7.2886   3.6467   H         1 RES1   0.0000
    47 C22      9.5370   3.1771   6.1957   C.ar      1 RES1   0.0000
    48 H15      9.3529   3.9738   5.7520   H         1 RES1   0.0000
    49 C23     12.9480   1.7276  -0.6606   C.ar      1 RES1   0.0000
    50 H16     12.8063   1.8383  -1.5729   H         1 RES1   0.0000
    51 C24     10.5876   2.3681   5.7669   C.ar      1 RES1   0.0000
    52 C25      8.7703   2.7991   7.2768   C.ar      1 RES1   0.0000
    53 H17      8.0766   3.3430   7.5715   H         1 RES1   0.0000
    54 C26      9.5565  -1.2412   3.6965   C.ar      1 RES1   0.0000
    55 H18     10.2771  -1.6531   3.2780   H         1 RES1   0.0000
    56 C27      7.6585  -1.3460   5.1398   C.ar      1 RES1   0.0000
    57 H19      7.1032  -1.8481   5.6909   H         1 RES1   0.0000
    58 C28      7.4033   0.0060   4.9691   C.ar      1 RES1   0.0000
    59 H20      6.6875   0.4069   5.4066   H         1 RES1   0.0000
    60 C29     12.1556   1.0594   1.4966   C.ar      1 RES1   0.0000
    61 C30      7.3046   4.2907   3.6731   C.ar      1 RES1   0.0000
    62 C31     14.1677   2.0599  -0.1078   C.ar      1 RES1   0.0000
    63 H21     14.8463   2.4001  -0.6457   H         1 RES1   0.0000
    64 C32     10.8529   1.1750   6.4288   C.ar      1 RES1   0.0000
    65 H22     11.5537   0.6320   6.1474   H         1 RES1   0.0000
    66 C33     12.4701   5.1551   0.8597   C.ar      1 RES1   0.0000
    67 H23     12.2865   5.3099  -0.0388   H         1 RES1   0.0000
    68 C34     14.3793   1.8877   1.2461   C.ar      1 RES1   0.0000
    69 H24     15.1947   2.1256   1.6233   H         1 RES1   0.0000
    70 C35      9.0400   1.6072   7.9200   C.ar      1 RES1   0.0000
    71 H25      8.5189   1.3469   8.6442   H         1 RES1   0.0000
    72 C36      7.8908   6.7852   2.8189   C.ar      1 RES1   0.0000
    73 H26      8.1226   7.6400   2.5348   H         1 RES1   0.0000
    74 Cl1     14.6430  -0.0014   5.5660   Cl        2 RES2   0.0000
    75 Cl2     15.7301   2.5505   4.6302   Cl        2 RES2   0.0000
    76 C37     14.6428   1.7589   5.7799   C.3       2 RES2   0.0000
    77 H27     13.7421   2.0980   5.6555   H         2 RES2   0.0000
    78 H28     14.9205   1.9733   6.6843   H         2 RES2   0.0000
@<TRIPOS>BOND
     1     1     3    1
     2     2    12    2
     3     3    15    1
     4     4    29    2
     5     5     1    1
     6     6     1    1
     7     7     1    1
     8     8     1    1
     9     9     1    1
    10    10     7    2
    11    11     5    2
    12    12     8   am
    13    13     7    1
    14    14     5    1
    15    15    14   ar
    16    16    17    1
    17    18    19    1
    18    20     9   ar
    19    21    20    1
    20    22    23    1
    21    24     6   ar
    22    25    24    1
    23    26     8    1
    24    27    28    1
    25    29     3   am
    26    30    31    1
    27    32    27   ar
    28    33    32    1
    29    34    14   ar
    30    35    34    1
    31    36    37    1
    32    38    20   ar
    33    39    38    1
    34    40    16   ar
    35    41    40    1
    36    42    43    1
    37    44     9   ar
    38    45    22   ar
    39    46    45    1
    40    47    48    1
    41    49    36   ar
    42    50    49    1
    43    51    11    1
    44    52    47   ar
    45    53    52    1
    46    54    13   ar
    47    55    54    1
    48    56    18   ar
    49    57    56    1
    50    58    26   ar
    51    59    58    1
    52    60    10    1
    53    61     6   ar
    54    62    49   ar
    55    63    62    1
    56    64    42   ar
    57    65    64    1
    58    66    15   ar
    59    67    66    1
    60    68    30   ar
    61    69    68    1
    62    70    42   ar
    63    71    70    1
    64    72    24   ar
    65    73    72    1
    66    12    61    1
    67    13    26   ar
    68    16    44   ar
    69    18    54   ar
    70    22    61   ar
    71    27    66   ar
    72    29    44    1
    73    30    60   ar
    74    32    34   ar
    75    36    60   ar
    76    38    40   ar
    77    45    72   ar
    78    47    51   ar
    79    51    64   ar
    80    52    70   ar
    81    56    58   ar
    82    62    68   ar
    83    74    76    1
    84    75    76    1
    85    76    77    1
    86    78    76    1
@<TRIPOS>SUBSTRUCTURE
     1 RES1        1 GROUP             0 ****  ****    0  
     2 RES2       74 GROUP             0 ****  ****    0  
@<TRIPOS>CRYSIN
   20.7434   12.0390   25.9875   90.0000   90.0000   90.0000    61     1
