@<TRIPOS>MOLECULE
TENRIR
   107   112     1     0     0
SMALL
NO_CHARGES
****
Generated from the CSD

@<TRIPOS>ATOM
     1 Fe1      1.5730   9.1791  16.7607   Fe        1 RES1   0.0000
     2 S1       3.0989  10.6755  17.6782   S.3       1 RES1   0.0000
     3 P1       2.2220   9.9454  14.7890   P.3       1 RES1   0.0000
     4 P2       0.2141   7.5957  16.0663   P.3       1 RES1   0.0000
     5 P3      -0.1187  10.5795  17.2638   P.3       1 RES1   0.0000
     6 Si1      2.3556   8.1148  18.5107   Si        1 RES1   0.0000
     7 Cl1      1.6956   6.1367  19.0929   Cl        1 RES1   0.0000
     8 N1       4.1587   7.7964  18.8307   N.pl3     1 RES1   0.0000
     9 N2       2.8170   8.6616  20.2525   N.pl3     1 RES1   0.0000
    10 C1       3.7565  10.9147  15.0230   C.ar      1 RES1   0.0000
    11 C2       4.0959   8.3786  20.0249   C.2       1 RES1   0.0000
    12 C3       4.1118  11.1893  16.3447   C.ar      1 RES1   0.0000
    13 C4       1.1977  11.1548  13.8293   C.ar      1 RES1   0.0000
    14 C5       5.3247   7.3109  18.0481   C.3       1 RES1   0.0000
    15 C6       5.2619   8.7528  20.8578   C.ar      1 RES1   0.0000
    16 C7       5.2908  11.9140  16.5747   C.ar      1 RES1   0.0000
    17 H1       5.5512  12.1010  17.4486   H         1 RES1   0.0000
    18 C8       2.7434   8.7862  13.4470   C.ar      1 RES1   0.0000
    19 C9       5.8195   8.4216  17.1254   C.3       1 RES1   0.0000
    20 H2       5.1223   8.6611  16.5104   H         1 RES1   0.0000
    21 H3       6.5860   8.1143  16.6355   H         1 RES1   0.0000
    22 H4       6.0606   9.1897  17.6488   H         1 RES1   0.0000
    23 C10      4.5523  11.3812  13.9701   C.ar      1 RES1   0.0000
    24 H5       4.2942  11.2028  13.0952   H         1 RES1   0.0000
    25 C11      6.0715  12.3552  15.5219   C.ar      1 RES1   0.0000
    26 H6       6.8510  12.8311  15.6997   H         1 RES1   0.0000
    27 C12      4.8151   6.1244  17.2237   C.3       1 RES1   0.0000
    28 H7       4.5567   5.4121  17.8139   H         1 RES1   0.0000
    29 H8       5.5120   5.8180  16.6380   H         1 RES1   0.0000
    30 H9       4.0572   6.3996  16.7030   H         1 RES1   0.0000
    31 C13      3.1814   7.5175  13.7925   C.ar      1 RES1   0.0000
    32 H10      3.2009   7.2721  14.6890   H         1 RES1   0.0000
    33 C14      5.7107  12.0992  14.1966   C.ar      1 RES1   0.0000
    34 C15      0.2154  10.7567  12.9233   C.ar      1 RES1   0.0000
    35 H11      0.1532   9.8608  12.6824   H         1 RES1   0.0000
    36 C16      6.4839   6.8180  18.9142   C.3       1 RES1   0.0000
    37 H12      6.9096   7.5675  19.3351   H         1 RES1   0.0000
    38 H13      7.1203   6.3557  18.3643   H         1 RES1   0.0000
    39 H14      6.1489   6.2209  19.5878   H         1 RES1   0.0000
    40 C17     -1.5091  10.8173  16.0895   C.3       1 RES1   0.0000
    41 H15     -1.1638  11.0922  15.2369   H         1 RES1   0.0000
    42 H16     -2.1019  11.4921  16.4278   H         1 RES1   0.0000
    43 H17     -1.9887   9.9910  15.9900   H         1 RES1   0.0000
    44 C18      0.8694   5.9019  15.8096   C.3       1 RES1   0.0000
    45 H18      1.4774   5.9028  15.0667   H         1 RES1   0.0000
    46 H19      0.1418   5.3015  15.6272   H         1 RES1   0.0000
    47 H20      1.3301   5.6135  16.6004   H         1 RES1   0.0000
    48 C19     -0.5957   7.7547  14.4285   C.3       1 RES1   0.0000
    49 H21     -1.0886   8.5778  14.3937   H         1 RES1   0.0000
    50 H22     -1.1951   7.0161  14.2961   H         1 RES1   0.0000
    51 H23      0.0728   7.7523  13.7382   H         1 RES1   0.0000
    52 C20      0.3171  12.3338  17.5399   C.3       1 RES1   0.0000
    53 H24      0.8709  12.4070  18.3218   H         1 RES1   0.0000
    54 H25     -0.4842  12.8463  17.6663   H         1 RES1   0.0000
    55 H26      0.7942  12.6690  16.7781   H         1 RES1   0.0000
    56 C21      2.7775   9.1358  12.0877   C.ar      1 RES1   0.0000
    57 H27      2.5155   9.9880  11.8242   H         1 RES1   0.0000
    58 C22      1.2718  12.5079  14.1493   C.ar      1 RES1   0.0000
    59 H28      1.9335  12.8069  14.7290   H         1 RES1   0.0000
    60 C23      5.7678   7.9271  21.8563   C.ar      1 RES1   0.0000
    61 H29      5.3478   7.1237  22.0597   H         1 RES1   0.0000
    62 C24      3.5935   6.6017  12.8300   C.ar      1 RES1   0.0000
    63 H30      3.8691   5.7514  13.0877   H         1 RES1   0.0000
    64 C25      5.8830   9.9548  20.5583   C.ar      1 RES1   0.0000
    65 H31      5.5303  10.5136  19.9055   H         1 RES1   0.0000
    66 C26      2.1360   9.2838  21.4127   C.3       1 RES1   0.0000
    67 C27     -1.1287  10.3149  18.7741   C.3       1 RES1   0.0000
    68 H32     -1.4259   9.4018  18.8047   H         1 RES1   0.0000
    69 H33     -1.8907  10.8983  18.7571   H         1 RES1   0.0000
    70 H34     -0.5982  10.5060  19.5502   H         1 RES1   0.0000
    71 C28     -1.2507   7.1826  17.0831   C.3       1 RES1   0.0000
    72 H35     -0.9716   6.9828  17.9790   H         1 RES1   0.0000
    73 H36     -1.6953   6.4178  16.7080   H         1 RES1   0.0000
    74 H37     -1.8532   7.9295  17.0933   H         1 RES1   0.0000
    75 C29      3.1982   8.2202  11.1347   C.ar      1 RES1   0.0000
    76 H38      3.2132   8.4657  10.2380   H         1 RES1   0.0000
    77 C30     -0.6706  11.6710  12.3734   C.ar      1 RES1   0.0000
    78 H39     -1.3148  11.3861  11.7667   H         1 RES1   0.0000
    79 C31      3.5944   6.9496  11.5002   C.ar      1 RES1   0.0000
    80 H40      3.8589   6.3360  10.8535   H         1 RES1   0.0000
    81 C32     -0.5990  12.9983  12.7252   C.ar      1 RES1   0.0000
    82 H41     -1.2005  13.6112  12.3671   H         1 RES1   0.0000
    83 C33      0.3704  13.4162  13.6124   C.ar      1 RES1   0.0000
    84 H42      0.4196  14.3125  13.8533   H         1 RES1   0.0000
    85 C34      2.0046  10.7741  21.1632   C.3       1 RES1   0.0000
    86 H43      2.8763  11.1770  21.1640   H         1 RES1   0.0000
    87 H44      1.4694  11.1680  21.8570   H         1 RES1   0.0000
    88 H45      1.5848  10.9211  20.3133   H         1 RES1   0.0000
    89 C35      6.9023   8.3170  22.5398   C.ar      1 RES1   0.0000
    90 H46      7.2369   7.7811  23.2231   H         1 RES1   0.0000
    91 C36      6.5655  12.5863  13.0532   C.3       1 RES1   0.0000
    92 H47      6.1395  12.3691  12.2195   H         1 RES1   0.0000
    93 H48      7.4247  12.1616  13.0927   H         1 RES1   0.0000
    94 H49      6.6743  13.5385  13.1177   H         1 RES1   0.0000
    95 C37      0.7625   8.6208  21.4955   C.3       1 RES1   0.0000
    96 H50      0.3284   8.6763  20.6411   H         1 RES1   0.0000
    97 H51      0.2285   9.0716  22.1548   H         1 RES1   0.0000
    98 H52      0.8660   7.6993  21.7419   H         1 RES1   0.0000
    99 C38      7.0303  10.3161  21.2371   C.ar      1 RES1   0.0000
   100 H53      7.4573  11.1165  21.0314   H         1 RES1   0.0000
   101 C39      7.5444   9.4939  22.2173   C.ar      1 RES1   0.0000
   102 H54      8.3249   9.7335  22.6627   H         1 RES1   0.0000
   103 C40      2.8543   9.0428  22.7365   C.3       1 RES1   0.0000
   104 H55      3.0227   8.1037  22.8428   H         1 RES1   0.0000
   105 H56      2.3046   9.3518  23.4608   H         1 RES1   0.0000
   106 H57      3.6870   9.5200  22.7402   H         1 RES1   0.0000
   107 H58      2.6986   8.2355  16.5604   H         1 RES1   0.0000
@<TRIPOS>BOND
     1     1     2    1
     2     2    12    1
     3     3     1    1
     4     4     1    1
     5     5     1    1
     6     6     1    1
     7     7     6    1
     8     8     6    1
     9     9     6    1
    10    10     3    1
    11    11     8    1
    12    12    10   ar
    13    13     3    1
    14    14     8    1
    15    15    11    1
    16    16    12   ar
    17    17    16    1
    18    18     3    1
    19    19    14    1
    20    20    19    1
    21    21    19    1
    22    22    19    1
    23    23    10   ar
    24    24    23    1
    25    25    16   ar
    26    26    25    1
    27    27    14    1
    28    28    27    1
    29    29    27    1
    30    30    27    1
    31    31    18   ar
    32    32    31    1
    33    33    23   ar
    34    34    13   ar
    35    35    34    1
    36    36    14    1
    37    37    36    1
    38    38    36    1
    39    39    36    1
    40    40     5    1
    41    41    40    1
    42    42    40    1
    43    43    40    1
    44    44     4    1
    45    45    44    1
    46    46    44    1
    47    47    44    1
    48    48     4    1
    49    49    48    1
    50    50    48    1
    51    51    48    1
    52    52     5    1
    53    53    52    1
    54    54    52    1
    55    55    52    1
    56    56    18   ar
    57    57    56    1
    58    58    13   ar
    59    59    58    1
    60    60    15   ar
    61    61    60    1
    62    62    31   ar
    63    63    62    1
    64    64    15   ar
    65    65    64    1
    66    66     9    1
    67    67     5    1
    68    68    67    1
    69    69    67    1
    70    70    67    1
    71    71     4    1
    72    72    71    1
    73    73    71    1
    74    74    71    1
    75    75    56   ar
    76    76    75    1
    77    77    34   ar
    78    78    77    1
    79    79    62   ar
    80    80    79    1
    81    81    77   ar
    82    82    81    1
    83    83    58   ar
    84    84    83    1
    85    85    66    1
    86    86    85    1
    87    87    85    1
    88    88    85    1
    89    89    60   ar
    90    90    89    1
    91    91    33    1
    92    92    91    1
    93    93    91    1
    94    94    91    1
    95    95    66    1
    96    96    95    1
    97    97    95    1
    98    98    95    1
    99    99    64   ar
   100   100    99    1
   101   101    89   ar
   102   102   101    1
   103   103    66    1
   104   104   103    1
   105   105   103    1
   106   106   103    1
   107   107     1    1
   108     9    11    2
   109    25    33   ar
   110    75    79   ar
   111    81    83   ar
   112    99   101   ar
@<TRIPOS>SUBSTRUCTURE
     1 RES1        1 GROUP             0 ****  ****    0  
@<TRIPOS>CRYSIN
   11.1049   15.1471   25.0350   90.0000   92.0160   90.0000    14     1
