@<TRIPOS>MOLECULE
TENTAK
    79    84     4     0     0
SMALL
USER_CHARGES
****
Generated from the CSD

@<TRIPOS>ATOM
     1 Fe1      3.0375   2.2988   3.7448   Fe        1 RES1   3.0000
     2 N1       4.2630   0.7404   3.9157   N.3       1 RES1   0.0000
     3 N2       1.5190   1.0359   3.8946   N.3       1 RES1   0.0000
     4 N3       3.0309   2.4270   5.7251   N.3       1 RES1   0.0000
     5 N4       4.6872   3.2812   3.5076   N.2       1 RES1   0.0000
     6 N5       2.7216   2.1232   1.8456   N.2       1 RES1   0.0000
     7 N6       1.9861   3.9085   3.8497   N.2       1 RES1   0.0000
     8 N7       6.8023   3.2136   2.9616   N.pl3     1 RES1   0.0000
     9 H1       7.5614   2.9047   2.6219   H         1 RES1   0.0000
    10 N8       1.2569   1.7476   0.2688   N.pl3     1 RES1   0.0000
    11 H2       0.5282   1.5065  -0.1282   H         1 RES1   0.0000
    12 N9       1.5025   5.7143   4.9724   N.pl3     1 RES1   0.0000
    13 H3       1.4964   6.2723   5.6107   H         1 RES1   0.0000
    14 C1       3.4867  -0.4353   3.3993   C.3       1 RES1   0.0000
    15 H4       3.9365  -1.2586   3.6697   H         1 RES1   0.0000
    16 H5       3.5000  -0.3615   2.4745   H         1 RES1   0.0000
    17 C2       2.0750  -0.3728   3.9619   C.3       1 RES1   0.0000
    18 H6       1.5250  -0.9507   3.5017   H         1 RES1   0.0000
    19 H7       2.0438  -0.6355   4.9225   H         1 RES1   0.0000
    20 C3       0.8213   1.3987   5.1738   C.3       1 RES1   0.0000
    21 H8       0.3302   2.1801   5.0094   H         1 RES1   0.0000
    22 H9       0.2274   0.7125   5.4471   H         1 RES1   0.0000
    23 C4       1.8711   1.6059   6.2530   C.3       1 RES1   0.0000
    24 H10      2.2496   0.7761   6.5584   H         1 RES1   0.0000
    25 H11      1.4769   2.0845   6.9902   H         1 RES1   0.0000
    26 C5       4.3381   1.8441   6.1724   C.3       1 RES1   0.0000
    27 H12      4.9971   2.4854   6.0042   H         1 RES1   0.0000
    28 H13      4.3003   1.6448   7.1037   H         1 RES1   0.0000
    29 C6       4.6082   0.5683   5.3830   C.3       1 RES1   0.0000
    30 H14      4.0978  -0.1761   5.7213   H         1 RES1   0.0000
    31 H15      5.5467   0.3258   5.4575   H         1 RES1   0.0000
    32 C7       5.4827   1.0181   3.0841   C.3       1 RES1   0.0000
    33 H16      5.2699   0.7780   2.1621   H         1 RES1   0.0000
    34 H17      6.2308   0.5084   3.4000   H         1 RES1   0.0000
    35 C8       5.7029   2.4899   3.1832   C.2       1 RES1   0.0000
    36 C9       6.4752   4.5416   3.1458   C.2       1 RES1   0.0000
    37 H18      7.1316   5.1909   3.0566   H         1 RES1   0.0000
    38 C10      5.1605   4.5833   3.4966   C.2       1 RES1   0.0000
    39 H19      4.6174   5.3258   3.7375   H         1 RES1   0.0000
    40 C11      0.6222   1.2295   2.7050   C.3       1 RES1   0.0000
    41 H20     -0.0157   1.9521   2.9299   H         1 RES1   0.0000
    42 H21      0.1215   0.3980   2.4937   H         1 RES1   0.0000
    43 C12      1.5046   1.6598   1.5793   C.2       1 RES1   0.0000
    44 C13      2.3718   2.2830  -0.3422   C.2       1 RES1   0.0000
    45 H22      2.3876   2.3907  -1.2645   H         1 RES1   0.0000
    46 C14      3.2790   2.5212   0.6417   C.2       1 RES1   0.0000
    47 H23      4.1304   2.8518   0.5939   H         1 RES1   0.0000
    48 C15      2.9000   3.8780   6.1062   C.3       1 RES1   0.0000
    49 H24      3.8075   4.2752   6.1428   H         1 RES1   0.0000
    50 H25      2.5059   3.9542   6.9504   H         1 RES1   0.0000
    51 C16      2.0942   4.5185   5.0271   C.2       1 RES1   0.0000
    52 C17      0.9984   5.8897   3.7032   C.2       1 RES1   0.0000
    53 H26      0.5625   6.6702   3.4369   H         1 RES1   0.0000
    54 C18      1.2959   4.7618   3.0060   C.2       1 RES1   0.0000
    55 H27      1.0984   4.5560   2.1149   H         1 RES1   0.0000
    56 S1       3.3711   8.6629  -0.0430   S.o2      2 RES2   0.0000
    57 F1       2.7730   6.2702   0.7624   F         2 RES2   0.0000
    58 F2       4.8039   6.4858   0.0895   F         2 RES2   0.0000
    59 F3       4.1875   7.2810   2.0047   F         2 RES2   0.0000
    60 O1       2.3888   9.2346   0.8527   O.2       2 RES2   0.0000
    61 O2       2.8176   8.2646  -1.3198   O.3       2 RES2  -1.0000
    62 O3       4.6195   9.3538  -0.1088   O.2       2 RES2   0.0000
    63 C19      3.8076   7.0867   0.7480   C.3       2 RES2   0.0000
    64 S2      -1.1244   3.6372   7.8418   S.o2      3 RES3   0.0000
    65 F4      -3.4629   3.5805   6.6646   F         3 RES3   0.0000
    66 F5      -1.8084   4.0268   5.3512   F         3 RES3   0.0000
    67 F6      -2.5468   5.5239   6.7254   F         3 RES3   0.0000
    68 O4      -1.7147   4.0134   9.1008   O.2       3 RES3   0.0000
    69 O5      -1.0522   2.2176   7.5911   O.2       3 RES3   0.0000
    70 O6       0.0851   4.3573   7.4914   O.3       3 RES3  -1.0000
    71 C20     -2.3000   4.2254   6.5796   C.3       3 RES3   0.0000
    72 S3       8.7158  -1.4187   4.5443   S.o2      4 RES4   0.0000
    73 F7       6.4219  -2.0492   3.4412   F         4 RES4   0.0000
    74 F8       7.5589  -3.7352   4.1446   F         4 RES4   0.0000
    75 F9       6.5363  -2.4590   5.5556   F         4 RES4   0.0000
    76 O7       9.4868  -2.0515   5.5864   O.2       4 RES4   0.0000
    77 O8       9.3039  -1.5237   3.2297   O.3       4 RES4  -1.0000
    78 O9       8.1645  -0.1306   4.8818   O.2       4 RES4   0.0000
    79 C21      7.2308  -2.4720   4.4220   C.3       4 RES4   0.0000
@<TRIPOS>BOND
     1     1     2    1
     2     2    14    1
     3     3     1    1
     4     4     1    1
     5     5     1    1
     6     6     1    1
     7     7     1    1
     8     8     9    1
     9    10    11    1
    10    12    13    1
    11    14    15    1
    12    16    14    1
    13    17     3    1
    14    18    17    1
    15    19    17    1
    16    20     3    1
    17    21    20    1
    18    22    20    1
    19    23     4    1
    20    24    23    1
    21    25    23    1
    22    26     4    1
    23    27    26    1
    24    28    26    1
    25    29     2    1
    26    30    29    1
    27    31    29    1
    28    32     2    1
    29    33    32    1
    30    34    32    1
    31    35     5    2
    32    36     8    1
    33    37    36    1
    34    38     5    1
    35    39    38    1
    36    40     3    1
    37    41    40    1
    38    42    40    1
    39    43     6    2
    40    44    10    1
    41    45    44    1
    42    46     6    1
    43    47    46    1
    44    48     4    1
    45    49    48    1
    46    50    48    1
    47    51     7    2
    48    52    12    1
    49    53    52    1
    50    54     7    1
    51    55    54    1
    52     8    35    1
    53    10    43    1
    54    12    51    1
    55    14    17    1
    56    20    23    1
    57    26    29    1
    58    32    35    1
    59    36    38    2
    60    40    43    1
    61    44    46    2
    62    48    51    1
    63    52    54    2
    64    56    60    2
    65    57    63    1
    66    58    63    1
    67    59    63    1
    68    61    56    1
    69    62    56    2
    70    63    56    1
    71    64    68    2
    72    65    71    1
    73    66    71    1
    74    67    71    1
    75    69    64    2
    76    70    64    1
    77    71    64    1
    78    72    76    2
    79    73    79    1
    80    74    79    1
    81    75    79    1
    82    77    72    1
    83    78    72    2
    84    79    72    1
@<TRIPOS>SUBSTRUCTURE
     1 RES1        1 GROUP             0 ****  ****    0  
     2 RES2       56 GROUP             0 ****  ****    0  
     3 RES3       64 GROUP             0 ****  ****    0  
     4 RES4       72 GROUP             0 ****  ****    0  
@<TRIPOS>CRYSIN
   10.6027   10.6319   14.8399   86.5381   83.9331   84.3556     2     1
