@<TRIPOS>MOLECULE
TEPVUI
    98   109     3     0     0
SMALL
USER_CHARGES
****
Generated from the CSD

@<TRIPOS>ATOM
     1 C1       9.8461   4.3059  13.8537   C.ar      1 RES1   0.0000
     2 H1      10.7168   4.3066  14.1767   H         1 RES1   0.0000
     3 C2       9.6146   4.8197  12.5727   C.ar      1 RES1   0.0000
     4 H2      10.3230   5.1161  12.0485   H         1 RES1   0.0000
     5 C3       8.3237   4.8797  12.1011   C.ar      1 RES1   0.0000
     6 H3       8.1483   5.2240  11.2559   H         1 RES1   0.0000
     7 C4       7.2746   4.4176  12.9081   C.ar      1 RES1   0.0000
     8 C5       5.8879   4.4449  12.5199   C.ar      1 RES1   0.0000
     9 H4       5.6556   4.8197  11.7004   H         1 RES1   0.0000
    10 C6       4.9176   3.9418  13.3123   C.ar      1 RES1   0.0000
    11 H5       4.0293   3.9851  13.0360   H         1 RES1   0.0000
    12 C7       5.2380   3.3459  14.5642   C.ar      1 RES1   0.0000
    13 C8       4.3001   2.7477  15.4334   C.ar      1 RES1   0.0000
    14 H6       3.3957   2.7568  15.2167   H         1 RES1   0.0000
    15 C9       4.7183   2.1541  16.5956   C.ar      1 RES1   0.0000
    16 H7       4.1000   1.7725  17.1762   H         1 RES1   0.0000
    17 C10      6.0885   2.1259  16.9049   C.ar      1 RES1   0.0000
    18 C11      7.6090   3.8772  14.1484   C.ar      1 RES1   0.0000
    19 C12      6.5799   3.3056  14.9703   C.ar      1 RES1   0.0000
    20 C13      6.6629   1.4723  18.0942   C.ar      1 RES1   0.0000
    21 C14      5.8931   1.2123  19.2120   C.ar      1 RES1   0.0000
    22 H8       4.9763   1.3674  19.2036   H         1 RES1   0.0000
    23 C15      6.5177   0.7160  20.3430   C.ar      1 RES1   0.0000
    24 H9       6.0274   0.5549  21.1172   H         1 RES1   0.0000
    25 C16      7.8636   0.4644  20.3119   C.ar      1 RES1   0.0000
    26 H10      8.2969   0.1391  21.0691   H         1 RES1   0.0000
    27 C17      8.5850   0.7008  19.1340   C.ar      1 RES1   0.0000
    28 C18     10.0246   0.3778  19.0401   C.ar      1 RES1   0.0000
    29 C19     10.8858   0.6810  20.1101   C.ar      1 RES1   0.0000
    30 H11     10.5447   1.0763  20.8808   H         1 RES1   0.0000
    31 C20     12.2287   0.3952  20.0236   C.ar      1 RES1   0.0000
    32 H12     12.7931   0.6119  20.7297   H         1 RES1   0.0000
    33 C21     12.7450  -0.2113  18.8930   C.ar      1 RES1   0.0000
    34 H13     13.6571  -0.3838  18.8336   H         1 RES1   0.0000
    35 C22     10.5424  -0.2561  17.9224   C.ar      1 RES1   0.0000
    36 H14      9.9764  -0.4789  17.2178   H         1 RES1   0.0000
    37 C23     11.8992  -0.5640  17.8405   C.ar      1 RES1   0.0000
    38 H15     12.2379  -1.0003  17.0930   H         1 RES1   0.0000
    39 N1       8.8840   3.8164  14.6332   N.ar      1 RES1   0.0000
    40 N2       6.9961   2.6930  16.1067   N.ar      1 RES1   0.0000
    41 N3       7.9977   1.2275  18.0367   N.ar      1 RES1   0.0000
    42 Fe1      9.0805   2.4784  16.4209   Fe        1 RES1   2.0000
    43 C1A      8.3149   4.3059  18.9880   C.ar      1 RES1   0.0000
    44 H1A      7.4442   4.3066  18.6650   H         1 RES1   0.0000
    45 C2A      8.5465   4.8197  20.2690   C.ar      1 RES1   0.0000
    46 H2A      7.8380   5.1161  20.7932   H         1 RES1   0.0000
    47 C3A      9.8374   4.8797  20.7406   C.ar      1 RES1   0.0000
    48 H3A     10.0127   5.2240  21.5858   H         1 RES1   0.0000
    49 C4A     10.8865   4.4176  19.9336   C.ar      1 RES1   0.0000
    50 C5A     12.2731   4.4449  20.3218   C.ar      1 RES1   0.0000
    51 H4A     12.5054   4.8197  21.1413   H         1 RES1   0.0000
    52 C6A     13.2434   3.9418  19.5294   C.ar      1 RES1   0.0000
    53 H5A     14.1317   3.9851  19.8057   H         1 RES1   0.0000
    54 C7A     12.9230   3.3459  18.2775   C.ar      1 RES1   0.0000
    55 C8A     13.8610   2.7477  17.4083   C.ar      1 RES1   0.0000
    56 H6A     14.7653   2.7568  17.6250   H         1 RES1   0.0000
    57 C9A     13.4428   2.1541  16.2461   C.ar      1 RES1   0.0000
    58 H7A     14.0610   1.7725  15.6655   H         1 RES1   0.0000
    59 C10A    12.0725   2.1259  15.9368   C.ar      1 RES1   0.0000
    60 C11A    10.5520   3.8772  18.6933   C.ar      1 RES1   0.0000
    61 C12A    11.5811   3.3056  17.8714   C.ar      1 RES1   0.0000
    62 C13A    11.4982   1.4723  14.7475   C.ar      1 RES1   0.0000
    63 C14A    12.2679   1.2123  13.6297   C.ar      1 RES1   0.0000
    64 H8A     13.1847   1.3674  13.6381   H         1 RES1   0.0000
    65 C15A    11.6433   0.7160  12.4987   C.ar      1 RES1   0.0000
    66 H9A     12.1337   0.5549  11.7245   H         1 RES1   0.0000
    67 C16A    10.2974   0.4644  12.5298   C.ar      1 RES1   0.0000
    68 H10A     9.8642   0.1391  11.7727   H         1 RES1   0.0000
    69 C17A     9.5760   0.7008  13.7077   C.ar      1 RES1   0.0000
    70 C18A     8.1364   0.3778  13.8016   C.ar      1 RES1   0.0000
    71 C19A     7.2752   0.6810  12.7316   C.ar      1 RES1   0.0000
    72 H11A     7.6163   1.0763  11.9609   H         1 RES1   0.0000
    73 C20A     5.9323   0.3952  12.8181   C.ar      1 RES1   0.0000
    74 H12A     5.3679   0.6119  12.1120   H         1 RES1   0.0000
    75 C21A     5.4160  -0.2113  13.9487   C.ar      1 RES1   0.0000
    76 H13A     4.5039  -0.3838  14.0081   H         1 RES1   0.0000
    77 C22A     7.6186  -0.2561  14.9193   C.ar      1 RES1   0.0000
    78 H14A     8.1846  -0.4789  15.6239   H         1 RES1   0.0000
    79 C23A     6.2619  -0.5640  15.0012   C.ar      1 RES1   0.0000
    80 H15A     5.9231  -1.0003  15.7487   H         1 RES1   0.0000
    81 N1A      9.2770   3.8164  18.2085   N.ar      1 RES1   0.0000
    82 N2A     11.1649   2.6930  16.7350   N.ar      1 RES1   0.0000
    83 N3A     10.1633   1.2275  14.8050   N.ar      1 RES1   0.0000
    84 C24      4.3372  -2.2764  18.5862   C.2       2 RES2   0.0000
    85 C25      4.2465  -2.3327  20.0531   C.3       2 RES2   0.0000
    86 H16      5.1292  -2.3752  20.4275   H         2 RES2   0.0000
    87 H17      3.7507  -3.1118  20.3137   H         2 RES2   0.0000
    88 H18      3.8003  -1.5460  20.3750   H         2 RES2   0.0000
    89 C26      3.0462  -2.1944  17.8309   C.3       2 RES2   0.0000
    90 H19      3.2299  -2.1518  16.8894   H         2 RES2   0.0000
    91 H20      2.5684  -1.4061  18.0980   H         2 RES2   0.0000
    92 H21      2.5148  -2.9712  18.0192   H         2 RES2   0.0000
    93 O1       5.3847  -2.2985  17.9933   O.2       2 RES2   0.0000
    94 F1       3.2300   1.2367  20.9105   F         3 RES3   0.0000
    95 F2       2.4632   1.0641  18.7903   F         3 RES3   0.0000
    96 F3       1.0420   0.8232  20.5223   F         3 RES3   0.0000
    97 F4       1.8953   2.8001  20.0597   F         3 RES3   0.0000
    98 B1       2.1659   1.4328  20.0597   B         3 RES3  -1.0000
@<TRIPOS>BOND
     1     1     2    1
     2     3     1   ar
     3     4     3    1
     4     5     3   ar
     5     6     5    1
     6     7     5   ar
     7     8     7   ar
     8     9     8    1
     9    10     8   ar
    10    11    10    1
    11    12    10   ar
    12    13    12   ar
    13    14    13    1
    14    15    13   ar
    15    16    15    1
    16    17    15   ar
    17    18     7   ar
    18    19    12   ar
    19    20    17    1
    20    21    20   ar
    21    22    21    1
    22    23    21   ar
    23    24    23    1
    24    25    23   ar
    25    26    25    1
    26    27    25   ar
    27    28    27    1
    28    29    28   ar
    29    30    29    1
    30    31    29   ar
    31    32    31    1
    32    33    31   ar
    33    34    33    1
    34    35    28   ar
    35    36    35    1
    36    37    33   ar
    37    38    37    1
    38    39     1   ar
    39    40    17   ar
    40    41    20   ar
    41    42    39    1
    42    43    44    1
    43    45    43   ar
    44    46    45    1
    45    47    45   ar
    46    48    47    1
    47    49    47   ar
    48    50    49   ar
    49    51    50    1
    50    52    50   ar
    51    53    52    1
    52    54    52   ar
    53    55    54   ar
    54    56    55    1
    55    57    55   ar
    56    58    57    1
    57    59    57   ar
    58    60    49   ar
    59    61    54   ar
    60    62    59    1
    61    63    62   ar
    62    64    63    1
    63    65    63   ar
    64    66    65    1
    65    67    65   ar
    66    68    67    1
    67    69    67   ar
    68    70    69    1
    69    71    70   ar
    70    72    71    1
    71    73    71   ar
    72    74    73    1
    73    75    73   ar
    74    76    75    1
    75    77    70   ar
    76    78    77    1
    77    79    75   ar
    78    80    79    1
    79    81    42    1
    80    82    42    1
    81    83    42    1
    82    18    19   ar
    83    18    39   ar
    84    19    40   ar
    85    27    41   ar
    86    35    37   ar
    87    40    42    1
    88    41    42    1
    89    43    81   ar
    90    59    82   ar
    91    60    61   ar
    92    60    81   ar
    93    61    82   ar
    94    62    83   ar
    95    69    83   ar
    96    77    79   ar
    97    84    85    1
    98    85    86    1
    99    87    85    1
   100    88    85    1
   101    89    84    1
   102    90    89    1
   103    91    89    1
   104    92    89    1
   105    93    84    2
   106    94    98    1
   107    95    98    1
   108    96    98    1
   109    97    98    1
@<TRIPOS>SUBSTRUCTURE
     1 RES1        1 GROUP             0 ****  ****    0  
     2 RES2       84 GROUP             0 ****  ****    0  
     3 RES3       94 GROUP             0 ****  ****    0  
