@<TRIPOS>MOLECULE
TEPVIW01
   173   192     3     0     0
SMALL
USER_CHARGES
****
Generated from the CSD

@<TRIPOS>ATOM
     1 C1      12.6249  -0.9148  23.3721   C.ar      1 RES1   0.0000
     2 H1      12.9345  -0.5989  24.1891   H         1 RES1   0.0000
     3 C2      13.3805  -1.8482  22.7006   C.ar      1 RES1   0.0000
     4 H2      14.1913  -2.1441  23.0507   H         1 RES1   0.0000
     5 C3      12.9225  -2.3285  21.5212   C.ar      1 RES1   0.0000
     6 H3      13.4124  -2.9646  21.0519   H         1 RES1   0.0000
     7 C4      11.7228  -1.8682  21.0177   C.ar      1 RES1   0.0000
     8 H4      11.3942  -2.1984  20.2131   H         1 RES1   0.0000
     9 C5      11.0138  -0.9105  21.7203   C.ar      1 RES1   0.0000
    10 C6       9.7561  -0.3116  21.2537   C.ar      1 RES1   0.0000
    11 C7       9.1643  -0.5160  19.9948   C.ar      1 RES1   0.0000
    12 H5       9.5260  -1.1364  19.4031   H         1 RES1   0.0000
    13 C8       8.0582   0.1958  19.6458   C.ar      1 RES1   0.0000
    14 H6       7.6711   0.0643  18.8111   H         1 RES1   0.0000
    15 C9       7.4968   1.1206  20.5232   C.ar      1 RES1   0.0000
    16 C10      6.3780   1.9611  20.2356   C.ar      1 RES1   0.0000
    17 H7       5.9495   1.8882  19.4126   H         1 RES1   0.0000
    18 C11      5.9394   2.8488  21.1281   C.ar      1 RES1   0.0000
    19 H8       5.2010   3.3748  20.9177   H         1 RES1   0.0000
    20 C12      6.5696   3.0160  22.3984   C.ar      1 RES1   0.0000
    21 C13      6.2264   3.9980  23.3287   C.ar      1 RES1   0.0000
    22 H9       5.5592   4.6141  23.1322   H         1 RES1   0.0000
    23 C14      6.8717   4.0523  24.5268   C.ar      1 RES1   0.0000
    24 H10      6.6512   4.7170  25.1406   H         1 RES1   0.0000
    25 C15      7.8686   3.1104  24.8441   C.ar      1 RES1   0.0000
    26 C16      7.6220   2.1612  22.7471   C.ar      1 RES1   0.0000
    27 C17      8.1128   1.2350  21.7769   C.ar      1 RES1   0.0000
    28 C18      8.5071   3.1089  26.1682   C.ar      1 RES1   0.0000
    29 C19      8.3545   2.0169  27.0130   C.ar      1 RES1   0.0000
    30 H11      7.8620   1.2822  26.7247   H         1 RES1   0.0000
    31 C20      8.9231   2.0011  28.2797   C.ar      1 RES1   0.0000
    32 H12      8.8018   1.2693  28.8386   H         1 RES1   0.0000
    33 C21      9.6678   3.0803  28.7019   C.ar      1 RES1   0.0000
    34 H13     10.0527   3.0789  29.5480   H         1 RES1   0.0000
    35 C22      9.8383   4.1481  27.8775   C.ar      1 RES1   0.0000
    36 H14     10.3573   4.8656  28.1627   H         1 RES1   0.0000
    37 C23      9.2560   4.1881  26.6210   C.ar      1 RES1   0.0000
    38 H15      9.3649   4.9371  26.0800   H         1 RES1   0.0000
    39 C24      8.3919  -1.7796  24.4055   C.ar      1 RES1   0.0000
    40 H16      7.9760  -1.5666  23.6019   H         1 RES1   0.0000
    41 C25      8.0599  -2.9674  25.0267   C.ar      1 RES1   0.0000
    42 H17      7.4430  -3.5449  24.6397   H         1 RES1   0.0000
    43 C26      8.6447  -3.2805  26.2011   C.ar      1 RES1   0.0000
    44 H18      8.4244  -4.0723  26.6361   H         1 RES1   0.0000
    45 C27      9.5544  -2.4300  26.7444   C.ar      1 RES1   0.0000
    46 H19      9.9601  -2.6358  27.5564   H         1 RES1   0.0000
    47 C28      9.8775  -1.2479  26.0798   C.ar      1 RES1   0.0000
    48 C29     10.8633  -0.2744  26.5570   C.ar      1 RES1   0.0000
    49 C30     11.5526  -0.3559  27.7766   C.ar      1 RES1   0.0000
    50 H20     11.4297  -1.0892  28.3353   H         1 RES1   0.0000
    51 C31     12.3959   0.6375  28.1371   C.ar      1 RES1   0.0000
    52 H21     12.8449   0.5818  28.9488   H         1 RES1   0.0000
    53 C32     12.6038   1.7424  27.3109   C.ar      1 RES1   0.0000
    54 C33     13.4119   2.8674  27.6163   C.ar      1 RES1   0.0000
    55 H22     13.9188   2.8659  28.3952   H         1 RES1   0.0000
    56 C34     13.4596   3.9294  26.8079   C.ar      1 RES1   0.0000
    57 H23     13.9754   4.6627  27.0579   H         1 RES1   0.0000
    58 C35     12.7386   3.9780  25.5624   C.ar      1 RES1   0.0000
    59 C36     12.6828   5.0901  24.7188   C.ar      1 RES1   0.0000
    60 H24     13.1225   5.8748  24.9512   H         1 RES1   0.0000
    61 C37     11.9753   5.0200  23.5442   C.ar      1 RES1   0.0000
    62 H25     11.9123   5.7647  22.9908   H         1 RES1   0.0000
    63 C38     11.3500   3.8222  23.1859   C.ar      1 RES1   0.0000
    64 C39     12.0018   2.8516  25.1835   C.ar      1 RES1   0.0000
    65 C40     11.9003   1.7496  26.0889   C.ar      1 RES1   0.0000
    66 C41     10.7351   3.6907  21.8411   C.ar      1 RES1   0.0000
    67 C42      9.7421   4.5497  21.4155   C.ar      1 RES1   0.0000
    68 H26      9.4113   5.2058  21.9866   H         1 RES1   0.0000
    69 C43      9.2384   4.4225  20.1196   C.ar      1 RES1   0.0000
    70 H27      8.5488   4.9814  19.8416   H         1 RES1   0.0000
    71 C44      9.7347   3.5034  19.2581   C.ar      1 RES1   0.0000
    72 H28      9.4020   3.4391  18.3917   H         1 RES1   0.0000
    73 C45     10.7238   2.6772  19.6746   C.ar      1 RES1   0.0000
    74 H29     11.0661   2.0426  19.0867   H         1 RES1   0.0000
    75 C46     11.2346   2.7587  20.9508   C.ar      1 RES1   0.0000
    76 H30     11.9160   2.1841  21.2149   H         1 RES1   0.0000
    77 N1      11.4630  -0.4383  22.9028   N.ar      1 RES1   0.0000
    78 N2       9.2125   0.5459  22.1172   N.ar      1 RES1   0.0000
    79 N3       8.2640   2.2051  23.9471   N.ar      1 RES1   0.0000
    80 N4      11.3248   2.7609  24.0034   N.ar      1 RES1   0.0000
    81 N5      11.0553   0.7646  25.7436   N.ar      1 RES1   0.0000
    82 N6       9.2830  -0.9207  24.9107   N.ar      1 RES1   0.0000
    83 Fe1     10.0689   0.9078  23.9485   Fe        1 RES1   2.0000
    84 C47      7.0846  -5.7790  22.1755   C.ar      2 RES2   0.0000
    85 C48      6.1913  -6.0420  23.2067   C.ar      2 RES2   0.0000
    86 H31      5.2837  -5.9277  23.0411   H         2 RES2   0.0000
    87 C49      6.5717  -6.4637  24.4614   C.ar      2 RES2   0.0000
    88 H32      5.9269  -6.6038  25.1190   H         2 RES2   0.0000
    89 C50      7.8861  -6.6781  24.7454   C.ar      2 RES2   0.0000
    90 H33      8.1515  -6.9583  25.5911   H         2 RES2   0.0000
    91 C51      8.8087  -6.4666  23.7493   C.ar      2 RES2   0.0000
    92 H34      9.7105  -6.6281  23.9135   H         2 RES2   0.0000
    93 C52      8.4103  -6.0149  22.5004   C.ar      2 RES2   0.0000
    94 H35      9.0613  -5.8648  21.8524   H         2 RES2   0.0000
    95 C53      5.2913  -6.1521  20.2582   C.ar      2 RES2   0.0000
    96 C54      3.9915  -5.6790  20.0415   C.ar      2 RES2   0.0000
    97 H36      3.8316  -4.7670  20.1244   H         2 RES2   0.0000
    98 C55      2.9379  -6.5037  19.7120   C.ar      2 RES2   0.0000
    99 H37      2.0900  -6.1407  19.5948   H         2 RES2   0.0000
   100 C56      3.1241  -7.8373  19.5586   C.ar      2 RES2   0.0000
   101 H38      2.4127  -8.3919  19.3312   H         2 RES2   0.0000
   102 C57      4.3752  -8.3491  19.7434   C.ar      2 RES2   0.0000
   103 H39      4.5262  -9.2567  19.6164   H         2 RES2   0.0000
   104 C58      5.4225  -7.5186  20.1211   C.ar      2 RES2   0.0000
   105 H40      6.2530  -7.9031  20.2898   H         2 RES2   0.0000
   106 C59      6.0062  -3.6564  20.8729   C.ar      2 RES2   0.0000
   107 C60      5.6146  -2.9317  19.7290   C.ar      2 RES2   0.0000
   108 H41      5.7451  -3.3119  18.8902   H         2 RES2   0.0000
   109 C61      5.0441  -1.6810  19.8081   C.ar      2 RES2   0.0000
   110 H42      4.7941  -1.2407  19.0292   H         2 RES2   0.0000
   111 C62      4.8389  -1.0806  21.0136   C.ar      2 RES2   0.0000
   112 H43      4.4446  -0.2401  21.0615   H         2 RES2   0.0000
   113 C63      5.2174  -1.7281  22.1448   C.ar      2 RES2   0.0000
   114 H44      5.1014  -1.3250  22.9740   H         2 RES2   0.0000
   115 C64      5.7818  -2.9989  22.0561   C.ar      2 RES2   0.0000
   116 H45      6.0235  -3.4262  22.8446   H         2 RES2   0.0000
   117 C65      7.7903  -5.2300  19.5965   C.ar      2 RES2   0.0000
   118 C66      8.6473  -4.1369  19.5440   C.ar      2 RES2   0.0000
   119 H46      8.5098  -3.4105  20.1077   H         2 RES2   0.0000
   120 C67      9.7098  -4.1295  18.6481   C.ar      2 RES2   0.0000
   121 H47     10.2841  -3.3977  18.6122   H         2 RES2   0.0000
   122 C68      9.9156  -5.2144  17.8047   C.ar      2 RES2   0.0000
   123 H48     10.6266  -5.2101  17.2054   H         2 RES2   0.0000
   124 C69      9.0584  -6.3079  17.8570   C.ar      2 RES2   0.0000
   125 H49      9.1955  -7.0340  17.2916   H         2 RES2   0.0000
   126 C70      7.9958  -6.3150  18.7531   C.ar      2 RES2   0.0000
   127 H50      7.4233  -7.0469  18.7871   H         2 RES2   0.0000
   128 B1       6.5502  -5.2001  20.7238   B         2 RES2  -1.0000
   129 C71     15.2393   5.8208  20.2848   C.ar      3 RES3   0.0000
   130 C72     13.8723   5.5632  20.4192   C.ar      3 RES3   0.0000
   131 H51     13.6149   4.7556  20.8003   H         3 RES3   0.0000
   132 C73     12.8894   6.4337  20.0197   C.ar      3 RES3   0.0000
   133 H52     11.9937   6.2050  20.1244   H         3 RES3   0.0000
   134 C74     13.2284   7.6429  19.4661   C.ar      3 RES3   0.0000
   135 H53     12.5693   8.2376  19.1874   H         3 RES3   0.0000
   136 C75     14.5500   7.9574  19.3319   C.ar      3 RES3   0.0000
   137 H54     14.7968   8.7793  18.9717   H         3 RES3   0.0000
   138 C76     15.5281   7.0562  19.7309   C.ar      3 RES3   0.0000
   139 H55     16.4200   7.2942  19.6211   H         3 RES3   0.0000
   140 C77     15.7556   3.2221  20.5129   C.ar      3 RES3   0.0000
   141 C78     15.2367   2.8302  19.2825   C.ar      3 RES3   0.0000
   142 H56     15.2602   3.4391  18.5810   H         3 RES3   0.0000
   143 C79     14.6878   1.5866  19.0493   C.ar      3 RES3   0.0000
   144 H57     14.3870   1.3608  18.1976   H         3 RES3   0.0000
   145 C80     14.5880   0.6875  20.0688   C.ar      3 RES3   0.0000
   146 H58     14.1967  -0.1444  19.9255   H         3 RES3   0.0000
   147 C81     15.0673   1.0206  21.3041   C.ar      3 RES3   0.0000
   148 H59     15.0124   0.4117  22.0058   H         3 RES3   0.0000
   149 C82     15.6376   2.2713  21.5116   C.ar      3 RES3   0.0000
   150 H60     15.9541   2.4786  22.3605   H         3 RES3   0.0000
   151 C83     17.7663   4.9475  19.9039   C.ar      3 RES3   0.0000
   152 C84     18.1893   4.1266  18.8636   C.ar      3 RES3   0.0000
   153 H61     17.6560   3.4048  18.6170   H         3 RES3   0.0000
   154 C85     19.3804   4.3411  18.1777   C.ar      3 RES3   0.0000
   155 H62     19.6290   3.7664  17.4905   H         3 RES3   0.0000
   156 C86     20.1831   5.3888  18.5067   C.ar      3 RES3   0.0000
   157 H63     20.9727   5.5403  18.0394   H         3 RES3   0.0000
   158 C87     19.8158   6.2250  19.5387   C.ar      3 RES3   0.0000
   159 H64     20.3610   6.9411  19.7721   H         3 RES3   0.0000
   160 C88     18.6413   5.9977  20.2234   C.ar      3 RES3   0.0000
   161 H65     18.4184   6.5652  20.9273   H         3 RES3   0.0000
   162 C89     16.7694   4.9211  22.3516   C.ar      3 RES3   0.0000
   163 C90     15.9877   5.5761  23.2906   C.ar      3 RES3   0.0000
   164 H66     15.1605   5.9091  23.0291   H         3 RES3   0.0000
   165 C91     16.3951   5.7533  24.6083   C.ar      3 RES3   0.0000
   166 H67     15.8453   6.2107  25.2029   H         3 RES3   0.0000
   167 C92     17.5980   5.2644  25.0394   C.ar      3 RES3   0.0000
   168 H68     17.8805   5.4045  25.9147   H         3 RES3   0.0000
   169 C93     18.3744   4.5669  24.1570   C.ar      3 RES3   0.0000
   170 H69     19.1838   4.2024  24.4336   H         3 RES3   0.0000
   171 C94     17.9554   4.4054  22.8599   C.ar      3 RES3   0.0000
   172 H70     18.5016   3.9208  22.2838   H         3 RES3   0.0000
   173 B2      16.3734   4.7241  20.7643   B         3 RES3  -1.0000
@<TRIPOS>BOND
     1     1     2    1
     2     3     1   ar
     3     4     3    1
     4     5     3   ar
     5     6     5    1
     6     7     5   ar
     7     8     7    1
     8     9     7   ar
     9    10     9    1
    10    11    10   ar
    11    12    11    1
    12    13    11   ar
    13    14    13    1
    14    15    13   ar
    15    16    15   ar
    16    17    16    1
    17    18    16   ar
    18    19    18    1
    19    20    18   ar
    20    21    20   ar
    21    22    21    1
    22    23    21   ar
    23    24    23    1
    24    25    23   ar
    25    26    20   ar
    26    27    15   ar
    27    28    25    1
    28    29    28   ar
    29    30    29    1
    30    31    29   ar
    31    32    31    1
    32    33    31   ar
    33    34    33    1
    34    35    33   ar
    35    36    35    1
    36    37    28   ar
    37    38    37    1
    38    39    40    1
    39    41    39   ar
    40    42    41    1
    41    43    41   ar
    42    44    43    1
    43    45    43   ar
    44    46    45    1
    45    47    45   ar
    46    48    47    1
    47    49    48   ar
    48    50    49    1
    49    51    49   ar
    50    52    51    1
    51    53    51   ar
    52    54    53   ar
    53    55    54    1
    54    56    54   ar
    55    57    56    1
    56    58    56   ar
    57    59    58   ar
    58    60    59    1
    59    61    59   ar
    60    62    61    1
    61    63    61   ar
    62    64    58   ar
    63    65    53   ar
    64    66    63    1
    65    67    66   ar
    66    68    67    1
    67    69    67   ar
    68    70    69    1
    69    71    69   ar
    70    72    71    1
    71    73    71   ar
    72    74    73    1
    73    75    66   ar
    74    76    75    1
    75    77     1   ar
    76    78    10   ar
    77    79    25   ar
    78    80    63   ar
    79    81    48   ar
    80    82    39   ar
    81    83    77    1
    82     9    77   ar
    83    26    27   ar
    84    26    79   ar
    85    27    78   ar
    86    35    37   ar
    87    47    82   ar
    88    64    65   ar
    89    64    80   ar
    90    65    81   ar
    91    73    75   ar
    92    78    83    1
    93    79    83    1
    94    80    83    1
    95    81    83    1
    96    82    83    1
    97    84    85   ar
    98    85    86    1
    99    87    85   ar
   100    88    87    1
   101    89    87   ar
   102    90    89    1
   103    91    89   ar
   104    92    91    1
   105    93    84   ar
   106    94    93    1
   107    95    96   ar
   108    96    97    1
   109    98    96   ar
   110    99    98    1
   111   100    98   ar
   112   101   100    1
   113   102   100   ar
   114   103   102    1
   115   104    95   ar
   116   105   104    1
   117   106   107   ar
   118   107   108    1
   119   109   107   ar
   120   110   109    1
   121   111   109   ar
   122   112   111    1
   123   113   111   ar
   124   114   113    1
   125   115   106   ar
   126   116   115    1
   127   117   118   ar
   128   118   119    1
   129   120   118   ar
   130   121   120    1
   131   122   120   ar
   132   123   122    1
   133   124   122   ar
   134   125   124    1
   135   126   117   ar
   136   127   126    1
   137   128    84    1
   138    91    93   ar
   139    95   128    1
   140   102   104   ar
   141   106   128    1
   142   113   115   ar
   143   117   128    1
   144   124   126   ar
   145   129   130   ar
   146   130   131    1
   147   132   130   ar
   148   133   132    1
   149   134   132   ar
   150   135   134    1
   151   136   134   ar
   152   137   136    1
   153   138   129   ar
   154   139   138    1
   155   140   141   ar
   156   141   142    1
   157   143   141   ar
   158   144   143    1
   159   145   143   ar
   160   146   145    1
   161   147   145   ar
   162   148   147    1
   163   149   140   ar
   164   150   149    1
   165   151   152   ar
   166   152   153    1
   167   154   152   ar
   168   155   154    1
   169   156   154   ar
   170   157   156    1
   171   158   156   ar
   172   159   158    1
   173   160   151   ar
   174   161   160    1
   175   162   163   ar
   176   163   164    1
   177   165   163   ar
   178   166   165    1
   179   167   165   ar
   180   168   167    1
   181   169   167   ar
   182   170   169    1
   183   171   162   ar
   184   172   171    1
   185   173   129    1
   186   136   138   ar
   187   140   173    1
   188   147   149   ar
   189   151   173    1
   190   158   160   ar
   191   162   173    1
   192   169   171   ar
@<TRIPOS>SUBSTRUCTURE
     1 RES1        1 GROUP             0 ****  ****    0  
     2 RES2       84 GROUP             0 ****  ****    0  
     3 RES3      129 GROUP             0 ****  ****    0  
@<TRIPOS>CRYSIN
   20.6009   14.2939   24.6015   90.0000  103.0490   90.0000    14     1
