@<TRIPOS>MOLECULE
TESRAL
   146   158     2     0     0
SMALL
USER_CHARGES
****
Generated from the CSD

@<TRIPOS>ATOM
     1 Fe1      0.0000   0.0000   0.0000   Fe        1 RES1   2.0000
     2 S1      -3.4689  -0.9100   3.4466   S.3       1 RES1   0.0000
     3 S2      -2.9491   2.0212   3.4470   S.3       1 RES1   0.0000
     4 S3      -5.9963  -0.3362   5.5791   S.3       1 RES1   0.0000
     5 S4      -5.2651   2.5303   5.5430   S.3       1 RES1   0.0000
     6 P1      -1.6267  -1.3181   0.9413   P.3       1 RES1   0.0000
     7 P2      -1.3324   1.8006   0.7361   P.3       1 RES1   0.0000
     8 N1      -0.8348  -0.2404  -1.7162   N.1       1 RES1   0.0000
     9 C1      -2.4277  -0.2590   2.1887   C.2       1 RES1   0.0000
    10 C2      -2.2062   1.0661   2.1635   C.2       1 RES1   0.0000
    11 C3      -3.9529   0.6862   4.0429   C.2       1 RES1   0.0000
    12 C4      -4.9462   0.9172   4.9322   C.2       1 RES1   0.0000
    13 C5      -7.0166   0.7855   6.5077   C.2       1 RES1   0.0000
    14 C6      -6.6860   2.0825   6.4732   C.2       1 RES1   0.0000
    15 C7      -8.1262   0.1921   7.3213   C.3       1 RES1   0.0000
    16 H1      -8.5908   0.8913   7.7872   H         1 RES1   0.0000
    17 H2      -7.7611  -0.4273   7.9584   H         1 RES1   0.0000
    18 H3      -8.7384  -0.2676   6.7426   H         1 RES1   0.0000
    19 C8      -7.3508   3.2046   7.1992   C.3       1 RES1   0.0000
    20 H4      -8.1966   2.9068   7.5430   H         1 RES1   0.0000
    21 H5      -7.4900   3.9384   6.5953   H         1 RES1   0.0000
    22 H6      -6.7925   3.4895   7.9252   H         1 RES1   0.0000
    23 C9      -1.1990  -2.8291   1.8861   C.ar      1 RES1   0.0000
    24 C10     -2.0205  -3.9470   1.9591   C.ar      1 RES1   0.0000
    25 H7      -2.8686  -3.9103   1.5795   H         1 RES1   0.0000
    26 C11     -1.6161  -5.1101   2.5802   C.ar      1 RES1   0.0000
    27 H8      -2.1845  -5.8460   2.6081   H         1 RES1   0.0000
    28 C12     -0.3566  -5.1792   3.1669   C.ar      1 RES1   0.0000
    29 H9      -0.0698  -5.9712   3.5638   H         1 RES1   0.0000
    30 C13      0.4720  -4.0678   3.1550   C.ar      1 RES1   0.0000
    31 H10      1.3013  -4.1002   3.5731   H         1 RES1   0.0000
    32 C14      0.0510  -2.8960   2.5126   C.ar      1 RES1   0.0000
    33 H11      0.6102  -2.1515   2.5019   H         1 RES1   0.0000
    34 C15     -2.9831  -1.8127  -0.1712   C.ar      1 RES1   0.0000
    35 C16     -4.0420  -0.9474  -0.3756   C.ar      1 RES1   0.0000
    36 H12     -4.1168  -0.1770   0.1380   H         1 RES1   0.0000
    37 C17     -5.0042  -1.2322  -1.3591   C.ar      1 RES1   0.0000
    38 H13     -5.6882  -0.6258  -1.5277   H         1 RES1   0.0000
    39 C18     -4.9411  -2.3997  -2.0692   C.ar      1 RES1   0.0000
    40 H14     -5.6011  -2.5939  -2.6944   H         1 RES1   0.0000
    41 C19     -3.9202  -3.2866  -1.8728   C.ar      1 RES1   0.0000
    42 H15     -3.8823  -4.0743  -2.3639   H         1 RES1   0.0000
    43 C20     -2.9211  -2.9910  -0.9172   C.ar      1 RES1   0.0000
    44 H16     -2.2177  -3.5866  -0.7844   H         1 RES1   0.0000
    45 C21     -2.7216   2.5680  -0.1606   C.ar      1 RES1   0.0000
    46 C22     -3.3751   3.6815   0.4101   C.ar      1 RES1   0.0000
    47 H17     -3.0194   4.0808   1.1707   H         1 RES1   0.0000
    48 C23     -4.5432   4.1908  -0.1473   C.ar      1 RES1   0.0000
    49 H18     -4.9693   4.9181   0.2455   H         1 RES1   0.0000
    50 C24     -5.0665   3.6125  -1.2848   C.ar      1 RES1   0.0000
    51 H19     -5.8582   3.9427  -1.6445   H         1 RES1   0.0000
    52 C25     -4.4292   2.5443  -1.8980   C.ar      1 RES1   0.0000
    53 H20     -4.7710   2.1774  -2.6811   H         1 RES1   0.0000
    54 C26     -3.2686   2.0285  -1.3206   C.ar      1 RES1   0.0000
    55 H21     -2.8489   1.3034  -1.7228   H         1 RES1   0.0000
    56 C27     -0.4818   3.2737   1.4321   C.ar      1 RES1   0.0000
    57 C28     -0.0203   3.3082   2.7475   C.ar      1 RES1   0.0000
    58 H22     -0.1753   2.5853   3.3129   H         1 RES1   0.0000
    59 C29      0.6777   4.4282   3.2200   C.ar      1 RES1   0.0000
    60 H23      0.9756   4.4563   4.1013   H         1 RES1   0.0000
    61 C30      0.9251   5.5094   2.3626   C.ar      1 RES1   0.0000
    62 H24      1.4273   6.2345   2.6612   H         1 RES1   0.0000
    63 C31      0.4267   5.5029   1.0870   C.ar      1 RES1   0.0000
    64 H25      0.5657   6.2366   0.5336   H         1 RES1   0.0000
    65 C32     -0.2867   4.4045   0.6119   C.ar      1 RES1   0.0000
    66 H26     -0.6367   4.4174  -0.2495   H         1 RES1   0.0000
    67 C33     -1.3724  -0.4704  -2.7143   C.1       1 RES1   0.0000
    68 C34     -2.1177  -0.6755  -3.9487   C.3       1 RES1   0.0000
    69 H27     -2.9495  -1.1135  -3.7509   H         1 RES1   0.0000
    70 H28     -1.6031  -1.2236  -4.5460   H         1 RES1   0.0000
    71 H29     -2.2924   0.1726  -4.3628   H         1 RES1   0.0000
    72 S1B      3.4689   0.9100  -3.4466   S.3       1 RES1   0.0000
    73 S2B      2.9491  -2.0212  -3.4470   S.3       1 RES1   0.0000
    74 S3B      5.9963   0.3362  -5.5791   S.3       1 RES1   0.0000
    75 S4B      5.2651  -2.5303  -5.5430   S.3       1 RES1   0.0000
    76 P1B      1.6267   1.3181  -0.9413   P.3       1 RES1   0.0000
    77 P2B      1.3324  -1.8006  -0.7361   P.3       1 RES1   0.0000
    78 N1B      0.8348   0.2404   1.7162   N.1       1 RES1   0.0000
    79 C1B      2.4277   0.2590  -2.1887   C.2       1 RES1   0.0000
    80 C2B      2.2062  -1.0661  -2.1635   C.2       1 RES1   0.0000
    81 C3B      3.9529  -0.6862  -4.0429   C.2       1 RES1   0.0000
    82 C4B      4.9462  -0.9172  -4.9322   C.2       1 RES1   0.0000
    83 C5B      7.0166  -0.7855  -6.5077   C.2       1 RES1   0.0000
    84 C6B      6.6860  -2.0825  -6.4732   C.2       1 RES1   0.0000
    85 C7B      8.1262  -0.1921  -7.3213   C.3       1 RES1   0.0000
    86 H1B      8.5908  -0.8913  -7.7872   H         1 RES1   0.0000
    87 H2B      7.7611   0.4273  -7.9584   H         1 RES1   0.0000
    88 H3B      8.7384   0.2676  -6.7426   H         1 RES1   0.0000
    89 C8B      7.3508  -3.2046  -7.1992   C.3       1 RES1   0.0000
    90 H4B      8.1966  -2.9068  -7.5430   H         1 RES1   0.0000
    91 H5B      7.4900  -3.9384  -6.5953   H         1 RES1   0.0000
    92 H6B      6.7925  -3.4895  -7.9252   H         1 RES1   0.0000
    93 C9B      1.1990   2.8291  -1.8861   C.ar      1 RES1   0.0000
    94 C10B     2.0205   3.9470  -1.9591   C.ar      1 RES1   0.0000
    95 H7B      2.8686   3.9103  -1.5795   H         1 RES1   0.0000
    96 C11B     1.6161   5.1101  -2.5802   C.ar      1 RES1   0.0000
    97 H8B      2.1845   5.8460  -2.6081   H         1 RES1   0.0000
    98 C12B     0.3566   5.1792  -3.1669   C.ar      1 RES1   0.0000
    99 H9B      0.0698   5.9712  -3.5638   H         1 RES1   0.0000
   100 C13B    -0.4720   4.0678  -3.1550   C.ar      1 RES1   0.0000
   101 H10B    -1.3013   4.1002  -3.5731   H         1 RES1   0.0000
   102 C14B    -0.0510   2.8960  -2.5126   C.ar      1 RES1   0.0000
   103 H11B    -0.6102   2.1515  -2.5019   H         1 RES1   0.0000
   104 C15B     2.9831   1.8127   0.1712   C.ar      1 RES1   0.0000
   105 C16B     4.0420   0.9474   0.3756   C.ar      1 RES1   0.0000
   106 H12B     4.1168   0.1770  -0.1380   H         1 RES1   0.0000
   107 C17B     5.0042   1.2322   1.3591   C.ar      1 RES1   0.0000
   108 H13B     5.6882   0.6258   1.5277   H         1 RES1   0.0000
   109 C18B     4.9411   2.3997   2.0692   C.ar      1 RES1   0.0000
   110 H14B     5.6011   2.5939   2.6944   H         1 RES1   0.0000
   111 C19B     3.9202   3.2866   1.8728   C.ar      1 RES1   0.0000
   112 H15B     3.8823   4.0743   2.3639   H         1 RES1   0.0000
   113 C20B     2.9211   2.9910   0.9172   C.ar      1 RES1   0.0000
   114 H16B     2.2177   3.5866   0.7844   H         1 RES1   0.0000
   115 C21B     2.7216  -2.5680   0.1606   C.ar      1 RES1   0.0000
   116 C22B     3.3751  -3.6815  -0.4101   C.ar      1 RES1   0.0000
   117 H17B     3.0194  -4.0808  -1.1707   H         1 RES1   0.0000
   118 C23B     4.5432  -4.1908   0.1473   C.ar      1 RES1   0.0000
   119 H18B     4.9693  -4.9181  -0.2455   H         1 RES1   0.0000
   120 C24B     5.0665  -3.6125   1.2848   C.ar      1 RES1   0.0000
   121 H19B     5.8582  -3.9427   1.6445   H         1 RES1   0.0000
   122 C25B     4.4292  -2.5443   1.8980   C.ar      1 RES1   0.0000
   123 H20B     4.7710  -2.1774   2.6811   H         1 RES1   0.0000
   124 C26B     3.2686  -2.0285   1.3206   C.ar      1 RES1   0.0000
   125 H21B     2.8489  -1.3034   1.7228   H         1 RES1   0.0000
   126 C27B     0.4818  -3.2737  -1.4321   C.ar      1 RES1   0.0000
   127 C28B     0.0203  -3.3082  -2.7475   C.ar      1 RES1   0.0000
   128 H22B     0.1753  -2.5853  -3.3129   H         1 RES1   0.0000
   129 C29B    -0.6777  -4.4282  -3.2200   C.ar      1 RES1   0.0000
   130 H23B    -0.9756  -4.4563  -4.1013   H         1 RES1   0.0000
   131 C30B    -0.9251  -5.5094  -2.3626   C.ar      1 RES1   0.0000
   132 H24B    -1.4273  -6.2345  -2.6612   H         1 RES1   0.0000
   133 C31B    -0.4267  -5.5029  -1.0870   C.ar      1 RES1   0.0000
   134 H25B    -0.5657  -6.2366  -0.5336   H         1 RES1   0.0000
   135 C32B     0.2867  -4.4045  -0.6119   C.ar      1 RES1   0.0000
   136 H26B     0.6367  -4.4174   0.2495   H         1 RES1   0.0000
   137 C33B     1.3724   0.4704   2.7143   C.1       1 RES1   0.0000
   138 C34B     2.1177   0.6755   3.9487   C.3       1 RES1   0.0000
   139 H27B     2.9495   1.1135   3.7509   H         1 RES1   0.0000
   140 H28B     1.6031   1.2236   4.5460   H         1 RES1   0.0000
   141 H29B     2.2924  -0.1726   4.3628   H         1 RES1   0.0000
   142 F1      -5.1971  -7.9298   0.5522   F         2 RES2   0.0000
   143 F2      -3.0057  -7.7127   0.1327   F         2 RES2   0.0000
   144 F3      -4.4161  -8.3862  -1.5038   F         2 RES2   0.0000
   145 F4      -4.4793  -6.2511  -0.7645   F         2 RES2   0.0000
   146 B1      -4.2539  -7.5530  -0.3955   B         2 RES2  -1.0000
@<TRIPOS>BOND
     1     1     6    1
     2     2     9    1
     3     3    10    1
     4     4    12    1
     5     5    12    1
     6     6     9    1
     7     7     1    1
     8     8     1    1
     9     9    10    2
    10    10     7    1
    11    11     2    1
    12    12    11    2
    13    13     4    1
    14    14     5    1
    15    15    13    1
    16    16    15    1
    17    17    15    1
    18    18    15    1
    19    19    14    1
    20    20    19    1
    21    21    19    1
    22    22    19    1
    23    23     6    1
    24    24    23   ar
    25    25    24    1
    26    26    24   ar
    27    27    26    1
    28    28    26   ar
    29    29    28    1
    30    30    28   ar
    31    31    30    1
    32    32    23   ar
    33    33    32    1
    34    34     6    1
    35    35    34   ar
    36    36    35    1
    37    37    35   ar
    38    38    37    1
    39    39    37   ar
    40    40    39    1
    41    41    39   ar
    42    42    41    1
    43    43    34   ar
    44    44    43    1
    45    45     7    1
    46    46    45   ar
    47    47    46    1
    48    48    46   ar
    49    49    48    1
    50    50    48   ar
    51    51    50    1
    52    52    50   ar
    53    53    52    1
    54    54    45   ar
    55    55    54    1
    56    56     7    1
    57    57    56   ar
    58    58    57    1
    59    59    57   ar
    60    60    59    1
    61    61    59   ar
    62    62    61    1
    63    63    61   ar
    64    64    63    1
    65    65    56   ar
    66    66    65    1
    67    67     8    3
    68    68    67    1
    69    69    68    1
    70    70    68    1
    71    71    68    1
    72    72    79    1
    73    73    80    1
    74    74    82    1
    75    75    82    1
    76    76     1    1
    77    77     1    1
    78    78     1    1
    79    79    76    1
    80    80    77    1
    81    81    72    1
    82    82    81    2
    83    83    74    1
    84    84    75    1
    85    85    83    1
    86    86    85    1
    87    87    85    1
    88    88    85    1
    89    89    84    1
    90    90    89    1
    91    91    89    1
    92    92    89    1
    93    93    76    1
    94    94    93   ar
    95    95    94    1
    96    96    94   ar
    97    97    96    1
    98    98    96   ar
    99    99    98    1
   100   100    98   ar
   101   101   100    1
   102   102    93   ar
   103   103   102    1
   104   104    76    1
   105   105   104   ar
   106   106   105    1
   107   107   105   ar
   108   108   107    1
   109   109   107   ar
   110   110   109    1
   111   111   109   ar
   112   112   111    1
   113   113   104   ar
   114   114   113    1
   115   115    77    1
   116   116   115   ar
   117   117   116    1
   118   118   116   ar
   119   119   118    1
   120   120   118   ar
   121   121   120    1
   122   122   120   ar
   123   123   122    1
   124   124   115   ar
   125   125   124    1
   126   126    77    1
   127   127   126   ar
   128   128   127    1
   129   129   127   ar
   130   130   129    1
   131   131   129   ar
   132   132   131    1
   133   133   131   ar
   134   134   133    1
   135   135   126   ar
   136   136   135    1
   137   137    78    3
   138   138   137    1
   139   139   138    1
   140   140   138    1
   141   141   138    1
   142     3    11    1
   143    13    14    2
   144    30    32   ar
   145    41    43   ar
   146    52    54   ar
   147    63    65   ar
   148    73    81    1
   149    79    80    2
   150    83    84    2
   151   100   102   ar
   152   111   113   ar
   153   122   124   ar
   154   133   135   ar
   155   142   146    1
   156   143   146    1
   157   144   146    1
   158   145   146    1
@<TRIPOS>SUBSTRUCTURE
     1 RES1        1 GROUP             0 ****  ****    0  
     2 RES2      142 GROUP             0 ****  ****    0  
@<TRIPOS>CRYSIN
   11.4300   21.5800   15.9650   90.0000  123.7600   90.0000    14     1
