@<TRIPOS>MOLECULE
TEYCEG
   199   225     1     0     0
SMALL
NO_CHARGES
****
Generated from the CSD

@<TRIPOS>ATOM
     1 Fe1      7.4792  10.5341   6.8504   Fe        1 RES1   0.0000
     2 S1       8.8151  14.6507   7.9805   S.3       1 RES1   0.0000
     3 S2       6.0238   8.0960  10.2839   S.3       1 RES1   0.0000
     4 S3       3.8425   8.0502   7.6728   S.3       1 RES1   0.0000
     5 B1       9.3731  10.5247   9.2284   B         1 RES1   0.0000
     6 N1       8.4389  12.0063   7.5938   N.2       1 RES1   0.0000
     7 N2       7.0953  10.0219   8.6603   N.2       1 RES1   0.0000
     8 N3       5.8872   9.5106   6.6156   N.2       1 RES1   0.0000
     9 O1       9.4056  11.8620   8.5392   O.3       1 RES1   0.0000
    10 O2       7.9625  10.2496   9.6857   O.3       1 RES1   0.0000
    11 O3       5.1814   9.4613   5.4598   O.3       1 RES1   0.0000
    12 C1       8.0263  13.2267   7.3286   C.2       1 RES1   0.0000
    13 C2       6.1515   9.1267   8.8634   C.2       1 RES1   0.0000
    14 C3       5.3566   8.9187   7.6637   C.2       1 RES1   0.0000
    15 C4      10.3053  10.5092  10.4932   C.ar      1 RES1   0.0000
    16 C5      10.3184   9.3908  11.3317   C.ar      1 RES1   0.0000
    17 H1       9.7902   8.6573  11.1114   H         1 RES1   0.0000
    18 C6      11.0907   9.3414  12.4746   C.ar      1 RES1   0.0000
    19 H2      11.0790   8.5800  13.0104   H         1 RES1   0.0000
    20 C7      11.8837  10.4197  12.8279   C.ar      1 RES1   0.0000
    21 H3      12.3983  10.3955  13.6022   H         1 RES1   0.0000
    22 C8      11.8976  11.5239  12.0151   C.ar      1 RES1   0.0000
    23 H4      12.4338  12.2504  12.2376   H         1 RES1   0.0000
    24 C9      11.1196  11.5730  10.8675   C.ar      1 RES1   0.0000
    25 H5      11.1438  12.3353  10.3359   H         1 RES1   0.0000
    26 C10      7.7888  15.1288   9.4352   C.3       1 RES1   0.0000
    27 C11      6.4449  15.6971   9.0135   C.3       1 RES1   0.0000
    28 H6       5.9192  15.0062   8.5822   H         1 RES1   0.0000
    29 H7       6.5796  16.4183   8.3795   H         1 RES1   0.0000
    30 C12      5.6931  16.2257  10.2461   C.3       1 RES1   0.0000
    31 H8       4.8231  16.5866   9.9742   H         1 RES1   0.0000
    32 C13      6.5217  17.3192  10.8884   C.3       1 RES1   0.0000
    33 H9       6.0524  17.6741  11.6594   H         1 RES1   0.0000
    34 H10      6.6531  18.0442  10.2565   H         1 RES1   0.0000
    35 C14      7.8712  16.7641  11.3202   C.3       1 RES1   0.0000
    36 H11      8.3963  17.4754  11.7416   H         1 RES1   0.0000
    37 C15      7.6670  15.6190  12.3223   C.3       1 RES1   0.0000
    38 H12      7.2020  15.9466  13.1090   H         1 RES1   0.0000
    39 H13      8.5269  15.2671  12.6021   H         1 RES1   0.0000
    40 C16      6.8388  14.5042  11.6485   C.3       1 RES1   0.0000
    41 H14      6.7015  13.7716  12.2842   H         1 RES1   0.0000
    42 C17      7.5999  13.9784  10.4244   C.3       1 RES1   0.0000
    43 H15      8.4641  13.6291  10.6949   H         1 RES1   0.0000
    44 H16      7.0992  13.2605  10.0071   H         1 RES1   0.0000
    45 C18      8.6245  16.2346  10.1055   C.3       1 RES1   0.0000
    46 H17      9.4836  15.8768  10.3798   H         1 RES1   0.0000
    47 H18      8.7816  16.9552   9.4755   H         1 RES1   0.0000
    48 C19      5.4893  15.0654  11.2265   C.3       1 RES1   0.0000
    49 H19      5.0062  15.3778  12.0074   H         1 RES1   0.0000
    50 H20      4.9642  14.3677  10.8045   H         1 RES1   0.0000
    51 C20      5.1890   9.1032  11.5745   C.3       1 RES1   0.0000
    52 C21      3.9623   9.8206  11.0204   C.3       1 RES1   0.0000
    53 H21      3.3567   9.1760  10.6209   H         1 RES1   0.0000
    54 H22      4.2323  10.4485  10.3332   H         1 RES1   0.0000
    55 C22      3.2466  10.5744  12.1609   C.3       1 RES1   0.0000
    56 H23      2.4646  11.0446  11.8047   H         1 RES1   0.0000
    57 C23      4.2144  11.5785  12.7731   C.3       1 RES1   0.0000
    58 H24      4.5018  12.2079  12.0951   H         1 RES1   0.0000
    59 H25      3.7677  12.0744  13.4762   H         1 RES1   0.0000
    60 C24      5.4142  10.8611  13.3427   C.3       1 RES1   0.0000
    61 H26      6.0184  11.5163  13.7502   H         1 RES1   0.0000
    62 C25      4.9624   9.8707  14.4070   C.3       1 RES1   0.0000
    63 H27      4.5095  10.3393  15.1258   H         1 RES1   0.0000
    64 H28      5.7309   9.4096  14.7805   H         1 RES1   0.0000
    65 C26      4.0036   8.8545  13.7538   C.3       1 RES1   0.0000
    66 H29      3.7130   8.2084  14.4298   H         1 RES1   0.0000
    67 C27      4.7299   8.1083  12.6325   C.3       1 RES1   0.0000
    68 H30      5.4953   7.6366  12.9939   H         1 RES1   0.0000
    69 H31      4.1331   7.4561  12.2321   H         1 RES1   0.0000
    70 C28      6.1443  10.1376  12.2190   C.3       1 RES1   0.0000
    71 H32      6.9269   9.6856  12.5719   H         1 RES1   0.0000
    72 H33      6.4372  10.7762  11.5498   H         1 RES1   0.0000
    73 C29      2.8030   9.5704  13.2183   C.3       1 RES1   0.0000
    74 H34      2.3479  10.0330  13.9393   H         1 RES1   0.0000
    75 H35      2.1868   8.9318  12.8295   H         1 RES1   0.0000
    76 C30      4.2350   6.4860   6.7449   C.3       1 RES1   0.0000
    77 C31      5.7207   6.3149   6.4495   C.3       1 RES1   0.0000
    78 H36      6.2297   6.3368   7.2752   H         1 RES1   0.0000
    79 H37      6.0328   7.0345   5.8777   H         1 RES1   0.0000
    80 C32      5.9130   4.9479   5.7393   C.3       1 RES1   0.0000
    81 H38      6.8644   4.8170   5.5434   H         1 RES1   0.0000
    82 C33      5.4285   3.8230   6.6748   C.3       1 RES1   0.0000
    83 H39      5.5665   2.9621   6.2503   H         1 RES1   0.0000
    84 H40      5.9411   3.8403   7.4999   H         1 RES1   0.0000
    85 C34      3.9490   4.0147   6.9842   C.3       1 RES1   0.0000
    86 H41      3.6370   3.2897   7.5656   H         1 RES1   0.0000
    87 C35      3.1690   4.0086   5.7067   C.3       1 RES1   0.0000
    88 H42      2.2275   4.1300   5.9051   H         1 RES1   0.0000
    89 H43      3.2745   3.1487   5.2694   H         1 RES1   0.0000
    90 C36      3.6368   5.1281   4.7479   C.3       1 RES1   0.0000
    91 H44      3.1202   5.1007   3.9157   H         1 RES1   0.0000
    92 C37      3.4284   6.4815   5.4653   C.3       1 RES1   0.0000
    93 H45      3.7157   7.2074   4.8912   H         1 RES1   0.0000
    94 H46      2.4873   6.6067   5.6667   H         1 RES1   0.0000
    95 C38      3.7618   5.3597   7.6854   C.3       1 RES1   0.0000
    96 H47      4.2765   5.3782   8.5082   H         1 RES1   0.0000
    97 H48      2.8265   5.4874   7.9081   H         1 RES1   0.0000
    98 C39      5.1390   4.9499   4.4473   C.3       1 RES1   0.0000
    99 H49      5.2836   4.1133   3.9760   H         1 RES1   0.0000
   100 H50      5.4485   5.6740   3.8801   H         1 RES1   0.0000
   101 S1B      6.1433  14.6507   5.7204   S.3       1 RES1   0.0000
   102 S2B      8.9346   8.0960   3.4170   S.3       1 RES1   0.0000
   103 S3B     11.1159   8.0502   6.0281   S.3       1 RES1   0.0000
   104 B1B      5.5854  10.5247   4.4725   B         1 RES1   0.0000
   105 N1B      6.5196  12.0063   6.1070   N.2       1 RES1   0.0000
   106 N2B      7.8631  10.0219   5.0406   N.2       1 RES1   0.0000
   107 N3B      9.0712   9.5106   7.0853   N.2       1 RES1   0.0000
   108 O1B      5.5528  11.8620   5.1617   O.3       1 RES1   0.0000
   109 O2B      6.9960  10.2496   4.0152   O.3       1 RES1   0.0000
   110 O3B      9.7770   9.4613   8.2411   O.3       1 RES1   0.0000
   111 C1B      6.9321  13.2267   6.3723   C.2       1 RES1   0.0000
   112 C2B      8.8069   9.1267   4.8375   C.2       1 RES1   0.0000
   113 C3B      9.6018   8.9187   6.0372   C.2       1 RES1   0.0000
   114 C4B      4.6531  10.5092   3.2076   C.ar      1 RES1   0.0000
   115 C5B      4.6400   9.3908   2.3692   C.ar      1 RES1   0.0000
   116 H1B      5.1682   8.6573   2.5895   H         1 RES1   0.0000
   117 C6B      3.8677   9.3414   1.2262   C.ar      1 RES1   0.0000
   118 H2B      3.8794   8.5800   0.6905   H         1 RES1   0.0000
   119 C7B      3.0747  10.4197   0.8730   C.ar      1 RES1   0.0000
   120 H3B      2.5601  10.3955   0.0986   H         1 RES1   0.0000
   121 C8B      3.0608  11.5239   1.6858   C.ar      1 RES1   0.0000
   122 H4B      2.5246  12.2504   1.4633   H         1 RES1   0.0000
   123 C9B      3.8389  11.5730   2.8333   C.ar      1 RES1   0.0000
   124 H5B      3.8147  12.3353   3.3649   H         1 RES1   0.0000
   125 C10B     7.1696  15.1288   4.2656   C.3       1 RES1   0.0000
   126 C11B     8.5136  15.6971   4.6873   C.3       1 RES1   0.0000
   127 H6B      9.0392  15.0062   5.1186   H         1 RES1   0.0000
   128 H7B      8.3788  16.4183   5.3214   H         1 RES1   0.0000
   129 C12B     9.2653  16.2257   3.4548   C.3       1 RES1   0.0000
   130 H8B     10.1354  16.5866   3.7266   H         1 RES1   0.0000
   131 C13B     8.4368  17.3192   2.8125   C.3       1 RES1   0.0000
   132 H9B      8.9060  17.6741   2.0414   H         1 RES1   0.0000
   133 H10B     8.3053  18.0442   3.4444   H         1 RES1   0.0000
   134 C14B     7.0873  16.7641   2.3807   C.3       1 RES1   0.0000
   135 H11B     6.5621  17.4754   1.9592   H         1 RES1   0.0000
   136 C15B     7.2914  15.6190   1.3786   C.3       1 RES1   0.0000
   137 H12B     7.7565  15.9466   0.5919   H         1 RES1   0.0000
   138 H13B     6.4315  15.2671   1.0988   H         1 RES1   0.0000
   139 C16B     8.1196  14.5042   2.0524   C.3       1 RES1   0.0000
   140 H14B     8.2569  13.7716   1.4167   H         1 RES1   0.0000
   141 C17B     7.3586  13.9784   3.2764   C.3       1 RES1   0.0000
   142 H15B     6.4944  13.6291   3.0060   H         1 RES1   0.0000
   143 H16B     7.8593  13.2605   3.6938   H         1 RES1   0.0000
   144 C18B     6.3340  16.2346   3.5954   C.3       1 RES1   0.0000
   145 H17B     5.4748  15.8768   3.3211   H         1 RES1   0.0000
   146 H18B     6.1768  16.9552   4.2253   H         1 RES1   0.0000
   147 C19B     9.4691  15.0654   2.4744   C.3       1 RES1   0.0000
   148 H19B     9.9523  15.3778   1.6934   H         1 RES1   0.0000
   149 H20B     9.9942  14.3677   2.8964   H         1 RES1   0.0000
   150 C20B     9.7694   9.1032   2.1264   C.3       1 RES1   0.0000
   151 C21B    10.9961   9.8206   2.6804   C.3       1 RES1   0.0000
   152 H21B    11.6017   9.1760   3.0800   H         1 RES1   0.0000
   153 H22B    10.7262  10.4485   3.3677   H         1 RES1   0.0000
   154 C22B    11.7119  10.5744   1.5400   C.3       1 RES1   0.0000
   155 H23B    12.4939  11.0446   1.8962   H         1 RES1   0.0000
   156 C23B    10.7440  11.5785   0.9278   C.3       1 RES1   0.0000
   157 H24B    10.4566  12.2079   1.6057   H         1 RES1   0.0000
   158 H25B    11.1907  12.0744   0.2247   H         1 RES1   0.0000
   159 C24B     9.5443  10.8611   0.3581   C.3       1 RES1   0.0000
   160 H26B     8.9401  11.5163  -0.0493   H         1 RES1   0.0000
   161 C25B     9.9960   9.8707  -0.7061   C.3       1 RES1   0.0000
   162 H27B    10.4490  10.3393  -1.4249   H         1 RES1   0.0000
   163 H28B     9.2275   9.4096  -1.0796   H         1 RES1   0.0000
   164 C26B    10.9548   8.8545  -0.0529   C.3       1 RES1   0.0000
   165 H29B    11.2454   8.2084  -0.7289   H         1 RES1   0.0000
   166 C27B    10.2286   8.1083   1.0684   C.3       1 RES1   0.0000
   167 H30B     9.4631   7.6366   0.7070   H         1 RES1   0.0000
   168 H31B    10.8253   7.4561   1.4687   H         1 RES1   0.0000
   169 C28B     8.8141  10.1376   1.4819   C.3       1 RES1   0.0000
   170 H32B     8.0315   9.6856   1.1290   H         1 RES1   0.0000
   171 H33B     8.5212  10.7762   2.1510   H         1 RES1   0.0000
   172 C29B    12.1554   9.5704   0.4825   C.3       1 RES1   0.0000
   173 H34B    12.6105  10.0330  -0.2384   H         1 RES1   0.0000
   174 H35B    12.7716   8.9318   0.8714   H         1 RES1   0.0000
   175 C30B    10.7234   6.4860   6.9559   C.3       1 RES1   0.0000
   176 C31B     9.2377   6.3149   7.2513   C.3       1 RES1   0.0000
   177 H36B     8.7287   6.3368   6.4257   H         1 RES1   0.0000
   178 H37B     8.9256   7.0345   7.8232   H         1 RES1   0.0000
   179 C32B     9.0454   4.9479   7.9616   C.3       1 RES1   0.0000
   180 H38B     8.0940   4.8170   8.1575   H         1 RES1   0.0000
   181 C33B     9.5299   3.8230   7.0261   C.3       1 RES1   0.0000
   182 H39B     9.3919   2.9621   7.4505   H         1 RES1   0.0000
   183 H40B     9.0174   3.8403   6.2010   H         1 RES1   0.0000
   184 C34B    11.0094   4.0147   6.7167   C.3       1 RES1   0.0000
   185 H41B    11.3214   3.2897   6.1353   H         1 RES1   0.0000
   186 C35B    11.7895   4.0086   7.9942   C.3       1 RES1   0.0000
   187 H42B    12.7309   4.1300   7.7958   H         1 RES1   0.0000
   188 H43B    11.6839   3.1487   8.4315   H         1 RES1   0.0000
   189 C36B    11.3217   5.1281   8.9530   C.3       1 RES1   0.0000
   190 H44B    11.8382   5.1007   9.7852   H         1 RES1   0.0000
   191 C37B    11.5300   6.4815   8.2356   C.3       1 RES1   0.0000
   192 H45B    11.2428   7.2074   8.8097   H         1 RES1   0.0000
   193 H46B    12.4711   6.6067   8.0342   H         1 RES1   0.0000
   194 C38B    11.1966   5.3597   6.0155   C.3       1 RES1   0.0000
   195 H47B    10.6819   5.3782   5.1926   H         1 RES1   0.0000
   196 H48B    12.1319   5.4874   5.7927   H         1 RES1   0.0000
   197 C39B     9.8194   4.9499   9.2536   C.3       1 RES1   0.0000
   198 H49B     9.6748   4.1133   9.7249   H         1 RES1   0.0000
   199 H50B     9.5099   5.6740   9.8208   H         1 RES1   0.0000
@<TRIPOS>BOND
     1     1     6    1
     2     2    12    1
     3     3    13    1
     4     4    14    1
     5     5     9    1
     6     6     9    1
     7     7     1    1
     8     8     1    1
     9    10     5    1
    10    11     8    1
    11    12     6    2
    12    13     7    2
    13    14     8    2
    14    15     5    1
    15    16    15   ar
    16    17    16    1
    17    18    16   ar
    18    19    18    1
    19    20    18   ar
    20    21    20    1
    21    22    20   ar
    22    23    22    1
    23    24    15   ar
    24    25    24    1
    25    26     2    1
    26    27    26    1
    27    28    27    1
    28    29    27    1
    29    30    27    1
    30    31    30    1
    31    32    30    1
    32    33    32    1
    33    34    32    1
    34    35    32    1
    35    36    35    1
    36    37    35    1
    37    38    37    1
    38    39    37    1
    39    40    37    1
    40    41    40    1
    41    42    26    1
    42    43    42    1
    43    44    42    1
    44    45    26    1
    45    46    45    1
    46    47    45    1
    47    48    30    1
    48    49    48    1
    49    50    48    1
    50    51     3    1
    51    52    51    1
    52    53    52    1
    53    54    52    1
    54    55    52    1
    55    56    55    1
    56    57    55    1
    57    58    57    1
    58    59    57    1
    59    60    57    1
    60    61    60    1
    61    62    60    1
    62    63    62    1
    63    64    62    1
    64    65    62    1
    65    66    65    1
    66    67    51    1
    67    68    67    1
    68    69    67    1
    69    70    51    1
    70    71    70    1
    71    72    70    1
    72    73    55    1
    73    74    73    1
    74    75    73    1
    75    76     4    1
    76    77    76    1
    77    78    77    1
    78    79    77    1
    79    80    77    1
    80    81    80    1
    81    82    80    1
    82    83    82    1
    83    84    82    1
    84    85    82    1
    85    86    85    1
    86    87    85    1
    87    88    87    1
    88    89    87    1
    89    90    87    1
    90    91    90    1
    91    92    76    1
    92    93    92    1
    93    94    92    1
    94    95    76    1
    95    96    95    1
    96    97    95    1
    97    98    80    1
    98    99    98    1
    99   100    98    1
   100   101   111    1
   101   102   112    1
   102   103   113    1
   103   104    11    1
   104   105     1    1
   105   106     1    1
   106   107     1    1
   107   108   104    1
   108   109   104    1
   109   110     5    1
   110   111    12    1
   111   112   106    2
   112   113   107    2
   113   114   104    1
   114   115   114   ar
   115   116   115    1
   116   117   115   ar
   117   118   117    1
   118   119   117   ar
   119   120   119    1
   120   121   119   ar
   121   122   121    1
   122   123   114   ar
   123   124   123    1
   124   125   101    1
   125   126   125    1
   126   127   126    1
   127   128   126    1
   128   129   126    1
   129   130   129    1
   130   131   129    1
   131   132   131    1
   132   133   131    1
   133   134   131    1
   134   135   134    1
   135   136   134    1
   136   137   136    1
   137   138   136    1
   138   139   136    1
   139   140   139    1
   140   141   125    1
   141   142   141    1
   142   143   141    1
   143   144   125    1
   144   145   144    1
   145   146   144    1
   146   147   129    1
   147   148   147    1
   148   149   147    1
   149   150   102    1
   150   151   150    1
   151   152   151    1
   152   153   151    1
   153   154   151    1
   154   155   154    1
   155   156   154    1
   156   157   156    1
   157   158   156    1
   158   159   156    1
   159   160   159    1
   160   161   159    1
   161   162   161    1
   162   163   161    1
   163   164   161    1
   164   165   164    1
   165   166   150    1
   166   167   166    1
   167   168   166    1
   168   169   150    1
   169   170   169    1
   170   171   169    1
   171   172   154    1
   172   173   172    1
   173   174   172    1
   174   175   103    1
   175   176   175    1
   176   177   176    1
   177   178   176    1
   178   179   176    1
   179   180   179    1
   180   181   179    1
   181   182   181    1
   182   183   181    1
   183   184   181    1
   184   185   184    1
   185   186   184    1
   186   187   186    1
   187   188   186    1
   188   189   186    1
   189   190   189    1
   190   191   175    1
   191   192   191    1
   192   193   191    1
   193   194   175    1
   194   195   194    1
   195   196   194    1
   196   197   179    1
   197   198   197    1
   198   199   197    1
   199     7    10    1
   200    13    14    1
   201    22    24   ar
   202    35    45    1
   203    40    42    1
   204    40    48    1
   205    60    70    1
   206    65    67    1
   207    65    73    1
   208    85    95    1
   209    90    92    1
   210    90    98    1
   211   105   108    1
   212   105   111    2
   213   106   109    1
   214   107   110    1
   215   112   113    1
   216   121   123   ar
   217   134   144    1
   218   139   141    1
   219   139   147    1
   220   159   169    1
   221   164   166    1
   222   164   172    1
   223   184   194    1
   224   189   191    1
   225   189   197    1
@<TRIPOS>SUBSTRUCTURE
     1 RES1        1 GROUP             0 ****  ****    0  
@<TRIPOS>CRYSIN
   17.3930   15.1670   27.8310   90.0000  100.0760   90.0000    15     1
