@<TRIPOS>MOLECULE
TEYCOQ
   127   141     2     0     0
SMALL
NO_CHARGES
****
Generated from the CSD

@<TRIPOS>ATOM
     1 Fe1      1.2337   2.0770  -3.3993   Fe        1 RES1   0.0000
     2 B1       2.9020  -0.4392  -3.5711   B         1 RES1   0.0000
     3 B2      -0.4280   4.6040  -3.2300   B         1 RES1   0.0000
     4 O1       2.9479   0.2848  -4.8826   O.3       1 RES1   0.0000
     5 O2      -0.5906   3.9813  -4.5888   O.3       1 RES1   0.0000
     6 O3       3.4348   0.4414  -2.4761   O.3       1 RES1   0.0000
     7 O4       1.0194   4.9357  -3.0039   O.3       1 RES1   0.0000
     8 O5       1.4806  -0.8135  -3.2607   O.3       1 RES1   0.0000
     9 O6      -0.8785   3.6235  -2.1791   O.3       1 RES1   0.0000
    10 N1       2.0645   1.3300  -4.9341   N.2       1 RES1   0.0000
    11 N2       0.2804   2.9491  -4.8010   N.2       1 RES1   0.0000
    12 N3       2.8552   1.6815  -2.4907   N.2       1 RES1   0.0000
    13 N4       1.7903   3.8132  -2.8676   N.2       1 RES1   0.0000
    14 N5       0.7158   0.2938  -2.9834   N.2       1 RES1   0.0000
    15 N6      -0.3081   2.3930  -2.3298   N.2       1 RES1   0.0000
    16 C1       1.6266   1.6774  -6.1127   C.2       1 RES1   0.0000
    17 C2       0.6169   2.6894  -6.0367   C.2       1 RES1   0.0000
    18 C3       3.5615   2.6746  -2.0198   C.2       1 RES1   0.0000
    19 C4       2.8904   3.9363  -2.1753   C.2       1 RES1   0.0000
    20 C5      -0.3268   0.1153  -2.2175   C.2       1 RES1   0.0000
    21 C6      -0.9770   1.3575  -1.8926   C.2       1 RES1   0.0000
    22 C7       2.0944   1.0829  -7.4089   C.3       1 RES1   0.0000
    23 H1       2.0929   0.1156  -7.3401   H         1 RES1   0.0000
    24 H2       3.0026   1.3710  -7.5877   H         1 RES1   0.0000
    25 C8       1.1848   1.5144  -8.5623   C.3       1 RES1   0.0000
    26 H3       1.6211   1.3153  -9.4056   H         1 RES1   0.0000
    27 H4       0.3592   1.0062  -8.5267   H         1 RES1   0.0000
    28 C9       0.8616   3.0002  -8.5028   C.3       1 RES1   0.0000
    29 H5       0.3626   3.2510  -9.2953   H         1 RES1   0.0000
    30 H6       1.6891   3.5077  -8.4981   H         1 RES1   0.0000
    31 C10      0.0440   3.3540  -7.2561   C.3       1 RES1   0.0000
    32 H7       0.0445   4.3158  -7.1311   H         1 RES1   0.0000
    33 H8      -0.8748   3.0669  -7.3802   H         1 RES1   0.0000
    34 C11     -0.8240  -1.2110  -1.7345   C.3       1 RES1   0.0000
    35 H9      -0.0858  -1.7148  -1.3569   H         1 RES1   0.0000
    36 H10     -1.1784  -1.7156  -2.4834   H         1 RES1   0.0000
    37 C12     -1.9152  -1.0342  -0.6766   C.3       1 RES1   0.0000
    38 H11     -2.3793  -1.8759  -0.5496   H         1 RES1   0.0000
    39 H12     -1.5080  -0.7858   0.1675   H         1 RES1   0.0000
    40 C13     -2.9195   0.0405  -1.0898   C.3       1 RES1   0.0000
    41 H13     -3.2809  -0.1759  -1.9638   H         1 RES1   0.0000
    42 H14     -3.6536   0.0552  -0.4566   H         1 RES1   0.0000
    43 C14     -2.2665   1.4204  -1.1399   C.3       1 RES1   0.0000
    44 H15     -2.8653   2.0488  -1.5731   H         1 RES1   0.0000
    45 H16     -2.1016   1.7354  -0.2376   H         1 RES1   0.0000
    46 C15      4.9147   2.5454  -1.3983   C.3       1 RES1   0.0000
    47 H17      5.4786   1.9876  -1.9567   H         1 RES1   0.0000
    48 H18      4.8361   2.1212  -0.5296   H         1 RES1   0.0000
    49 C16      5.5487   3.9228  -1.2421   C.3       1 RES1   0.0000
    50 H19      5.8430   4.2403  -2.1098   H         1 RES1   0.0000
    51 H20      6.3289   3.8528  -0.6685   H         1 RES1   0.0000
    52 C17      4.5727   4.9306  -0.6434   C.3       1 RES1   0.0000
    53 H21      5.0409   5.7584  -0.4523   H         1 RES1   0.0000
    54 H22      4.2228   4.5827   0.1918   H         1 RES1   0.0000
    55 C18      3.4145   5.2108  -1.6037   C.3       1 RES1   0.0000
    56 H23      2.7035   5.6711  -1.1294   H         1 RES1   0.0000
    57 H24      3.7202   5.7877  -2.3217   H         1 RES1   0.0000
    58 C19      3.8130  -1.7493  -3.6788   C.3       1 RES1   0.0000
    59 C20      3.3409  -2.6742  -4.8144   C.3       1 RES1   0.0000
    60 H25      2.4324  -2.9650  -4.6362   H         1 RES1   0.0000
    61 H26      3.3400  -2.1835  -5.6511   H         1 RES1   0.0000
    62 C21      4.2546  -3.9005  -4.9422   C.3       1 RES1   0.0000
    63 H27      3.9417  -4.4697  -5.6754   H         1 RES1   0.0000
    64 C22      5.6830  -3.4469  -5.2206   C.3       1 RES1   0.0000
    65 H28      6.2592  -4.2210  -5.3061   H         1 RES1   0.0000
    66 H29      5.7106  -2.9561  -6.0576   H         1 RES1   0.0000
    67 C23      6.1852  -2.5614  -4.0966   C.3       1 RES1   0.0000
    68 H30      7.1034  -2.2774  -4.2855   H         1 RES1   0.0000
    69 C24      6.1478  -3.3435  -2.7793   C.3       1 RES1   0.0000
    70 H31      6.7282  -4.1177  -2.8413   H         1 RES1   0.0000
    71 H32      6.4684  -2.7826  -2.0555   H         1 RES1   0.0000
    72 C25      4.7241  -3.7910  -2.4893   C.3       1 RES1   0.0000
    73 H33      4.7042  -4.2920  -1.6475   H         1 RES1   0.0000
    74 C26      4.2256  -4.6877  -3.6315   C.3       1 RES1   0.0000
    75 H34      4.7929  -5.4707  -3.7058   H         1 RES1   0.0000
    76 H35      3.3210  -4.9844  -3.4453   H         1 RES1   0.0000
    77 C27      3.8189  -2.5584  -2.3726   C.3       1 RES1   0.0000
    78 H36      4.1313  -1.9964  -1.6461   H         1 RES1   0.0000
    79 H37      2.9143  -2.8415  -2.1642   H         1 RES1   0.0000
    80 C28      5.2802  -1.3333  -3.9779   C.3       1 RES1   0.0000
    81 H38      5.3106  -0.8294  -4.8066   H         1 RES1   0.0000
    82 H39      5.6050  -0.7607  -3.2664   H         1 RES1   0.0000
    83 C29     -1.2995   5.9360  -3.1389   C.3       1 RES1   0.0000
    84 C30     -2.7838   5.5955  -3.2949   C.3       1 RES1   0.0000
    85 H40     -3.0454   4.9688  -2.6022   H         1 RES1   0.0000
    86 H41     -2.9291   5.1712  -4.1553   H         1 RES1   0.0000
    87 C31     -3.6511   6.8585  -3.1961   C.3       1 RES1   0.0000
    88 H42     -4.5949   6.6133  -3.2864   H         1 RES1   0.0000
    89 C32     -3.2677   7.8076  -4.3190   C.3       1 RES1   0.0000
    90 H43     -3.8176   8.6045  -4.2769   H         1 RES1   0.0000
    91 H44     -3.4191   7.3795  -5.1758   H         1 RES1   0.0000
    92 C33     -1.8010   8.1851  -4.1850   C.3       1 RES1   0.0000
    93 H45     -1.5543   8.8004  -4.9067   H         1 RES1   0.0000
    94 C34     -0.9339   6.9219  -4.2694   C.3       1 RES1   0.0000
    95 H46      0.0015   7.1656  -4.1968   H         1 RES1   0.0000
    96 H47     -1.0687   6.4929  -5.1286   H         1 RES1   0.0000
    97 C35     -1.5858   8.8670  -2.8398   C.3       1 RES1   0.0000
    98 H48     -2.1318   9.6672  -2.7897   H         1 RES1   0.0000
    99 H49     -0.6560   9.1284  -2.7511   H         1 RES1   0.0000
   100 C36     -1.9634   7.9145  -1.7096   C.3       1 RES1   0.0000
   101 H50     -1.8224   8.3558  -0.8459   H         1 RES1   0.0000
   102 C37     -3.4311   7.5277  -1.8542   C.3       1 RES1   0.0000
   103 H51     -3.6820   6.9212  -1.1408   H         1 RES1   0.0000
   104 H52     -3.9873   8.3193  -1.7878   H         1 RES1   0.0000
   105 C38     -1.0963   6.6508  -1.7909   C.3       1 RES1   0.0000
   106 H53     -1.3315   6.0496  -1.0664   H         1 RES1   0.0000
   107 H54     -0.1620   6.8919  -1.6905   H         1 RES1   0.0000
   108 C39     -2.4977  -6.0697   6.2117   C.3       2 RES2   0.0000
   109 H55     -2.4163  -7.0209   6.3138   H         2 RES2   0.0000
   110 H56     -2.2641  -5.6372   7.0366   H         2 RES2   0.0000
   111 H57     -1.9081  -5.7714   5.5151   H         2 RES2   0.0000
   112 C40     -3.9246  -5.7222   5.8482   C.3       2 RES2   0.0000
   113 H58     -4.5162  -6.0497   6.5428   H         2 RES2   0.0000
   114 H59     -4.1582  -6.1730   5.0227   H         2 RES2   0.0000
   115 C41     -4.1405  -4.2317   5.6761   C.3       2 RES2   0.0000
   116 H60     -3.5536  -3.9092   4.9740   H         2 RES2   0.0000
   117 H61     -3.8901  -3.7834   6.4984   H         2 RES2   0.0000
   118 C42     -5.5688  -3.8550   5.3289   C.3       2 RES2   0.0000
   119 H62     -6.1566  -4.2140   6.0103   H         2 RES2   0.0000
   120 H63     -5.8034  -4.2767   4.4874   H         2 RES2   0.0000
   121 C43     -5.8240  -2.3613   5.2081   C.3       2 RES2   0.0000
   122 H64     -5.6703  -1.9448   6.0705   H         2 RES2   0.0000
   123 H65     -5.1885  -1.9831   4.5804   H         2 RES2   0.0000
   124 C44     -7.2326  -2.0300   4.7439   C.3       2 RES2   0.0000
   125 H66     -7.3321  -1.0765   4.6777   H         2 RES2   0.0000
   126 H67     -7.8666  -2.3743   5.3762   H         2 RES2   0.0000
   127 H68     -7.3886  -2.4277   3.8847   H         2 RES2   0.0000
@<TRIPOS>BOND
     1     1    10    1
     2     2     4    1
     3     3     5    1
     4     4    10    1
     5     5    11    1
     6     6     2    1
     7     7     3    1
     8     8     2    1
     9     9     3    1
    10    10    16    2
    11    11     1    1
    12    12     1    1
    13    13     1    1
    14    14     1    1
    15    15     1    1
    16    16    17    1
    17    17    11    2
    18    18    12    2
    19    19    13    2
    20    20    14    2
    21    21    15    2
    22    22    16    1
    23    23    22    1
    24    24    22    1
    25    25    22    1
    26    26    25    1
    27    27    25    1
    28    28    25    1
    29    29    28    1
    30    30    28    1
    31    31    17    1
    32    32    31    1
    33    33    31    1
    34    34    20    1
    35    35    34    1
    36    36    34    1
    37    37    34    1
    38    38    37    1
    39    39    37    1
    40    40    37    1
    41    41    40    1
    42    42    40    1
    43    43    21    1
    44    44    43    1
    45    45    43    1
    46    46    18    1
    47    47    46    1
    48    48    46    1
    49    49    46    1
    50    50    49    1
    51    51    49    1
    52    52    49    1
    53    53    52    1
    54    54    52    1
    55    55    19    1
    56    56    55    1
    57    57    55    1
    58    58     2    1
    59    59    58    1
    60    60    59    1
    61    61    59    1
    62    62    59    1
    63    63    62    1
    64    64    62    1
    65    65    64    1
    66    66    64    1
    67    67    64    1
    68    68    67    1
    69    69    67    1
    70    70    69    1
    71    71    69    1
    72    72    69    1
    73    73    72    1
    74    74    62    1
    75    75    74    1
    76    76    74    1
    77    77    58    1
    78    78    77    1
    79    79    77    1
    80    80    58    1
    81    81    80    1
    82    82    80    1
    83    83     3    1
    84    84    83    1
    85    85    84    1
    86    86    84    1
    87    87    84    1
    88    88    87    1
    89    89    87    1
    90    90    89    1
    91    91    89    1
    92    92    89    1
    93    93    92    1
    94    94    83    1
    95    95    94    1
    96    96    94    1
    97    97    92    1
    98    98    97    1
    99    99    97    1
   100   100    97    1
   101   101   100    1
   102   102    87    1
   103   103   102    1
   104   104   102    1
   105   105    83    1
   106   106   105    1
   107   107   105    1
   108     6    12    1
   109     7    13    1
   110     8    14    1
   111     9    15    1
   112    18    19    1
   113    20    21    1
   114    28    31    1
   115    40    43    1
   116    52    55    1
   117    67    80    1
   118    72    74    1
   119    72    77    1
   120    92    94    1
   121   100   102    1
   122   100   105    1
   123   108   109    1
   124   110   108    1
   125   111   108    1
   126   112   108    1
   127   113   112    1
   128   114   112    1
   129   115   112    1
   130   116   115    1
   131   117   115    1
   132   118   115    1
   133   119   118    1
   134   120   118    1
   135   121   118    1
   136   122   121    1
   137   123   121    1
   138   124   121    1
   139   125   124    1
   140   126   124    1
   141   127   124    1
@<TRIPOS>SUBSTRUCTURE
     1 RES1        1 GROUP             0 ****  ****    0  
     2 RES2      108 GROUP             0 ****  ****    0  
@<TRIPOS>CRYSIN
   10.9740   13.8230   14.3330   92.9050   90.2830   96.6530     2     1
