@<TRIPOS>MOLECULE
TIBTUX
    85    86     2     0     0
SMALL
NO_CHARGES
****
Generated from the CSD

@<TRIPOS>ATOM
     1 Fe1      7.0627   2.9709  12.1000   Fe        1 RES1   0.0000
     2 O1       5.3407   2.7244  11.0086   O.2       1 RES1   0.0000
     3 C1       5.1451   3.7111  10.2479   C.2       1 RES1   0.0000
     4 N1       5.8636   4.8288  10.3824   N.am      1 RES1   0.0000
     5 H1       5.6990   5.5302   9.9137   H         1 RES1   0.0000
     6 O2       6.9017   4.7994  11.3275   O.3       1 RES1   0.0000
     7 C2       4.1096   3.7036   9.1204   C.3       1 RES1   0.0000
     8 H2       4.0521   4.5984   8.7515   H         1 RES1   0.0000
     9 H3       4.4303   3.1187   8.4173   H         1 RES1   0.0000
    10 C3       2.7701   3.2760   9.4988   C.3       1 RES1   0.0000
    11 H4       2.4029   3.9557  10.0846   H         1 RES1   0.0000
    12 H5       2.8591   2.4656  10.0232   H         1 RES1   0.0000
    13 C4       1.7793   3.0144   8.4442   C.3       1 RES1   0.0000
    14 H6       1.6944   3.8230   7.9160   H         1 RES1   0.0000
    15 H7       2.1441   2.3310   7.8622   H         1 RES1   0.0000
    16 C5       0.4400   2.5973   8.8207   C.3       1 RES1   0.0000
    17 H8       0.0596   3.3045   9.3681   H         1 RES1   0.0000
    18 H9       0.5288   1.8181   9.3912   H         1 RES1   0.0000
    19 C6      -0.5394   2.2750   7.7834   C.3       1 RES1   0.0000
    20 H10     -0.5907   3.0286   7.1764   H         1 RES1   0.0000
    21 H11     -0.1950   1.5214   7.2744   H         1 RES1   0.0000
    22 C7      -1.8754   1.9527   8.1945   C.3       1 RES1   0.0000
    23 H12     -1.8133   1.2854   8.8995   H         1 RES1   0.0000
    24 H13     -2.2662   2.7452   8.5864   H         1 RES1   0.0000
    25 C8      -2.7928   1.4503   7.2091   C.3       1 RES1   0.0000
    26 H14     -3.6422   1.2788   7.6221   H         1 RES1   0.0000
    27 H15     -2.9024   2.1072   6.5156   H         1 RES1   0.0000
    28 H16     -2.4483   0.6408   6.8326   H         1 RES1   0.0000
    29 O3       8.7066   3.7206  13.0659   O.2       1 RES1   0.0000
    30 C9       8.3417   4.3264  14.1800   C.2       1 RES1   0.0000
    31 N2       7.0987   4.1557  14.5488   N.am      1 RES1   0.0000
    32 H17      6.7947   4.5785  15.2345   H         1 RES1   0.0000
    33 O4       6.2772   3.3083  13.8553   O.3       1 RES1   0.0000
    34 C10      9.2936   5.2022  14.9483   C.3       1 RES1   0.0000
    35 H18      8.8022   5.9767  15.2653   H         1 RES1   0.0000
    36 H19      9.5916   4.7103  15.7282   H         1 RES1   0.0000
    37 C11     10.4721   5.6762  14.2337   C.3       1 RES1   0.0000
    38 H20     10.1678   6.1198  13.4270   H         1 RES1   0.0000
    39 H21     10.9814   4.8989  13.9591   H         1 RES1   0.0000
    40 C12     11.3873   6.5881  14.9233   C.3       1 RES1   0.0000
    41 H22     11.7592   6.1066  15.6802   H         1 RES1   0.0000
    42 H23     12.1213   6.7739  14.3183   H         1 RES1   0.0000
    43 C13     10.9021   7.8394  15.4112   C.3       1 RES1   0.0000
    44 H24     10.0383   7.6934  15.8262   H         1 RES1   0.0000
    45 H25     11.5076   8.1531  16.1028   H         1 RES1   0.0000
    46 C14     10.7645   8.8726  14.4508   C.3       1 RES1   0.0000
    47 H26     10.0024   8.6603  13.8822   H         1 RES1   0.0000
    48 H27     11.5510   8.8840  13.8918   H         1 RES1   0.0000
    49 C15     10.5716  10.1997  15.0021   C.3       1 RES1   0.0000
    50 H28     11.3313  10.3571  15.5745   H         1 RES1   0.0000
    51 H29     10.6571  10.8073  14.2530   H         1 RES1   0.0000
    52 C16      9.4434  10.6642  15.7320   C.3       1 RES1   0.0000
    53 H30      9.5769  11.5809  15.9760   H         1 RES1   0.0000
    54 H31      8.6544  10.5874  15.1884   H         1 RES1   0.0000
    55 H32      9.3368  10.1324  16.5254   H         1 RES1   0.0000
    56 O5       8.3223   2.4115  10.5380   O.2       1 RES1   0.0000
    57 C17      8.5387   1.1442  10.5034   C.2       1 RES1   0.0000
    58 N3       7.9765   0.3773  11.4100   N.am      1 RES1   0.0000
    59 H33      8.0962  -0.4749  11.4197   H         1 RES1   0.0000
    60 O6       7.1803   1.0152  12.3513   O.3       1 RES1   0.0000
    61 C18      9.4936   0.5185   9.5141   C.3       1 RES1   0.0000
    62 H34      9.5117  -0.4408   9.6544   H         1 RES1   0.0000
    63 H35      9.1670   0.6797   8.6152   H         1 RES1   0.0000
    64 C19     10.8538   1.0427   9.6255   C.3       1 RES1   0.0000
    65 H36     11.4228   0.4304   9.1300   H         1 RES1   0.0000
    66 H37     10.8653   1.8816   9.1434   H         1 RES1   0.0000
    67 C20     11.5138   1.2797  10.8818   C.3       1 RES1   0.0000
    68 H38     11.4680   0.4436  11.3697   H         1 RES1   0.0000
    69 H39     10.9472   1.9053  11.3620   H         1 RES1   0.0000
    70 C21     12.8681   1.7631  11.0528   C.3       1 RES1   0.0000
    71 H40     13.4457   1.0569  10.7243   H         1 RES1   0.0000
    72 H41     12.9665   2.5025  10.4323   H         1 RES1   0.0000
    73 C22     13.4533   2.2087  12.2821   C.3       1 RES1   0.0000
    74 H42     13.2842   1.5224  12.9487   H         1 RES1   0.0000
    75 H43     12.9743   3.0011  12.5645   H         1 RES1   0.0000
    76 C23     14.8671   2.5120  12.3321   C.3       1 RES1   0.0000
    77 H44     15.3674   1.6864  12.3916   H         1 RES1   0.0000
    78 H45     15.1202   2.9443  11.4907   H         1 RES1   0.0000
    79 C24     15.2360   3.3557  13.4078   C.3       1 RES1   0.0000
    80 H46     16.1858   3.5225  13.3694   H         1 RES1   0.0000
    81 H47     14.7698   4.1936  13.3329   H         1 RES1   0.0000
    82 H48     15.0170   2.9348  14.2337   H         1 RES1   0.0000
    83 O7       7.7422   7.2469  12.2879   O.3       2 RES2   0.0000
    84 H49      7.4221   6.5985  11.9018   H         2 RES2   0.0000
    85 H50      7.3630   7.2602  13.0159   H         2 RES2   0.0000
@<TRIPOS>BOND
     1     1     2    1
     2     2     3    2
     3     3     4   am
     4     4     5    1
     5     6     1    1
     6     7     3    1
     7     8     7    1
     8     9     7    1
     9    10     7    1
    10    11    10    1
    11    12    10    1
    12    13    10    1
    13    14    13    1
    14    15    13    1
    15    16    13    1
    16    17    16    1
    17    18    16    1
    18    19    16    1
    19    20    19    1
    20    21    19    1
    21    22    19    1
    22    23    22    1
    23    24    22    1
    24    25    22    1
    25    26    25    1
    26    27    25    1
    27    28    25    1
    28    29     1    1
    29    30    29    2
    30    31    30   am
    31    32    31    1
    32    33     1    1
    33    34    30    1
    34    35    34    1
    35    36    34    1
    36    37    34    1
    37    38    37    1
    38    39    37    1
    39    40    37    1
    40    41    40    1
    41    42    40    1
    42    43    40    1
    43    44    43    1
    44    45    43    1
    45    46    43    1
    46    47    46    1
    47    48    46    1
    48    49    46    1
    49    50    49    1
    50    51    49    1
    51    52    49    1
    52    53    52    1
    53    54    52    1
    54    55    52    1
    55    56     1    1
    56    57    56    2
    57    58    57   am
    58    59    58    1
    59    60     1    1
    60    61    57    1
    61    62    61    1
    62    63    61    1
    63    64    61    1
    64    65    64    1
    65    66    64    1
    66    67    64    1
    67    68    67    1
    68    69    67    1
    69    70    67    1
    70    71    70    1
    71    72    70    1
    72    73    70    1
    73    74    73    1
    74    75    73    1
    75    76    73    1
    76    77    76    1
    77    78    76    1
    78    79    76    1
    79    80    79    1
    80    81    79    1
    81    82    79    1
    82     4     6    1
    83    31    33    1
    84    58    60    1
    85    83    84    1
    86    85    83    1
@<TRIPOS>SUBSTRUCTURE
     1 RES1        1 GROUP             0 ****  ****    0  
     2 RES2       83 GROUP             0 ****  ****    0  
@<TRIPOS>CRYSIN
   17.5750    9.4793   19.4493   90.0000   99.0190   90.0000    14     1
