@<TRIPOS>MOLECULE
TIBWEJ
    76    82     1     0     0
SMALL
NO_CHARGES
****
Generated from the CSD

@<TRIPOS>ATOM
     1 Fe1      3.9966   9.2239  12.2313   Fe        1 RES1   0.0000
     2 P1       3.4889   7.4927  10.9888   P.3       1 RES1   0.0000
     3 P2       6.0384   8.7236  13.0148   P.3       1 RES1   0.0000
     4 P3       4.5835  10.8068  10.7995   P.3       1 RES1   0.0000
     5 N1       2.5194   9.3557  13.4362   N.2       1 RES1   0.0000
     6 C1       2.3748   6.5171  12.0762   C.ar      1 RES1   0.0000
     7 C2       2.4363   6.9160  13.4208   C.ar      1 RES1   0.0000
     8 C3       1.7619   6.1508  14.3828   C.ar      1 RES1   0.0000
     9 H1       1.8229   6.3864  15.3013   H         1 RES1   0.0000
    10 C4       1.0100   5.0557  14.0047   C.ar      1 RES1   0.0000
    11 H2       0.5739   4.5299  14.6662   H         1 RES1   0.0000
    12 C5       0.8892   4.7180  12.6634   C.ar      1 RES1   0.0000
    13 H3       0.3445   3.9849  12.4032   H         1 RES1   0.0000
    14 C6       1.5647   5.4549  11.7050   C.ar      1 RES1   0.0000
    15 H4       1.4734   5.2294  10.7863   H         1 RES1   0.0000
    16 C7       3.1627   8.1643  13.7658   C.3       1 RES1   0.0000
    17 H5       3.6908   8.1568  14.6473   H         1 RES1   0.0000
    18 C8       3.2655  10.4680  13.7898   C.3       1 RES1   0.0000
    19 H6       3.9082  10.3889  14.4890   H         1 RES1   0.0000
    20 C9       2.6339  11.7905  13.7310   C.ar      1 RES1   0.0000
    21 C10      1.3076  11.9717  13.3089   C.ar      1 RES1   0.0000
    22 H7       0.8292  11.2386  12.9395   H         1 RES1   0.0000
    23 C11      0.6851  13.2053  13.4235   C.ar      1 RES1   0.0000
    24 H8      -0.2201  13.2988  13.1512   H         1 RES1   0.0000
    25 C12      1.3626  14.3001  13.9272   C.ar      1 RES1   0.0000
    26 H9       0.9257  15.1400  14.0122   H         1 RES1   0.0000
    27 C13      2.6846  14.1542  14.3064   C.ar      1 RES1   0.0000
    28 H10      3.1701  14.9051  14.6285   H         1 RES1   0.0000
    29 C14      3.3048  12.9170  14.2178   C.ar      1 RES1   0.0000
    30 H11      4.2087  12.8321  14.4952   H         1 RES1   0.0000
    31 C15      2.4929   7.5727   9.4355   C.ar      1 RES1   0.0000
    32 C16      2.6394   6.7061   8.3526   C.ar      1 RES1   0.0000
    33 H12      3.3079   6.0318   8.3775   H         1 RES1   0.0000
    34 C17      1.8186   6.8189   7.2391   C.ar      1 RES1   0.0000
    35 H13      1.9255   6.2162   6.5129   H         1 RES1   0.0000
    36 C18      0.8473   7.8002   7.1761   C.ar      1 RES1   0.0000
    37 H14      0.2970   7.8824   6.4063   H         1 RES1   0.0000
    38 C19      0.6849   8.6621   8.2489   C.ar      1 RES1   0.0000
    39 H15      0.0068   9.3277   8.2207   H         1 RES1   0.0000
    40 C20      1.5035   8.5606   9.3605   C.ar      1 RES1   0.0000
    41 H16      1.3931   9.1683  10.0822   H         1 RES1   0.0000
    42 C21      4.7600   6.2482  10.4986   C.ar      1 RES1   0.0000
    43 C22      5.7585   6.6155   9.5885   C.ar      1 RES1   0.0000
    44 H17      5.7417   7.4815   9.1977   H         1 RES1   0.0000
    45 C23      6.7716   5.7307   9.2492   C.ar      1 RES1   0.0000
    46 H18      7.4358   5.9913   8.6222   H         1 RES1   0.0000
    47 C24      6.8175   4.4708   9.8195   C.ar      1 RES1   0.0000
    48 H19      7.5153   3.8681   9.5913   H         1 RES1   0.0000
    49 C25      5.8457   4.0976  10.7205   C.ar      1 RES1   0.0000
    50 H20      5.8768   3.2365  11.1204   H         1 RES1   0.0000
    51 C26      4.8183   4.9758  11.0465   C.ar      1 RES1   0.0000
    52 H21      4.1436   4.7002  11.6551   H         1 RES1   0.0000
    53 C27      6.6460   9.7548  14.4061   C.3       1 RES1   0.0000
    54 H22      6.6192  10.7003  14.1486   H         1 RES1   0.0000
    55 H23      7.5676   9.5008  14.6223   H         1 RES1   0.0000
    56 H24      6.0757   9.6142  15.1900   H         1 RES1   0.0000
    57 C28      7.5068   8.8059  11.9221   C.3       1 RES1   0.0000
    58 H25      7.3967   8.1756  11.1784   H         1 RES1   0.0000
    59 H26      8.3089   8.5693  12.4346   H         1 RES1   0.0000
    60 H27      7.6000   9.7154  11.5689   H         1 RES1   0.0000
    61 C29      6.3057   7.0563  13.7205   C.3       1 RES1   0.0000
    62 H28      5.6035   6.8637  14.3760   H         1 RES1   0.0000
    63 H29      7.1814   7.0237  14.1596   H         1 RES1   0.0000
    64 H30      6.2749   6.3889  13.0038   H         1 RES1   0.0000
    65 C30      5.5654  10.3999   9.3086   C.3       1 RES1   0.0000
    66 H31      6.4198  10.0020   9.5788   H         1 RES1   0.0000
    67 H32      5.7331  11.2167   8.7947   H         1 RES1   0.0000
    68 H33      5.0690   9.7610   8.7555   H         1 RES1   0.0000
    69 C31      3.1892  11.7046  10.0253   C.3       1 RES1   0.0000
    70 H34      2.6861  11.0914   9.4486   H         1 RES1   0.0000
    71 H35      3.5363  12.4474   9.4878   H         1 RES1   0.0000
    72 H36      2.5978  12.0545  10.7236   H         1 RES1   0.0000
    73 C32      5.5625  12.2041  11.4571   C.3       1 RES1   0.0000
    74 H37      5.0778  12.6217  12.1993   H         1 RES1   0.0000
    75 H38      5.7048  12.8653  10.7487   H         1 RES1   0.0000
    76 H39      6.4283  11.8745  11.7759   H         1 RES1   0.0000
@<TRIPOS>BOND
     1     1     2    1
     2     2     6    1
     3     3     1    1
     4     4     1    1
     5     5     1   un
     6     6     7   ar
     7     7     8   ar
     8     8     9    1
     9    10     8   ar
    10    11    10    1
    11    12    10   ar
    12    13    12    1
    13    14     6   ar
    14    15    14    1
    15    16     1   un
    16    17    16    1
    17    18     1   un
    18    19    18    1
    19    20    18    1
    20    21    20   ar
    21    22    21    1
    22    23    21   ar
    23    24    23    1
    24    25    23   ar
    25    26    25    1
    26    27    25   ar
    27    28    27    1
    28    29    20   ar
    29    30    29    1
    30    31     2    1
    31    32    31   ar
    32    33    32    1
    33    34    32   ar
    34    35    34    1
    35    36    34   ar
    36    37    36    1
    37    38    36   ar
    38    39    38    1
    39    40    31   ar
    40    41    40    1
    41    42     2    1
    42    43    42   ar
    43    44    43    1
    44    45    43   ar
    45    46    45    1
    46    47    45   ar
    47    48    47    1
    48    49    47   ar
    49    50    49    1
    50    51    42   ar
    51    52    51    1
    52    53     3    1
    53    54    53    1
    54    55    53    1
    55    56    53    1
    56    57     3    1
    57    58    57    1
    58    59    57    1
    59    60    57    1
    60    61     3    1
    61    62    61    1
    62    63    61    1
    63    64    61    1
    64    65     4    1
    65    66    65    1
    66    67    65    1
    67    68    65    1
    68    69     4    1
    69    70    69    1
    70    71    69    1
    71    72    69    1
    72    73     4    1
    73    74    73    1
    74    75    73    1
    75    76    73    1
    76     5    16   un
    77     5    18   un
    78     7    16    1
    79    12    14   ar
    80    27    29   ar
    81    38    40   ar
    82    49    51   ar
@<TRIPOS>SUBSTRUCTURE
     1 RES1        1 GROUP             0 ****  ****    0  
@<TRIPOS>CRYSIN
    8.2974   11.6453   15.7891   93.9340   94.0850  105.9070     2     1
