@<TRIPOS>MOLECULE
TIBWIN
    80    86     1     0     0
SMALL
NO_CHARGES
****
Generated from the CSD

@<TRIPOS>ATOM
     1 Fe1      6.7942  -0.0819   3.9675   Fe        1 RES1   0.0000
     2 P1       7.2535   0.3893   6.0528   P.3       1 RES1   0.0000
     3 P2       4.8015   0.8546   3.6295   P.3       1 RES1   0.0000
     4 P3       6.1518  -2.2100   4.0578   P.3       1 RES1   0.0000
     5 O1       9.5205  -4.5282  -0.8775   O.3       1 RES1   0.0000
     6 N1       8.3557   0.5149   3.0364   N.2       1 RES1   0.0000
     7 C1      10.8598  -4.9798  -0.7457   C.3       1 RES1   0.0000
     8 H1      11.0074  -5.7426  -1.3422   H         1 RES1   0.0000
     9 H2      11.0223  -5.2539   0.1810   H         1 RES1   0.0000
    10 H3      11.4736  -4.2544  -0.9843   H         1 RES1   0.0000
    11 C2       9.1510  -3.4335  -0.1212   C.ar      1 RES1   0.0000
    12 C3       7.8753  -2.9430  -0.3791   C.ar      1 RES1   0.0000
    13 H4       7.3276  -3.3655  -1.0290   H         1 RES1   0.0000
    14 C4       7.4042  -1.8461   0.3063   C.ar      1 RES1   0.0000
    15 H5       6.5399  -1.5085   0.1017   H         1 RES1   0.0000
    16 C5       8.1683  -1.2147   1.2974   C.ar      1 RES1   0.0000
    17 C6       9.4456  -1.7182   1.5354   C.ar      1 RES1   0.0000
    18 H6       9.9922  -1.3056   2.1922   H         1 RES1   0.0000
    19 C7       9.9377  -2.8158   0.8279   C.ar      1 RES1   0.0000
    20 H7      10.8150  -3.1368   1.0005   H         1 RES1   0.0000
    21 C8       7.6153  -0.0588   2.0165   C.3       1 RES1   0.0000
    22 H8       7.0265   0.5053   1.4805   H         1 RES1   0.0000
    23 C9       7.7491   1.6654   3.5275   C.3       1 RES1   0.0000
    24 H9       7.3100   2.2203   2.8735   H         1 RES1   0.0000
    25 C10      8.4580   2.3549   4.6453   C.ar      1 RES1   0.0000
    26 C11      8.4109   1.8010   5.9198   C.ar      1 RES1   0.0000
    27 C12      9.1784   2.3413   6.9557   C.ar      1 RES1   0.0000
    28 H10      9.1892   1.9234   7.8090   H         1 RES1   0.0000
    29 C13      9.9235   3.4887   6.7354   C.ar      1 RES1   0.0000
    30 H11     10.4423   3.8634   7.4368   H         1 RES1   0.0000
    31 C14      9.9085   4.0897   5.4836   C.ar      1 RES1   0.0000
    32 H12     10.3944   4.8943   5.3422   H         1 RES1   0.0000
    33 C15      9.1925   3.5285   4.4403   C.ar      1 RES1   0.0000
    34 H13      9.1995   3.9409   3.5852   H         1 RES1   0.0000
    35 C16      5.9886   1.0082   7.2428   C.ar      1 RES1   0.0000
    36 C17      5.0148   0.1293   7.7152   C.ar      1 RES1   0.0000
    37 H14      5.0569  -0.7874   7.4673   H         1 RES1   0.0000
    38 C18      3.9883   0.5604   8.5352   C.ar      1 RES1   0.0000
    39 H15      3.3340  -0.0553   8.8441   H         1 RES1   0.0000
    40 C19      3.9164   1.8937   8.9057   C.ar      1 RES1   0.0000
    41 H16      3.2195   2.1926   9.4765   H         1 RES1   0.0000
    42 C20      4.8589   2.7818   8.4418   C.ar      1 RES1   0.0000
    43 H17      4.8042   3.6974   8.6875   H         1 RES1   0.0000
    44 C21      5.8932   2.3479   7.6136   C.ar      1 RES1   0.0000
    45 H18      6.5376   2.9709   7.2985   H         1 RES1   0.0000
    46 C22      8.2405  -0.7563   7.1218   C.ar      1 RES1   0.0000
    47 C23      9.2457  -1.4683   6.4650   C.ar      1 RES1   0.0000
    48 H19      9.3657  -1.3610   5.5293   H         1 RES1   0.0000
    49 C24     10.0701  -2.3324   7.1704   C.ar      1 RES1   0.0000
    50 H20     10.7511  -2.8123   6.7129   H         1 RES1   0.0000
    51 C25      9.9088  -2.5008   8.5327   C.ar      1 RES1   0.0000
    52 H21     10.4721  -3.0963   9.0108   H         1 RES1   0.0000
    53 C26      8.9229  -1.7963   9.1912   C.ar      1 RES1   0.0000
    54 H22      8.8078  -1.9068  10.1273   H         1 RES1   0.0000
    55 C27      8.0924  -0.9230   8.4874   C.ar      1 RES1   0.0000
    56 H23      7.4189  -0.4389   8.9498   H         1 RES1   0.0000
    57 C28      4.6067   2.6260   4.0513   C.3       1 RES1   0.0000
    58 H24      4.7105   2.7459   5.0189   H         1 RES1   0.0000
    59 H25      3.7155   2.9303   3.7784   H         1 RES1   0.0000
    60 H26      5.2889   3.1497   3.5832   H         1 RES1   0.0000
    61 C29      3.3220   0.1934   4.4794   C.3       1 RES1   0.0000
    62 H27      3.2415  -0.7653   4.2970   H         1 RES1   0.0000
    63 H28      2.5228   0.6565   4.1506   H         1 RES1   0.0000
    64 H29      3.4082   0.3375   5.4459   H         1 RES1   0.0000
    65 C30      4.1777   0.8929   1.9010   C.3       1 RES1   0.0000
    66 H30      4.7842   1.4273   1.3462   H         1 RES1   0.0000
    67 H31      3.2836   1.2927   1.8851   H         1 RES1   0.0000
    68 H32      4.1338  -0.0203   1.5496   H         1 RES1   0.0000
    69 C31      4.9766  -2.8396   2.7950   C.3       1 RES1   0.0000
    70 H33      4.1342  -2.3439   2.8572   H         1 RES1   0.0000
    71 H34      4.8085  -3.7915   2.9528   H         1 RES1   0.0000
    72 H35      5.3614  -2.7182   1.9014   H         1 RES1   0.0000
    73 C32      7.5041  -3.4264   3.8986   C.3       1 RES1   0.0000
    74 H36      7.9713  -3.2862   3.0483   H         1 RES1   0.0000
    75 H37      7.1327  -4.3337   3.9228   H         1 RES1   0.0000
    76 H38      8.1357  -3.3120   4.6406   H         1 RES1   0.0000
    77 C33      5.3760  -2.8646   5.5757   C.3       1 RES1   0.0000
    78 H39      5.9851  -2.7422   6.3326   H         1 RES1   0.0000
    79 H40      5.1862  -3.8192   5.4602   H         1 RES1   0.0000
    80 H41      4.5394  -2.3844   5.7490   H         1 RES1   0.0000
@<TRIPOS>BOND
     1     1     2    1
     2     2    26    1
     3     3     1    1
     4     4     1    1
     5     5     7    1
     6     6     1   un
     7     7     8    1
     8     9     7    1
     9    10     7    1
    10    11     5    1
    11    12    11   ar
    12    13    12    1
    13    14    12   ar
    14    15    14    1
    15    16    14   ar
    16    17    16   ar
    17    18    17    1
    18    19    11   ar
    19    20    19    1
    20    21     1   un
    21    22    21    1
    22    23     1   un
    23    24    23    1
    24    25    23    1
    25    26    25   ar
    26    27    26   ar
    27    28    27    1
    28    29    27   ar
    29    30    29    1
    30    31    29   ar
    31    32    31    1
    32    33    25   ar
    33    34    33    1
    34    35     2    1
    35    36    35   ar
    36    37    36    1
    37    38    36   ar
    38    39    38    1
    39    40    38   ar
    40    41    40    1
    41    42    40   ar
    42    43    42    1
    43    44    35   ar
    44    45    44    1
    45    46     2    1
    46    47    46   ar
    47    48    47    1
    48    49    47   ar
    49    50    49    1
    50    51    49   ar
    51    52    51    1
    52    53    51   ar
    53    54    53    1
    54    55    46   ar
    55    56    55    1
    56    57     3    1
    57    58    57    1
    58    59    57    1
    59    60    57    1
    60    61     3    1
    61    62    61    1
    62    63    61    1
    63    64    61    1
    64    65     3    1
    65    66    65    1
    66    67    65    1
    67    68    65    1
    68    69     4    1
    69    70    69    1
    70    71    69    1
    71    72    69    1
    72    73     4    1
    73    74    73    1
    74    75    73    1
    75    76    73    1
    76    77     4    1
    77    78    77    1
    78    79    77    1
    79    80    77    1
    80     6    21   un
    81     6    23   un
    82    16    21    1
    83    17    19   ar
    84    31    33   ar
    85    42    44   ar
    86    53    55   ar
@<TRIPOS>SUBSTRUCTURE
     1 RES1        1 GROUP             0 ****  ****    0  
@<TRIPOS>CRYSIN
    8.4012   18.4411   20.3503   90.0000   92.1570   90.0000   231     1
