@<TRIPOS>MOLECULE
TIFSUX
    80    86     2     0     0
SMALL
USER_CHARGES
****
Generated from the CSD

@<TRIPOS>ATOM
     1 Fe1      2.6289   6.4344   4.7237   Fe        1 RES1   1.0000
     2 S1       0.5279   7.1048   5.0222   S.3       1 RES1   0.0000
     3 S2      -1.1235   8.7615   3.2699   S.3       1 RES1   0.0000
     4 S3       5.0154   4.0250   5.6070   S.3       1 RES1   0.0000
     5 S4       3.6144   8.2401   5.5616   S.3       1 RES1   0.0000
     6 S5       3.9246   8.9502   8.3747   S.3       1 RES1   0.0000
     7 S6       2.1080   4.5097   1.8337   S.3       1 RES1   0.0000
     8 N1       4.3860   5.8803   3.8512   N.ar      1 RES1   0.0000
     9 N2       2.4920   7.3771   3.0558   N.2       1 RES1   0.0000
    10 N3       6.5055   4.8176   3.5604   N.ar      1 RES1   0.0000
    11 N4       1.3820   8.1225   2.6695   N.2       1 RES1   0.0000
    12 N5       1.9113   4.5449   4.4606   N.ar      1 RES1   0.0000
    13 N6       2.6039   5.8231   6.5396   N.2       1 RES1   0.0000
    14 N7       0.7777   2.7705   3.3385   N.ar      1 RES1   0.0000
    15 N8       2.9689   6.6072   7.6219   N.2       1 RES1   0.0000
    16 C1       1.4540   3.3093   0.6671   C.3       1 RES1   0.0000
    17 H1       1.9004   3.4204  -0.1987   H         1 RES1   0.0000
    18 H2       0.4908   3.4522   0.5583   H         1 RES1   0.0000
    19 H3       1.6157   2.4046   1.0054   H         1 RES1   0.0000
    20 C2       1.5235   3.8720   3.3489   C.ar      1 RES1   0.0000
    21 C3       0.4626   2.2157   4.5178   C.ar      1 RES1   0.0000
    22 C4      -0.3806   0.9841   4.4703   C.3       1 RES1   0.0000
    23 H4      -1.1689   1.1491   3.9129   H         1 RES1   0.0000
    24 H5      -0.6660   0.7492   5.3773   H         1 RES1   0.0000
    25 H6       0.1402   0.2460   4.0903   H         1 RES1   0.0000
    26 C5       0.9333   2.7474   5.7068   C.ar      1 RES1   0.0000
    27 H7       0.7887   2.3046   6.5341   H         1 RES1   0.0000
    28 C6       1.6194   3.9417   5.6463   C.ar      1 RES1   0.0000
    29 C7       2.0620   4.6791   6.8031   C.2       1 RES1   0.0000
    30 H8       1.9640   4.3505   7.6886   H         1 RES1   0.0000
    31 C8       3.4293   7.7535   7.2266   C.2       1 RES1   0.0000
    32 C9       3.4591   8.1947   9.9585   C.3       1 RES1   0.0000
    33 H9       3.6050   7.2170   9.9029   H         1 RES1   0.0000
    34 H10      4.0518   8.5471  10.6694   H         1 RES1   0.0000
    35 C10      2.0288   8.4518  10.3432   C.ar      1 RES1   0.0000
    36 C11      1.0600   7.4710  10.1913   C.ar      1 RES1   0.0000
    37 H11      1.2946   6.6250   9.8248   H         1 RES1   0.0000
    38 C12     -0.2526   7.7201  10.5719   C.ar      1 RES1   0.0000
    39 H12     -0.9129   7.0472  10.4541   H         1 RES1   0.0000
    40 C13     -0.6032   8.9359  11.1205   C.ar      1 RES1   0.0000
    41 H13     -1.5003   9.1010  11.3862   H         1 RES1   0.0000
    42 C14      0.3543   9.9057  11.2805   C.ar      1 RES1   0.0000
    43 H14      0.1182  10.7406  11.6654   H         1 RES1   0.0000
    44 C15      1.6669   9.6772  10.8842   C.ar      1 RES1   0.0000
    45 H15      2.3179  10.3612  10.9840   H         1 RES1   0.0000
    46 C16      6.4889   2.9950   5.6986   C.3       1 RES1   0.0000
    47 H16      6.4240   2.3998   6.4750   H         1 RES1   0.0000
    48 H17      7.2807   3.5664   5.7913   H         1 RES1   0.0000
    49 H18      6.5656   2.4602   4.8805   H         1 RES1   0.0000
    50 C17      5.3494   5.0006   4.2032   C.ar      1 RES1   0.0000
    51 C18      6.7521   5.5615   2.4812   C.ar      1 RES1   0.0000
    52 C19      8.0646   5.3616   1.7944   C.3       1 RES1   0.0000
    53 H19      8.4023   4.4616   1.9896   H         1 RES1   0.0000
    54 H20      8.7073   6.0282   2.1150   H         1 RES1   0.0000
    55 H21      7.9459   5.4616   0.8280   H         1 RES1   0.0000
    56 C20      5.8166   6.4853   2.0170   C.ar      1 RES1   0.0000
    57 H22      5.9847   7.0154   1.2467   H         1 RES1   0.0000
    58 C21      4.6406   6.6010   2.7192   C.ar      1 RES1   0.0000
    59 C22      3.5408   7.4492   2.2940   C.2       1 RES1   0.0000
    60 H23      3.5847   8.0074   1.5259   H         1 RES1   0.0000
    61 C23      0.4243   8.0163   3.5436   C.2       1 RES1   0.0000
    62 C24     -0.7505   9.9311   1.9195   C.3       1 RES1   0.0000
    63 H24     -0.1239   9.5042   1.2822   H         1 RES1   0.0000
    64 H25     -1.5850  10.1422   1.4313   H         1 RES1   0.0000
    65 C25     -0.1469  11.1961   2.4324   C.ar      1 RES1   0.0000
    66 C26     -0.9378  12.1532   3.0771   C.ar      1 RES1   0.0000
    67 H26     -1.8721  12.0103   3.1724   H         1 RES1   0.0000
    68 C27     -0.3655  13.3039   3.5751   C.ar      1 RES1   0.0000
    69 H27     -0.9056  13.9451   4.0217   H         1 RES1   0.0000
    70 C28      0.9966  13.5325   3.4294   C.ar      1 RES1   0.0000
    71 H28      1.3833  14.3292   3.7733   H         1 RES1   0.0000
    72 C29      1.7857  12.6071   2.7887   C.ar      1 RES1   0.0000
    73 H29      2.7167  12.7643   2.6851   H         1 RES1   0.0000
    74 C30      1.2165  11.4437   2.2950   C.ar      1 RES1   0.0000
    75 H30      1.7647  10.8041   1.8571   H         1 RES1   0.0000
    76 Cl1      2.3158   2.6476  10.4078   Cl        2 RES2   0.0000
    77 O1       1.5181   1.8042  11.2504   O.3       2 RES2  -1.0000
    78 O2       3.6466   2.6324  10.9010   O.2       2 RES2   0.0000
    79 O3       1.7918   3.9726  10.3850   O.2       2 RES2   0.0000
    80 O4       2.2636   2.1441   9.0723   O.2       2 RES2   0.0000
@<TRIPOS>BOND
     1     1     2    1
     2     2    61    1
     3     3    61    1
     4     4    46    1
     5     5     1    1
     6     6    31    1
     7     7    16    1
     8     8     1    1
     9     9     1    1
    10    10    50   ar
    11    11     9    1
    12    12     1    1
    13    13     1    1
    14    14    20   ar
    15    15    13    1
    16    16    17    1
    17    18    16    1
    18    19    16    1
    19    20     7    1
    20    21    14   ar
    21    22    21    1
    22    23    22    1
    23    24    22    1
    24    25    22    1
    25    26    21   ar
    26    27    26    1
    27    28    12   ar
    28    29    13    2
    29    30    29    1
    30    31     5    1
    31    32     6    1
    32    33    32    1
    33    34    32    1
    34    35    32    1
    35    36    35   ar
    36    37    36    1
    37    38    36   ar
    38    39    38    1
    39    40    38   ar
    40    41    40    1
    41    42    40   ar
    42    43    42    1
    43    44    35   ar
    44    45    44    1
    45    46    47    1
    46    48    46    1
    47    49    46    1
    48    50     4    1
    49    51    10   ar
    50    52    51    1
    51    53    52    1
    52    54    52    1
    53    55    52    1
    54    56    51   ar
    55    57    56    1
    56    58     8   ar
    57    59     9    2
    58    60    59    1
    59    61    11    2
    60    62     3    1
    61    63    62    1
    62    64    62    1
    63    65    62    1
    64    66    65   ar
    65    67    66    1
    66    68    66   ar
    67    69    68    1
    68    70    68   ar
    69    71    70    1
    70    72    70   ar
    71    73    72    1
    72    74    65   ar
    73    75    74    1
    74     8    50   ar
    75    12    20   ar
    76    15    31    2
    77    26    28   ar
    78    28    29    1
    79    42    44   ar
    80    56    58   ar
    81    58    59    1
    82    72    74   ar
    83    76    77    1
    84    78    76    2
    85    79    76    2
    86    80    76    2
@<TRIPOS>SUBSTRUCTURE
     1 RES1        1 GROUP             0 ****  ****    0  
     2 RES2       76 GROUP             0 ****  ****    0  
@<TRIPOS>CRYSIN
    9.7490   15.8720   24.0710   90.0000  100.6390   90.0000    14     1
