@<TRIPOS>MOLECULE
TIGBOE01
   152   163     3     0     0
SMALL
USER_CHARGES
****
Generated from the CSD

@<TRIPOS>ATOM
     1 B1      12.6399  10.3788   6.9810   B         1 RES1  -1.0000
     2 C1      13.0855  11.5679   8.0485   C.ar      1 RES1   0.0000
     3 C2      12.5359  11.7322   9.3331   C.ar      1 RES1   0.0000
     4 H1      11.8463  11.1406   9.6098   H         1 RES1   0.0000
     5 C3      12.9567  12.7257  10.2218   C.ar      1 RES1   0.0000
     6 H2      12.5406  12.8106  11.0716   H         1 RES1   0.0000
     7 C4      13.9786  13.5830   9.8625   C.ar      1 RES1   0.0000
     8 H3      14.2778  14.2523  10.4663   H         1 RES1   0.0000
     9 C5      14.5603  13.4571   8.6142   C.ar      1 RES1   0.0000
    10 H4      15.2661  14.0386   8.3589   H         1 RES1   0.0000
    11 C6      14.1119  12.4780   7.7306   C.ar      1 RES1   0.0000
    12 H5      14.5170  12.4212   6.8734   H         1 RES1   0.0000
    13 C7      13.7482   9.1529   7.0332   C.ar      1 RES1   0.0000
    14 C8      15.1209   9.4030   7.1671   C.ar      1 RES1   0.0000
    15 H6      15.4055  10.2956   7.3276   H         1 RES1   0.0000
    16 C9      16.0912   8.4044   7.0758   C.ar      1 RES1   0.0000
    17 H7      17.0105   8.6263   7.1570   H         1 RES1   0.0000
    18 C10     15.7126   7.0880   6.8666   C.ar      1 RES1   0.0000
    19 H8      16.3655   6.4003   6.8134   H         1 RES1   0.0000
    20 C11     14.3671   6.7956   6.7369   C.ar      1 RES1   0.0000
    21 H9      14.0932   5.8977   6.5904   H         1 RES1   0.0000
    22 C12     13.4070   7.8082   6.8193   C.ar      1 RES1   0.0000
    23 H10     12.4898   7.5782   6.7271   H         1 RES1   0.0000
    24 C13     12.6642  10.9734   5.4398   C.ar      1 RES1   0.0000
    25 C14     13.1405  10.2310   4.3572   C.ar      1 RES1   0.0000
    26 H11     13.4433   9.3442   4.5136   H         1 RES1   0.0000
    27 C15     13.1929  10.7351   3.0509   C.ar      1 RES1   0.0000
    28 H12     13.5408  10.1982   2.3488   H         1 RES1   0.0000
    29 C16     12.7369  12.0118   2.7829   C.ar      1 RES1   0.0000
    30 H13     12.7793  12.3633   1.9012   H         1 RES1   0.0000
    31 C17     12.2182  12.7696   3.8125   C.ar      1 RES1   0.0000
    32 H14     11.8856  13.6424   3.6382   H         1 RES1   0.0000
    33 C18     12.1835  12.2575   5.1083   C.ar      1 RES1   0.0000
    34 H15     11.8193  12.7981   5.7996   H         1 RES1   0.0000
    35 C19     11.1248   9.8445   7.3729   C.ar      1 RES1   0.0000
    36 C20      9.9704  10.2128   6.6614   C.ar      1 RES1   0.0000
    37 H16     10.0679  10.7377   5.8754   H         1 RES1   0.0000
    38 C21      8.6858   9.8383   7.0637   C.ar      1 RES1   0.0000
    39 H17      7.9306  10.1192   6.5596   H         1 RES1   0.0000
    40 C22      8.5085   9.0610   8.1913   C.ar      1 RES1   0.0000
    41 H18      7.6357   8.8160   8.4751   H         1 RES1   0.0000
    42 C23      9.6226   8.6421   8.9060   C.ar      1 RES1   0.0000
    43 H19      9.5149   8.0923   9.6731   H         1 RES1   0.0000
    44 C24     10.8990   9.0288   8.4983   C.ar      1 RES1   0.0000
    45 H20     11.6471   8.7290   9.0007   H         1 RES1   0.0000
    46 B2      19.1506   6.9276  15.7630   B         2 RES2  -1.0000
    47 C25     19.1655   7.5349  14.2208   C.ar      2 RES2   0.0000
    48 C26     19.4209   6.7649  13.0720   C.ar      2 RES2   0.0000
    49 H21     19.6559   5.8510  13.1805   H         2 RES2   0.0000
    50 C27     19.3417   7.2844  11.7812   C.ar      2 RES2   0.0000
    51 H22     19.5459   6.7316  11.0360   H         2 RES2   0.0000
    52 C28     18.9682   8.6049  11.5788   C.ar      2 RES2   0.0000
    53 H23     18.9103   8.9629  10.7008   H         2 RES2   0.0000
    54 C29     18.6819   9.3965  12.6892   C.ar      2 RES2   0.0000
    55 H24     18.4033  10.2968  12.5713   H         2 RES2   0.0000
    56 C30     18.8021   8.8678  13.9706   C.ar      2 RES2   0.0000
    57 H25     18.6315   9.4370  14.7121   H         2 RES2   0.0000
    58 C31     17.5942   6.4453  16.0743   C.ar      2 RES2   0.0000
    59 C32     16.7854   5.8483  15.0874   C.ar      2 RES2   0.0000
    60 H26     17.1312   5.7724  14.2056   H         2 RES2   0.0000
    61 C33     15.5035   5.3648  15.3427   C.ar      2 RES2   0.0000
    62 H27     14.9955   4.9723  14.6425   H         2 RES2   0.0000
    63 C34     14.9697   5.4566  16.6199   C.ar      2 RES2   0.0000
    64 H28     14.0954   5.1321  16.8021   H         2 RES2   0.0000
    65 C35     15.7365   6.0330  17.6316   C.ar      2 RES2   0.0000
    66 H29     15.3850   6.1035  18.5114   H         2 RES2   0.0000
    67 C36     17.0164   6.5048  17.3538   C.ar      2 RES2   0.0000
    68 H30     17.5235   6.8857  18.0619   H         2 RES2   0.0000
    69 C37     19.6573   8.0822  16.8331   C.ar      2 RES2   0.0000
    70 C38     18.8206   9.1231  17.2917   C.ar      2 RES2   0.0000
    71 H31     17.9257   9.1604  16.9745   H         2 RES2   0.0000
    72 C39     19.2506  10.0967  18.1899   C.ar      2 RES2   0.0000
    73 H32     18.6487  10.7739  18.4760   H         2 RES2   0.0000
    74 C40     20.5538  10.0868  18.6694   C.ar      2 RES2   0.0000
    75 H33     20.8475  10.7486  19.2836   H         2 RES2   0.0000
    76 C41     21.4167   9.0915  18.2365   C.ar      2 RES2   0.0000
    77 H34     22.3161   9.0771  18.5419   H         2 RES2   0.0000
    78 C42     20.9625   8.1109  17.3492   C.ar      2 RES2   0.0000
    79 H35     21.5670   7.4283  17.0826   H         2 RES2   0.0000
    80 C43     20.1483   5.6297  15.9935   C.ar      2 RES2   0.0000
    81 C44     19.9479   4.7708  17.0816   C.ar      2 RES2   0.0000
    82 H36     19.1452   4.8535  17.5834   H         2 RES2   0.0000
    83 C45     20.8728   3.7997  17.4606   C.ar      2 RES2   0.0000
    84 H37     20.7058   3.2531  18.2195   H         2 RES2   0.0000
    85 C46     22.0399   3.6317  16.7262   C.ar      2 RES2   0.0000
    86 H38     22.6782   2.9739  16.9760   H         2 RES2   0.0000
    87 C47     22.2568   4.4395  15.6257   C.ar      2 RES2   0.0000
    88 H39     23.0439   4.3272  15.1045   H         2 RES2   0.0000
    89 C48     21.3282   5.4195  15.2769   C.ar      2 RES2   0.0000
    90 H40     21.5057   5.9673  14.5209   H         2 RES2   0.0000
    91 C49      8.7701  11.5453  10.8862   C.3       3 RES3   0.0000
    92 H41      8.8373  12.5224  10.9307   H         3 RES3   0.0000
    93 H42      7.8263  11.2826  10.8898   H         3 RES3   0.0000
    94 H43      9.1955  11.2263  10.0631   H         3 RES3   0.0000
    95 C50      9.0194   9.9582  12.8464   C.2       3 RES3   0.0000
    96 H44      8.1945   9.4902  12.8069   H         3 RES3   0.0000
    97 C51     10.0518   9.7724  13.7332   C.2       3 RES3   0.0000
    98 C52     10.3647   8.8759  14.8160   C.2       3 RES3   0.0000
    99 H45      9.7628   8.1988  15.1048   H         3 RES3   0.0000
   100 C53     11.9608   8.0452  16.3372   C.3       3 RES3   0.0000
   101 H46     12.3861   7.2931  15.8539   H         3 RES3   0.0000
   102 H47     11.1732   7.6886  16.8208   H         3 RES3   0.0000
   103 C54     12.9431   8.6135  17.3379   C.3       3 RES3   0.0000
   104 H48     13.1701   7.9115  17.9984   H         3 RES3   0.0000
   105 H49     12.5098   9.3577  17.8256   H         3 RES3   0.0000
   106 C55     14.2281   9.1236  16.6986   C.3       3 RES3   0.0000
   107 H50     14.9378   9.1316  17.3892   H         3 RES3   0.0000
   108 H51     14.5043   8.4810  15.9979   H         3 RES3   0.0000
   109 C56     14.0423  11.4794  17.1836   C.3       3 RES3   0.0000
   110 H52     14.0438  12.3859  16.8121   H         3 RES3   0.0000
   111 H53     14.8014  11.3743  17.7939   H         3 RES3   0.0000
   112 H54     13.2063  11.3284  17.6731   H         3 RES3   0.0000
   113 C57     15.4853  10.6967  15.4146   C.3       3 RES3   0.0000
   114 H55     15.6027   9.9815  14.7408   H         3 RES3   0.0000
   115 H56     16.1913  10.5757  16.0979   H         3 RES3   0.0000
   116 C58     15.7247  12.0455  14.7205   C.3       3 RES3   0.0000
   117 H57     16.6516  12.0589  14.3742   H         3 RES3   0.0000
   118 H58     15.6500  12.7635  15.3983   H         3 RES3   0.0000
   119 C59     14.7648  12.3731  13.5571   C.3       3 RES3   0.0000
   120 H59     14.9616  13.2722  13.1936   H         3 RES3   0.0000
   121 H60     14.8701  11.7096  12.8297   H         3 RES3   0.0000
   122 C60     12.8286  13.4331  14.4275   C.2       3 RES3   0.0000
   123 H61     13.1382  14.2840  14.1405   H         3 RES3   0.0000
   124 C61     11.6732  13.2704  15.2799   C.2       3 RES3   0.0000
   125 C62     10.7507  14.0513  15.9256   C.2       3 RES3   0.0000
   126 H62     10.6314  14.9905  15.8446   H         3 RES3   0.0000
   127 C63      8.9931  13.4972  17.6473   C.3       3 RES3   0.0000
   128 H63      8.4663  12.6866  17.8112   H         3 RES3   0.0000
   129 H64      8.4112  14.1955  17.2806   H         3 RES3   0.0000
   130 H65      9.3849  13.8075  18.4899   H         3 RES3   0.0000
   131 C64     13.7682   9.3594  12.3503   C.2       3 RES3   0.0000
   132 H66     13.2403   9.9377  11.8125   H         3 RES3   0.0000
   133 C65     14.7569   8.5192  10.3035   C.3       3 RES3   0.0000
   134 H67     14.3986   7.6794   9.9473   H         3 RES3   0.0000
   135 H68     15.7060   8.5940  10.0704   H         3 RES3   0.0000
   136 H69     14.2653   9.2739   9.9181   H         3 RES3   0.0000
   137 C66     15.4488   7.6158  12.5266   C.3       3 RES3   0.0000
   138 H70     16.3573   7.9775  12.5907   H         3 RES3   0.0000
   139 H71     15.4757   6.7424  12.0823   H         3 RES3   0.0000
   140 H72     15.0740   7.5128  13.4263   H         3 RES3   0.0000
   141 Fe1     12.5655  10.6521  14.7073   Fe        3 RES3   2.0000
   142 N1       9.4448  10.9575  12.0430   N.pl3     3 RES3   0.0000
   143 N2      10.6737  11.3988  12.3929   N.2       3 RES3   0.0000
   144 N3      11.0346  10.6650  13.4147   N.2       3 RES3   0.0000
   145 N4      11.5134   9.0542  15.3643   N.2       3 RES3   0.0000
   146 N5      14.1531  10.4932  16.0815   N.3       3 RES3   0.0000
   147 N6      13.4084  12.3288  14.0867   N.2       3 RES3   0.0000
   148 N7      11.4833  11.9766  15.7051   N.2       3 RES3   0.0000
   149 N8      10.4923  11.9272  16.5696   N.2       3 RES3   0.0000
   150 N9      10.0538  13.2017  16.6984   N.pl3     3 RES3   0.0000
   151 N10     14.6104   8.5333  11.7502   N.am      3 RES3   0.0000
   152 O1      13.6369   9.4138  13.5887   O.2       3 RES3   0.0000
@<TRIPOS>BOND
     1     1     2    1
     2     2     3   ar
     3     3     4    1
     4     5     3   ar
     5     6     5    1
     6     7     5   ar
     7     8     7    1
     8     9     7   ar
     9    10     9    1
    10    11     2   ar
    11    12    11    1
    12    13     1    1
    13    14    13   ar
    14    15    14    1
    15    16    14   ar
    16    17    16    1
    17    18    16   ar
    18    19    18    1
    19    20    18   ar
    20    21    20    1
    21    22    13   ar
    22    23    22    1
    23    24     1    1
    24    25    24   ar
    25    26    25    1
    26    27    25   ar
    27    28    27    1
    28    29    27   ar
    29    30    29    1
    30    31    29   ar
    31    32    31    1
    32    33    24   ar
    33    34    33    1
    34    35     1    1
    35    36    35   ar
    36    37    36    1
    37    38    36   ar
    38    39    38    1
    39    40    38   ar
    40    41    40    1
    41    42    40   ar
    42    43    42    1
    43    44    35   ar
    44    45    44    1
    45     9    11   ar
    46    20    22   ar
    47    31    33   ar
    48    42    44   ar
    49    46    47    1
    50    47    48   ar
    51    48    49    1
    52    50    48   ar
    53    51    50    1
    54    52    50   ar
    55    53    52    1
    56    54    52   ar
    57    55    54    1
    58    56    47   ar
    59    57    56    1
    60    58    46    1
    61    59    58   ar
    62    60    59    1
    63    61    59   ar
    64    62    61    1
    65    63    61   ar
    66    64    63    1
    67    65    63   ar
    68    66    65    1
    69    67    58   ar
    70    68    67    1
    71    69    46    1
    72    70    69   ar
    73    71    70    1
    74    72    70   ar
    75    73    72    1
    76    74    72   ar
    77    75    74    1
    78    76    74   ar
    79    77    76    1
    80    78    69   ar
    81    79    78    1
    82    80    46    1
    83    81    80   ar
    84    82    81    1
    85    83    81   ar
    86    84    83    1
    87    85    83   ar
    88    86    85    1
    89    87    85   ar
    90    88    87    1
    91    89    80   ar
    92    90    89    1
    93    54    56   ar
    94    65    67   ar
    95    76    78   ar
    96    87    89   ar
    97    91    92    1
    98    93    91    1
    99    94    91    1
   100    95    96    1
   101    97    95    2
   102    98    97    1
   103    99    98    1
   104   100   101    1
   105   102   100    1
   106   103   100    1
   107   104   103    1
   108   105   103    1
   109   106   103    1
   110   107   106    1
   111   108   106    1
   112   109   110    1
   113   111   109    1
   114   112   109    1
   115   113   114    1
   116   115   113    1
   117   116   113    1
   118   117   116    1
   119   118   116    1
   120   119   116    1
   121   120   119    1
   122   121   119    1
   123   122   123    1
   124   124   122    1
   125   125   124    2
   126   126   125    1
   127   127   128    1
   128   129   127    1
   129   130   127    1
   130   131   132    1
   131   133   134    1
   132   135   133    1
   133   136   133    1
   134   137   138    1
   135   139   137    1
   136   140   137    1
   137   141   144    1
   138   142    91    1
   139   143   142    1
   140   144    97    1
   141   145    98    2
   142   146   106    1
   143   147   119    1
   144   148   124    1
   145   149   148    2
   146   150   125    1
   147   151   131   am
   148   152   131    2
   149    95   142    1
   150   100   145    1
   151   109   146    1
   152   113   146    1
   153   122   147    2
   154   127   150    1
   155   133   151    1
   156   137   151    1
   157   141   145    1
   158   141   146    1
   159   141   147    1
   160   141   148    1
   161   141   152    1
   162   143   144    2
   163   149   150    1
@<TRIPOS>SUBSTRUCTURE
     1 RES1        1 GROUP             0 ****  ****    0  
     2 RES2       46 GROUP             0 ****  ****    0  
     3 RES3       91 GROUP             0 ****  ****    0  
@<TRIPOS>CRYSIN
   13.1076   13.1095   20.0666   76.3910   71.3470   62.0700     2     1
