@<TRIPOS>MOLECULE
TIGBIY
   146   157     3     0     0
SMALL
USER_CHARGES
****
Generated from the CSD

@<TRIPOS>ATOM
     1 B1       8.6547  13.2615   8.8586   B         1 RES1  -1.0000
     2 C1       7.6467  12.3499   7.9364   C.ar      1 RES1   0.0000
     3 C2       6.2691  12.3132   8.0893   C.ar      1 RES1   0.0000
     4 H1       5.8874  12.8452   8.7499   H         1 RES1   0.0000
     5 C3       5.4294  11.5302   7.3162   C.ar      1 RES1   0.0000
     6 H2       4.5111  11.5500   7.4641   H         1 RES1   0.0000
     7 C4       5.9454  10.7307   6.3363   C.ar      1 RES1   0.0000
     8 H3       5.3907  10.1878   5.8244   H         1 RES1   0.0000
     9 C5       7.2937  10.7461   6.1279   C.ar      1 RES1   0.0000
    10 H4       7.6608  10.2098   5.4626   H         1 RES1   0.0000
    11 C6       8.1198  11.5461   6.8896   C.ar      1 RES1   0.0000
    12 H5       9.0305  11.5526   6.7007   H         1 RES1   0.0000
    13 C7       9.6491  12.2967   9.7685   C.ar      1 RES1   0.0000
    14 C8      10.0410  11.0044   9.4279   C.ar      1 RES1   0.0000
    15 H6       9.7492  10.6499   8.6192   H         1 RES1   0.0000
    16 C9      10.8419  10.2284  10.2362   C.ar      1 RES1   0.0000
    17 H7      11.0754   9.3736   9.9543   H         1 RES1   0.0000
    18 C10     11.2908  10.6670  11.4100   C.ar      1 RES1   0.0000
    19 H8      11.8076  10.1193  11.9573   H         1 RES1   0.0000
    20 C11     10.9718  11.9530  11.7976   C.ar      1 RES1   0.0000
    21 H9      11.2988  12.2946  12.5983   H         1 RES1   0.0000
    22 C12     10.1679  12.7283  10.9923   C.ar      1 RES1   0.0000
    23 H10      9.9581  13.5878  11.2791   H         1 RES1   0.0000
    24 C13      7.7505  14.2066   9.8632   C.ar      1 RES1   0.0000
    25 C14      7.1854  13.7232  11.0359   C.ar      1 RES1   0.0000
    26 H11      7.3775  12.8495  11.2900   H         1 RES1   0.0000
    27 C15      6.3549  14.4701  11.8431   C.ar      1 RES1   0.0000
    28 H12      5.9977  14.0963  12.6160   H         1 RES1   0.0000
    29 C16      6.0534  15.7768  11.5020   C.ar      1 RES1   0.0000
    30 H13      5.4922  16.2896  12.0377   H         1 RES1   0.0000
    31 C17      6.5977  16.2986  10.3608   C.ar      1 RES1   0.0000
    32 H14      6.4044  17.1751  10.1178   H         1 RES1   0.0000
    33 C18      7.4336  15.5350   9.5634   C.ar      1 RES1   0.0000
    34 H15      7.7982  15.9205   8.7996   H         1 RES1   0.0000
    35 C19      9.5916  14.2387   7.9086   C.ar      1 RES1   0.0000
    36 C20      9.3552  14.4564   6.5580   C.ar      1 RES1   0.0000
    37 H16      8.6215  14.0457   6.1607   H         1 RES1   0.0000
    38 C21     10.1854  15.2759   5.7657   C.ar      1 RES1   0.0000
    39 H17     10.0048  15.4031   4.8616   H         1 RES1   0.0000
    40 C22     11.2769  15.8900   6.3616   C.ar      1 RES1   0.0000
    41 H18     11.8549  16.4090   5.8515   H         1 RES1   0.0000
    42 C23     11.4964  15.7364   7.6803   C.ar      1 RES1   0.0000
    43 H19     12.2116  16.1747   8.0833   H         1 RES1   0.0000
    44 C24     10.6760  14.9370   8.4339   C.ar      1 RES1   0.0000
    45 H20     10.8528  14.8570   9.3428   H         1 RES1   0.0000
    46 B2      -0.1585  13.0065   7.9556   B         2 RES2  -1.0000
    47 C25     -0.9754  12.1349   9.0994   C.ar      2 RES2   0.0000
    48 C26     -1.6010  10.9160   8.7920   C.ar      2 RES2   0.0000
    49 H21     -1.5084  10.5775   7.9308   H         2 RES2   0.0000
    50 C27     -2.3488  10.1924   9.7049   C.ar      2 RES2   0.0000
    51 H22     -2.7531   9.3974   9.4415   H         2 RES2   0.0000
    52 C28     -2.4992  10.6359  10.9934   C.ar      2 RES2   0.0000
    53 H23     -3.0018  10.1525  11.6087   H         2 RES2   0.0000
    54 C29     -1.8875  11.8142  11.3524   C.ar      2 RES2   0.0000
    55 H24     -1.9707  12.1293  12.2234   H         2 RES2   0.0000
    56 C30     -1.1495  12.5360  10.4311   C.ar      2 RES2   0.0000
    57 H25     -0.7484  13.3275  10.7095   H         2 RES2   0.0000
    58 C31      0.9067  14.0466   8.6940   C.ar      2 RES2   0.0000
    59 C32      0.4408  15.1580   9.4283   C.ar      2 RES2   0.0000
    60 H26     -0.4734  15.3221   9.4715   H         2 RES2   0.0000
    61 C33      1.3097  16.0073  10.0822   C.ar      2 RES2   0.0000
    62 H27      0.9731  16.7285  10.5633   H         2 RES2   0.0000
    63 C34      2.6597  15.7991  10.0297   C.ar      2 RES2   0.0000
    64 H28      3.2392  16.3767  10.4705   H         2 RES2   0.0000
    65 C35      3.1493  14.7383   9.3251   C.ar      2 RES2   0.0000
    66 H29      4.0668  14.5938   9.2801   H         2 RES2   0.0000
    67 C36      2.2836  13.8808   8.6806   C.ar      2 RES2   0.0000
    68 H30      2.6391  13.1581   8.2156   H         2 RES2   0.0000
    69 C37     -1.2303  13.8517   7.0347   C.ar      2 RES2   0.0000
    70 C38     -2.3992  13.2969   6.5736   C.ar      2 RES2   0.0000
    71 H31     -2.6169  12.4317   6.8326   H         2 RES2   0.0000
    72 C39     -3.2652  13.9811   5.7349   C.ar      2 RES2   0.0000
    73 H32     -4.0359  13.5564   5.4321   H         2 RES2   0.0000
    74 C40     -3.0105  15.2619   5.3454   C.ar      2 RES2   0.0000
    75 H33     -3.6165  15.7255   4.8143   H         2 RES2   0.0000
    76 C41     -1.8708  15.8391   5.7457   C.ar      2 RES2   0.0000
    77 H34     -1.6681  16.7029   5.4688   H         2 RES2   0.0000
    78 C42     -0.9887  15.1547   6.5690   C.ar      2 RES2   0.0000
    79 H35     -0.2022  15.5786   6.8250   H         2 RES2   0.0000
    80 C43      0.6785  11.9942   6.9525   C.ar      2 RES2   0.0000
    81 C44      0.9362  12.3113   5.6195   C.ar      2 RES2   0.0000
    82 H36      0.6046  13.1119   5.2822   H         2 RES2   0.0000
    83 C45      1.6677  11.4846   4.7681   C.ar      2 RES2   0.0000
    84 H37      1.8072  11.7306   3.8824   H         2 RES2   0.0000
    85 C46      2.1874  10.2879   5.2512   C.ar      2 RES2   0.0000
    86 H38      2.6723   9.7240   4.6925   H         2 RES2   0.0000
    87 C47      1.9769   9.9579   6.5446   C.ar      2 RES2   0.0000
    88 H39      2.3328   9.1667   6.8795   H         2 RES2   0.0000
    89 C48      1.2343  10.7868   7.3822   C.ar      2 RES2   0.0000
    90 H40      1.1031  10.5252   8.2650   H         2 RES2   0.0000
    91 C49      2.4129   5.0233   9.0968   C.3       3 RES3   0.0000
    92 H41      1.6398   5.4800   8.7566   H         3 RES3   0.0000
    93 H42      2.1774   4.1207   9.3230   H         3 RES3   0.0000
    94 H43      3.1002   5.0159   8.4260   H         3 RES3   0.0000
    95 C50      3.6455   5.2381  11.2846   C.2       3 RES3   0.0000
    96 H44      3.9505   4.3656  11.3876   H         3 RES3   0.0000
    97 C51      3.8648   6.2891  12.1168   C.2       3 RES3   0.0000
    98 C52      4.5014   6.5625  13.3621   C.2       3 RES3   0.0000
    99 H45      5.0015   5.9206  13.8125   H         3 RES3   0.0000
   100 C53      5.0297   8.1301  15.0636   C.3       3 RES3   0.0000
   101 H46      5.9351   8.4073  14.8545   H         3 RES3   0.0000
   102 H47      5.0819   7.3582  15.6493   H         3 RES3   0.0000
   103 C54      4.3384   9.2248  15.7660   C.3       3 RES3   0.0000
   104 H48      4.7629   9.3641  16.6268   H         3 RES3   0.0000
   105 H49      3.4186   8.9617  15.9296   H         3 RES3   0.0000
   106 C55      4.3461  10.5442  14.9886   C.3       3 RES3   0.0000
   107 H50      4.2356  11.2745  15.6163   H         3 RES3   0.0000
   108 H51      5.2129  10.6487  14.5655   H         3 RES3   0.0000
   109 C56      1.9829  10.9003  14.6064   C.3       3 RES3   0.0000
   110 H52      1.2764  10.8928  13.9566   H         3 RES3   0.0000
   111 H53      2.0095  11.7558  15.0408   H         3 RES3   0.0000
   112 H54      1.8246  10.2145  15.2593   H         3 RES3   0.0000
   113 C57      3.5955  11.8777  13.1270   C.3       3 RES3   0.0000
   114 H55      4.4695  11.7549  12.7228   H         3 RES3   0.0000
   115 H56      3.6643  12.6283  13.7377   H         3 RES3   0.0000
   116 C58      2.6195  12.2495  12.0313   C.3       3 RES3   0.0000
   117 H57      2.9150  13.0813  11.6297   H         3 RES3   0.0000
   118 H58      1.7546  12.4152  12.4387   H         3 RES3   0.0000
   119 C59      2.4376  11.2182  10.9220   C.3       3 RES3   0.0000
   120 H59      1.7502  11.5078  10.3019   H         3 RES3   0.0000
   121 H60      3.2663  11.1005  10.4318   H         3 RES3   0.0000
   122 C60      0.8137   9.6091  11.5513   C.2       3 RES3   0.0000
   123 H61      0.1850   9.9649  10.9656   H         3 RES3   0.0000
   124 C61      0.4981   8.6015  12.5292   C.2       3 RES3   0.0000
   125 C62     -0.5768   7.8880  12.9877   C.2       3 RES3   0.0000
   126 H62     -1.4423   7.8917  12.6480   H         3 RES3   0.0000
   127 C63     -0.8364   6.2405  14.8752   C.3       3 RES3   0.0000
   128 H63     -1.0314   6.6524  15.7199   H         3 RES3   0.0000
   129 H64     -0.2861   5.4663  15.0160   H         3 RES3   0.0000
   130 H65     -1.6568   5.9763  14.4512   H         3 RES3   0.0000
   131 C64      5.8680   9.6340  11.2473   C.1       3 RES3   0.0000
   132 C65      7.1058   9.7880  10.5351   C.3       3 RES3   0.0000
   133 H66      7.0156  10.4883   9.8848   H         3 RES3   0.0000
   134 H67      7.3243   8.9653  10.0917   H         3 RES3   0.0000
   135 H68      7.8046  10.0137  11.1536   H         3 RES3   0.0000
   136 Fe1      3.2435   8.9706  12.7039   Fe        3 RES3   2.0000
   137 N1       2.9051   5.7175  10.2952   N.pl3     3 RES3   0.0000
   138 N2       2.6465   7.0311  10.4492   N.2       3 RES3   0.0000
   139 N3       3.2262   7.3672  11.5737   N.2       3 RES3   0.0000
   140 N4       4.3417   7.7497  13.8235   N.2       3 RES3   0.0000
   141 N5       3.2772  10.6493  13.9311   N.3       3 RES3   0.0000
   142 N6       2.0473   9.9707  11.5641   N.2       3 RES3   0.0000
   143 N7       1.5414   8.2878  13.3342   N.2       3 RES3   0.0000
   144 N8       1.1836   7.4169  14.2339   N.2       3 RES3   0.0000
   145 N9      -0.1259   7.1967  14.0144   N.pl3     3 RES3   0.0000
   146 N10      4.8863   9.5010  11.8092   N.1       3 RES3   0.0000
@<TRIPOS>BOND
     1     1     2    1
     2     2     3   ar
     3     3     4    1
     4     5     3   ar
     5     6     5    1
     6     7     5   ar
     7     8     7    1
     8     9     7   ar
     9    10     9    1
    10    11     2   ar
    11    12    11    1
    12    13     1    1
    13    14    13   ar
    14    15    14    1
    15    16    14   ar
    16    17    16    1
    17    18    16   ar
    18    19    18    1
    19    20    18   ar
    20    21    20    1
    21    22    13   ar
    22    23    22    1
    23    24     1    1
    24    25    24   ar
    25    26    25    1
    26    27    25   ar
    27    28    27    1
    28    29    27   ar
    29    30    29    1
    30    31    29   ar
    31    32    31    1
    32    33    24   ar
    33    34    33    1
    34    35     1    1
    35    36    35   ar
    36    37    36    1
    37    38    36   ar
    38    39    38    1
    39    40    38   ar
    40    41    40    1
    41    42    40   ar
    42    43    42    1
    43    44    35   ar
    44    45    44    1
    45     9    11   ar
    46    20    22   ar
    47    31    33   ar
    48    42    44   ar
    49    46    47    1
    50    47    48   ar
    51    48    49    1
    52    50    48   ar
    53    51    50    1
    54    52    50   ar
    55    53    52    1
    56    54    52   ar
    57    55    54    1
    58    56    47   ar
    59    57    56    1
    60    58    46    1
    61    59    58   ar
    62    60    59    1
    63    61    59   ar
    64    62    61    1
    65    63    61   ar
    66    64    63    1
    67    65    63   ar
    68    66    65    1
    69    67    58   ar
    70    68    67    1
    71    69    46    1
    72    70    69   ar
    73    71    70    1
    74    72    70   ar
    75    73    72    1
    76    74    72   ar
    77    75    74    1
    78    76    74   ar
    79    77    76    1
    80    78    69   ar
    81    79    78    1
    82    80    46    1
    83    81    80   ar
    84    82    81    1
    85    83    81   ar
    86    84    83    1
    87    85    83   ar
    88    86    85    1
    89    87    85   ar
    90    88    87    1
    91    89    80   ar
    92    90    89    1
    93    54    56   ar
    94    65    67   ar
    95    76    78   ar
    96    87    89   ar
    97    91    92    1
    98    93    91    1
    99    94    91    1
   100    95    96    1
   101    97    95    2
   102    98    97    1
   103    99    98    1
   104   100   101    1
   105   102   100    1
   106   103   100    1
   107   104   103    1
   108   105   103    1
   109   106   103    1
   110   107   106    1
   111   108   106    1
   112   109   110    1
   113   111   109    1
   114   112   109    1
   115   113   114    1
   116   115   113    1
   117   116   113    1
   118   117   116    1
   119   118   116    1
   120   119   116    1
   121   120   119    1
   122   121   119    1
   123   122   123    1
   124   124   122    1
   125   125   124    2
   126   126   125    1
   127   127   128    1
   128   129   127    1
   129   130   127    1
   130   131   132    1
   131   132   133    1
   132   134   132    1
   133   135   132    1
   134   136   139    1
   135   137    91    1
   136   138   137    1
   137   139    97    1
   138   140    98    2
   139   141   106    1
   140   142   119    1
   141   143   124    1
   142   144   143    2
   143   145   125    1
   144   146   131    3
   145    95   137    1
   146   100   140    1
   147   109   141    1
   148   113   141    1
   149   122   142    2
   150   127   145    1
   151   136   140    1
   152   136   141    1
   153   136   142    1
   154   136   143    1
   155   136   146    1
   156   138   139    2
   157   144   145    1
@<TRIPOS>SUBSTRUCTURE
     1 RES1        1 GROUP             0 ****  ****    0  
     2 RES2       46 GROUP             0 ****  ****    0  
     3 RES3       91 GROUP             0 ****  ****    0  
@<TRIPOS>CRYSIN
   18.4416   17.5444   18.2973   90.0000   98.1180   90.0000    14     1
