@<TRIPOS>MOLECULE
TIGBOE06
   152   163     3     0     0
SMALL
USER_CHARGES
****
Generated from the CSD

@<TRIPOS>ATOM
     1 B1       9.1430  10.2891  11.9197   B         1 RES1  -1.0000
     2 C1       7.8918  10.4420  10.8467   C.ar      1 RES1   0.0000
     3 C2       8.0128  11.0100   9.5760   C.ar      1 RES1   0.0000
     4 H1       8.8389  11.3531   9.3220   H         1 RES1   0.0000
     5 C3       6.9644  11.0868   8.6770   C.ar      1 RES1   0.0000
     6 H2       7.0959  11.4806   7.8450   H         1 RES1   0.0000
     7 C4       5.7337  10.5863   9.0056   C.ar      1 RES1   0.0000
     8 H3       5.0272  10.6324   8.4016   H         1 RES1   0.0000
     9 C5       5.5559  10.0106  10.2479   C.ar      1 RES1   0.0000
    10 H4       4.7277   9.6604  10.4839   H         1 RES1   0.0000
    11 C6       6.6126   9.9532  11.1442   C.ar      1 RES1   0.0000
    12 H5       6.4656   9.5742  11.9804   H         1 RES1   0.0000
    13 C7       9.7286   8.7425  11.8504   C.ar      1 RES1   0.0000
    14 C8       8.8853   7.6365  11.7359   C.ar      1 RES1   0.0000
    15 H6       7.9765   7.7856  11.6078   H         1 RES1   0.0000
    16 C9       9.3346   6.3303  11.8033   C.ar      1 RES1   0.0000
    17 H7       8.7295   5.6286  11.7338   H         1 RES1   0.0000
    18 C10     10.6680   6.0670  11.9719   C.ar      1 RES1   0.0000
    19 H8      10.9770   5.1903  12.0044   H         1 RES1   0.0000
    20 C11     11.5337   7.1170  12.0916   C.ar      1 RES1   0.0000
    21 H9      12.4420   6.9540  12.2079   H         1 RES1   0.0000
    22 C12     11.0705   8.4217  12.0411   C.ar      1 RES1   0.0000
    23 H10     11.6833   9.1141  12.1390   H         1 RES1   0.0000
    24 C13      8.6098  10.5152  13.4683   C.ar      1 RES1   0.0000
    25 C14      9.1043   9.7774  14.5477   C.ar      1 RES1   0.0000
    26 H11      9.7621   9.1407  14.3873   H         1 RES1   0.0000
    27 C15      8.6554   9.9554  15.8469   C.ar      1 RES1   0.0000
    28 H12      9.0094   9.4355  16.5321   H         1 RES1   0.0000
    29 C16      7.6985  10.8877  16.1292   C.ar      1 RES1   0.0000
    30 H13      7.3888  10.9972  16.9993   H         1 RES1   0.0000
    31 C17      7.2020  11.6612  15.1133   C.ar      1 RES1   0.0000
    32 H14      6.5629  12.3122  15.2951   H         1 RES1   0.0000
    33 C18      7.6484  11.4736  13.8137   C.ar      1 RES1   0.0000
    34 H15      7.2940  12.0089  13.1410   H         1 RES1   0.0000
    35 C19     10.3092  11.3954  11.5489   C.ar      1 RES1   0.0000
    36 C20     10.4815  12.5840  12.2514   C.ar      1 RES1   0.0000
    37 H16      9.9543  12.7379  13.0020   H         1 RES1   0.0000
    38 C21     11.4047  13.5476  11.8791   C.ar      1 RES1   0.0000
    39 H17     11.4806  14.3300  12.3768   H         1 RES1   0.0000
    40 C22     12.2020  13.3616  10.7956   C.ar      1 RES1   0.0000
    41 H18     12.8201  14.0112  10.5478   H         1 RES1   0.0000
    42 C23     12.0854  12.2034  10.0690   C.ar      1 RES1   0.0000
    43 H19     12.6288  12.0614   9.3281   H         1 RES1   0.0000
    44 C24     11.1501  11.2417  10.4435   C.ar      1 RES1   0.0000
    45 H20     11.0824  10.4641   9.9368   H         1 RES1   0.0000
    46 B2       9.0491   2.6979   3.1377   B         2 RES2  -1.0000
    47 C25      8.5327   2.9421   4.6890   C.ar      2 RES2   0.0000
    48 C26      9.0975   2.3316   5.8093   C.ar      2 RES2   0.0000
    49 H21      9.7606   1.6929   5.6769   H         2 RES2   0.0000
    50 C27      8.7205   2.6318   7.1132   C.ar      2 RES2   0.0000
    51 H22      9.1152   2.1820   7.8254   H         2 RES2   0.0000
    52 C28      7.7698   3.5893   7.3512   C.ar      2 RES2   0.0000
    53 H23      7.5160   3.7992   8.2209   H         2 RES2   0.0000
    54 C29      7.1959   4.2358   6.2761   C.ar      2 RES2   0.0000
    55 H24      6.5586   4.8981   6.4189   H         2 RES2   0.0000
    56 C30      7.5664   3.9012   4.9860   C.ar      2 RES2   0.0000
    57 H25      7.1481   4.3383   4.2797   H         2 RES2   0.0000
    58 C31     10.2051   3.8430   2.8321   C.ar      2 RES2   0.0000
    59 C32     11.0723   4.3128   3.8238   C.ar      2 RES2   0.0000
    60 H26     10.9750   3.9860   4.6891   H         2 RES2   0.0000
    61 C33     12.0721   5.2445   3.5753   C.ar      2 RES2   0.0000
    62 H27     12.6361   5.5165   4.2629   H         2 RES2   0.0000
    63 C34     12.2268   5.7640   2.3125   C.ar      2 RES2   0.0000
    64 H28     12.8831   6.4026   2.1449   H         2 RES2   0.0000
    65 C35     11.4052   5.3322   1.3009   C.ar      2 RES2   0.0000
    66 H29     11.5068   5.6704   0.4404   H         2 RES2   0.0000
    67 C36     10.4240   4.3887   1.5674   C.ar      2 RES2   0.0000
    68 H30      9.8835   4.1055   0.8659   H         2 RES2   0.0000
    69 C37      7.7733   2.8374   2.0900   C.ar      2 RES2   0.0000
    70 C38      7.2857   4.0684   1.6403   C.ar      2 RES2   0.0000
    71 H31      7.6953   4.8465   1.9424   H         2 RES2   0.0000
    72 C39      6.2135   4.1785   0.7599   C.ar      2 RES2   0.0000
    73 H32      5.9327   5.0180   0.4751   H         2 RES2   0.0000
    74 C40      5.5719   3.0597   0.3124   C.ar      2 RES2   0.0000
    75 H33      4.8464   3.1319  -0.2652   H         2 RES2   0.0000
    76 C41      6.0086   1.8267   0.7246   C.ar      2 RES2   0.0000
    77 H34      5.5793   1.0581   0.4274   H         2 RES2   0.0000
    78 C42      7.0889   1.7270   1.5813   C.ar      2 RES2   0.0000
    79 H35      7.3751   0.8786   1.8329   H         2 RES2   0.0000
    80 C43      9.6793   1.2030   2.8702   C.ar      2 RES2   0.0000
    81 C44     10.5196   0.9638   1.7799   C.ar      2 RES2   0.0000
    82 H36     10.8424   1.6925   1.3000   H         2 RES2   0.0000
    83 C45     10.8953  -0.3120   1.3807   C.ar      2 RES2   0.0000
    84 H37     11.4477  -0.4216   0.6408   H         2 RES2   0.0000
    85 C46     10.4510  -1.4155   2.0767   C.ar      2 RES2   0.0000
    86 H38     10.6895  -2.2735   1.8077   H         2 RES2   0.0000
    87 C47      9.6507  -1.2236   3.1741   C.ar      2 RES2   0.0000
    88 H39      9.3588  -1.9565   3.6667   H         2 RES2   0.0000
    89 C48      9.2748   0.0529   3.5531   C.ar      2 RES2   0.0000
    90 H40      8.7266   0.1502   4.2981   H         2 RES2   0.0000
    91 C49     10.1970  14.5229   7.9198   C.3       3 RES3   0.0000
    92 H41     10.2388  14.0614   8.7606   H         3 RES3   0.0000
    93 H42      9.3603  14.9895   7.8525   H         3 RES3   0.0000
    94 H43     10.9196  15.1516   7.8630   H         3 RES3   0.0000
    95 C50     11.3149  13.3422   5.9767   C.2       3 RES3   0.0000
    96 H44     12.1236  13.7985   5.9352   H         3 RES3   0.0000
    97 C51     10.9053  12.3157   5.1863   C.2       3 RES3   0.0000
    98 C52     11.5151  11.5455   4.1226   C.2       3 RES3   0.0000
    99 H45     12.3844  11.7216   3.8430   H         3 RES3   0.0000
   100 C53     11.4808   9.7108   2.6292   C.3       3 RES3   0.0000
   101 H46     11.9164   8.9962   3.1197   H         3 RES3   0.0000
   102 H47     12.1630  10.1948   2.1391   H         3 RES3   0.0000
   103 C54     10.5008   9.1123   1.6510   C.3       3 RES3   0.0000
   104 H48     10.9988   8.5949   0.9985   H         3 RES3   0.0000
   105 H49     10.0638   9.8356   1.1755   H         3 RES3   0.0000
   106 C55      9.4244   8.2152   2.2511   C.3       3 RES3   0.0000
   107 H50      9.1493   7.5762   1.5752   H         3 RES3   0.0000
   108 H51      9.8192   7.7133   2.9812   H         3 RES3   0.0000
   109 C56      7.4673   9.4871   1.6146   C.3       3 RES3   0.0000
   110 H52      8.0243  10.1293   1.1681   H         3 RES3   0.0000
   111 H53      6.6690   9.9198   1.9277   H         3 RES3   0.0000
   112 H54      7.2318   8.7869   1.0018   H         3 RES3   0.0000
   113 C57      7.3333   7.8817   3.4082   C.3       3 RES3   0.0000
   114 H55      7.8383   7.4736   4.1290   H         3 RES3   0.0000
   115 H56      7.1567   7.1894   2.7529   H         3 RES3   0.0000
   116 C58      5.9912   8.3489   3.9774   C.3       3 RES3   0.0000
   117 H57      5.4788   8.7391   3.2516   H         3 RES3   0.0000
   118 H58      5.5066   7.5646   4.2802   H         3 RES3   0.0000
   119 C59      6.0192   9.3578   5.1283   C.3       3 RES3   0.0000
   120 H59      5.1141   9.5859   5.3911   H         3 RES3   0.0000
   121 H60      6.4719   8.9722   5.8949   H         3 RES3   0.0000
   122 C60      6.0629  11.5672   4.2700   C.2       3 RES3   0.0000
   123 H61      5.1522  11.6576   4.4333   H         3 RES3   0.0000
   124 C61      6.8091  12.5699   3.5334   C.2       3 RES3   0.0000
   125 C62      6.5320  13.7690   2.9541   C.2       3 RES3   0.0000
   126 H62      5.7381  14.2502   3.0109   H         3 RES3   0.0000
   127 C63      7.8832  15.2825   1.4454   C.3       3 RES3   0.0000
   128 H63      7.3196  15.2433   0.6692   H         3 RES3   0.0000
   129 H64      8.8036  15.2896   1.1723   H         3 RES3   0.0000
   130 H65      7.6901  16.0805   1.9417   H         3 RES3   0.0000
   131 C64      9.3789   8.6934   6.6953   C.2       3 RES3   0.0000
   132 H66      9.1579   9.3804   7.2812   H         3 RES3   0.0000
   133 C65      9.8363   7.3492   8.6314   C.3       3 RES3   0.0000
   134 H67      9.3323   8.0353   9.0755   H         3 RES3   0.0000
   135 H68     10.7494   7.3823   8.9247   H         3 RES3   0.0000
   136 H69      9.4627   6.4904   8.8433   H         3 RES3   0.0000
   137 C66     10.1661   6.4528   6.3448   C.3       3 RES3   0.0000
   138 H70     10.3990   6.7887   5.4761   H         3 RES3   0.0000
   139 H71      9.4324   5.8395   6.2650   H         3 RES3   0.0000
   140 H72     10.9220   6.0007   6.7263   H         3 RES3   0.0000
   141 Fe1      8.7983  10.4500   4.2388   Fe        3 RES3   2.0000
   142 N1      10.3041  13.5566   6.8282   N.pl3     3 RES3   0.0000
   143 N2       9.2924  12.7086   6.5983   N.2       3 RES3   0.0000
   144 N3       9.6600  11.9461   5.6004   N.2       3 RES3   0.0000
   145 N4      10.8311  10.6241   3.5828   N.2       3 RES3   0.0000
   146 N5       8.2013   8.9113   2.7660   N.3       3 RES3   0.0000
   147 N6       6.7234  10.5504   4.6837   N.2       3 RES3   0.0000
   148 N7       8.0808  12.2378   3.1865   N.2       3 RES3   0.0000
   149 N8       8.5878  13.1854   2.4277   N.2       3 RES3   0.0000
   150 N9       7.6340  14.1107   2.2883   N.pl3     3 RES3   0.0000
   151 N10      9.7804   7.5587   7.2031   N.am      3 RES3   0.0000
   152 O1       9.2769   8.9055   5.4941   O.2       3 RES3   0.0000
@<TRIPOS>BOND
     1     1     2    1
     2     2     3   ar
     3     3     4    1
     4     5     3   ar
     5     6     5    1
     6     7     5   ar
     7     8     7    1
     8     9     7   ar
     9    10     9    1
    10    11     2   ar
    11    12    11    1
    12    13     1    1
    13    14    13   ar
    14    15    14    1
    15    16    14   ar
    16    17    16    1
    17    18    16   ar
    18    19    18    1
    19    20    18   ar
    20    21    20    1
    21    22    13   ar
    22    23    22    1
    23    24     1    1
    24    25    24   ar
    25    26    25    1
    26    27    25   ar
    27    28    27    1
    28    29    27   ar
    29    30    29    1
    30    31    29   ar
    31    32    31    1
    32    33    24   ar
    33    34    33    1
    34    35     1    1
    35    36    35   ar
    36    37    36    1
    37    38    36   ar
    38    39    38    1
    39    40    38   ar
    40    41    40    1
    41    42    40   ar
    42    43    42    1
    43    44    35   ar
    44    45    44    1
    45     9    11   ar
    46    20    22   ar
    47    31    33   ar
    48    42    44   ar
    49    46    47    1
    50    47    48   ar
    51    48    49    1
    52    50    48   ar
    53    51    50    1
    54    52    50   ar
    55    53    52    1
    56    54    52   ar
    57    55    54    1
    58    56    47   ar
    59    57    56    1
    60    58    46    1
    61    59    58   ar
    62    60    59    1
    63    61    59   ar
    64    62    61    1
    65    63    61   ar
    66    64    63    1
    67    65    63   ar
    68    66    65    1
    69    67    58   ar
    70    68    67    1
    71    69    46    1
    72    70    69   ar
    73    71    70    1
    74    72    70   ar
    75    73    72    1
    76    74    72   ar
    77    75    74    1
    78    76    74   ar
    79    77    76    1
    80    78    69   ar
    81    79    78    1
    82    80    46    1
    83    81    80   ar
    84    82    81    1
    85    83    81   ar
    86    84    83    1
    87    85    83   ar
    88    86    85    1
    89    87    85   ar
    90    88    87    1
    91    89    80   ar
    92    90    89    1
    93    54    56   ar
    94    65    67   ar
    95    76    78   ar
    96    87    89   ar
    97    91    92    1
    98    93    91    1
    99    94    91    1
   100    95    96    1
   101    97    95    2
   102    98    97    1
   103    99    98    1
   104   100   101    1
   105   102   100    1
   106   103   100    1
   107   104   103    1
   108   105   103    1
   109   106   103    1
   110   107   106    1
   111   108   106    1
   112   109   110    1
   113   111   109    1
   114   112   109    1
   115   113   114    1
   116   115   113    1
   117   116   113    1
   118   117   116    1
   119   118   116    1
   120   119   116    1
   121   120   119    1
   122   121   119    1
   123   122   123    1
   124   124   122    1
   125   125   124    2
   126   126   125    1
   127   127   128    1
   128   129   127    1
   129   130   127    1
   130   131   132    1
   131   133   134    1
   132   135   133    1
   133   136   133    1
   134   137   138    1
   135   139   137    1
   136   140   137    1
   137   141   144    1
   138   142    91    1
   139   143   142    1
   140   144    97    1
   141   145    98    2
   142   146   106    1
   143   147   119    1
   144   148   124    1
   145   149   148    2
   146   150   125    1
   147   151   131   am
   148   152   131    2
   149    95   142    1
   150   100   145    1
   151   109   146    1
   152   113   146    1
   153   122   147    2
   154   127   150    1
   155   133   151    1
   156   137   151    1
   157   141   145    1
   158   141   146    1
   159   141   147    1
   160   141   148    1
   161   141   152    1
   162   143   144    2
   163   149   150    1
@<TRIPOS>SUBSTRUCTURE
     1 RES1        1 GROUP             0 ****  ****    0  
     2 RES2       46 GROUP             0 ****  ****    0  
     3 RES3       91 GROUP             0 ****  ****    0  
@<TRIPOS>CRYSIN
   13.2956   13.4158   20.0397   70.5540   75.4510   62.1460     2     1
