@<TRIPOS>MOLECULE
TIGBOE
   152   163     3     0     0
SMALL
USER_CHARGES
****
Generated from the CSD

@<TRIPOS>ATOM
     1 B1      12.5570  10.3170   6.9823   B         1 RES1  -1.0000
     2 C1      13.0009  11.4992   8.0458   C.ar      1 RES1   0.0000
     3 C2      12.4485  11.6643   9.3293   C.ar      1 RES1   0.0000
     4 H1      11.7583  11.0723   9.6042   H         1 RES1   0.0000
     5 C3      12.8659  12.6558  10.2180   C.ar      1 RES1   0.0000
     6 H2      12.4523  12.7353  11.0695   H         1 RES1   0.0000
     7 C4      13.8848  13.5257   9.8578   C.ar      1 RES1   0.0000
     8 H3      14.1751  14.2021  10.4584   H         1 RES1   0.0000
     9 C5      14.4739  13.3943   8.6091   C.ar      1 RES1   0.0000
    10 H4      15.1823  13.9738   8.3543   H         1 RES1   0.0000
    11 C6      14.0254  12.4107   7.7279   C.ar      1 RES1   0.0000
    12 H5      14.4314  12.3531   6.8710   H         1 RES1   0.0000
    13 C7      13.6673   9.0965   7.0327   C.ar      1 RES1   0.0000
    14 C8      15.0416   9.3485   7.1624   C.ar      1 RES1   0.0000
    15 H6      15.3248  10.2414   7.3200   H         1 RES1   0.0000
    16 C9      16.0081   8.3539   7.0712   C.ar      1 RES1   0.0000
    17 H7      16.9270   8.5772   7.1614   H         1 RES1   0.0000
    18 C10     15.6354   7.0353   6.8484   C.ar      1 RES1   0.0000
    19 H8      16.2901   6.3501   6.7832   H         1 RES1   0.0000
    20 C11     14.2882   6.7413   6.7239   C.ar      1 RES1   0.0000
    21 H9      14.0138   5.8431   6.5806   H         1 RES1   0.0000
    22 C12     13.3312   7.7512   6.8067   C.ar      1 RES1   0.0000
    23 H10     12.4151   7.5208   6.7066   H         1 RES1   0.0000
    24 C13     12.5786  10.9139   5.4378   C.ar      1 RES1   0.0000
    25 C14     13.0645  10.1815   4.3565   C.ar      1 RES1   0.0000
    26 H11     13.3763   9.2972   4.5093   H         1 RES1   0.0000
    27 C15     13.1126  10.6928   3.0566   C.ar      1 RES1   0.0000
    28 H12     13.4653  10.1622   2.3519   H         1 RES1   0.0000
    29 C16     12.6487  11.9682   2.7925   C.ar      1 RES1   0.0000
    30 H13     12.6940  12.3254   1.9133   H         1 RES1   0.0000
    31 C17     12.1162  12.7178   3.8296   C.ar      1 RES1   0.0000
    32 H14     11.7696  13.5857   3.6589   H         1 RES1   0.0000
    33 C18     12.0891  12.1990   5.1236   C.ar      1 RES1   0.0000
    34 H15     11.7263  12.7320   5.8212   H         1 RES1   0.0000
    35 C19     11.0444   9.7767   7.3687   C.ar      1 RES1   0.0000
    36 C20      9.8927  10.1431   6.6638   C.ar      1 RES1   0.0000
    37 H16      9.9869  10.6696   5.8788   H         1 RES1   0.0000
    38 C21      8.6073   9.7651   7.0691   C.ar      1 RES1   0.0000
    39 H17      7.8516  10.0420   6.5644   H         1 RES1   0.0000
    40 C22      8.4334   8.9903   8.2008   C.ar      1 RES1   0.0000
    41 H18      7.5615   8.7422   8.4848   H         1 RES1   0.0000
    42 C23      9.5498   8.5793   8.9168   C.ar      1 RES1   0.0000
    43 H19      9.4448   8.0343   9.6877   H         1 RES1   0.0000
    44 C24     10.8259   8.9659   8.5055   C.ar      1 RES1   0.0000
    45 H20     11.5765   8.6730   9.0089   H         1 RES1   0.0000
    46 B2      19.0081   6.8737  15.7351   B         2 RES2  -1.0000
    47 C25     19.0339   7.4861  14.1986   C.ar      2 RES2   0.0000
    48 C26     19.2805   6.7264  13.0443   C.ar      2 RES2   0.0000
    49 H21     19.5114   5.8104  13.1452   H         2 RES2   0.0000
    50 C27     19.2018   7.2556  11.7542   C.ar      2 RES2   0.0000
    51 H22     19.4036   6.7061  11.0060   H         2 RES2   0.0000
    52 C28     18.8315   8.5763  11.5573   C.ar      2 RES2   0.0000
    53 H23     18.7702   8.9393  10.6816   H         2 RES2   0.0000
    54 C29     18.5519   9.3580  12.6743   C.ar      2 RES2   0.0000
    55 H24     18.2834  10.2623  12.5619   H         2 RES2   0.0000
    56 C30     18.6629   8.8243  13.9555   C.ar      2 RES2   0.0000
    57 H25     18.4806   9.3870  14.6990   H         2 RES2   0.0000
    58 C31     17.4592   6.3893  16.0414   C.ar      2 RES2   0.0000
    59 C32     16.6583   5.7939  15.0555   C.ar      2 RES2   0.0000
    60 H26     17.0035   5.7219  14.1734   H         2 RES2   0.0000
    61 C33     15.3782   5.3028  15.3118   C.ar      2 RES2   0.0000
    62 H27     14.8741   4.9042  14.6122   H         2 RES2   0.0000
    63 C34     14.8399   5.3955  16.5879   C.ar      2 RES2   0.0000
    64 H28     13.9660   5.0697  16.7683   H         2 RES2   0.0000
    65 C35     15.6007   5.9726  17.5971   C.ar      2 RES2   0.0000
    66 H29     15.2464   6.0419  18.4758   H         2 RES2   0.0000
    67 C36     16.8816   6.4503  17.3251   C.ar      2 RES2   0.0000
    68 H30     17.3857   6.8325  18.0339   H         2 RES2   0.0000
    69 C37     19.5201   8.0230  16.8078   C.ar      2 RES2   0.0000
    70 C38     18.6934   9.0598  17.2675   C.ar      2 RES2   0.0000
    71 H31     17.7994   9.1027  16.9492   H         2 RES2   0.0000
    72 C39     19.1269  10.0309  18.1717   C.ar      2 RES2   0.0000
    73 H32     18.5273  10.7088  18.4606   H         2 RES2   0.0000
    74 C40     20.4260  10.0110  18.6499   C.ar      2 RES2   0.0000
    75 H33     20.7229  10.6684  19.2681   H         2 RES2   0.0000
    76 C41     21.2880   9.0149  18.2110   C.ar      2 RES2   0.0000
    77 H34     22.1884   8.9976  18.5133   H         2 RES2   0.0000
    78 C42     20.8305   8.0419  17.3275   C.ar      2 RES2   0.0000
    79 H35     21.4313   7.3558  17.0614   H         2 RES2   0.0000
    80 C43     19.9979   5.5756  15.9563   C.ar      2 RES2   0.0000
    81 C44     19.7958   4.7127  17.0493   C.ar      2 RES2   0.0000
    82 H36     18.9970   4.8001  17.5559   H         2 RES2   0.0000
    83 C45     20.7155   3.7372  17.4198   C.ar      2 RES2   0.0000
    84 H37     20.5440   3.1866  18.1748   H         2 RES2   0.0000
    85 C46     21.8825   3.5663  16.6895   C.ar      2 RES2   0.0000
    86 H38     22.5210   2.9118  16.9473   H         2 RES2   0.0000
    87 C47     22.1037   4.3664  15.5752   C.ar      2 RES2   0.0000
    88 H39     22.8820   4.2394  15.0454   H         2 RES2   0.0000
    89 C48     21.1812   5.3564  15.2356   C.ar      2 RES2   0.0000
    90 H40     21.3626   5.9066  14.4825   H         2 RES2   0.0000
    91 C49      8.7137  11.4815  10.8572   C.3       3 RES3   0.0000
    92 H41      8.7568  12.4588  10.9154   H         3 RES3   0.0000
    93 H42      7.7762  11.1963  10.8414   H         3 RES3   0.0000
    94 H43      9.1597  11.1831  10.0372   H         3 RES3   0.0000
    95 C50      8.9461   9.8974  12.8149   C.2       3 RES3   0.0000
    96 H44      8.1192   9.4319  12.7671   H         3 RES3   0.0000
    97 C51      9.9651   9.7085  13.7093   C.2       3 RES3   0.0000
    98 C52     10.2777   8.8049  14.7940   C.2       3 RES3   0.0000
    99 H45      9.6800   8.1241  15.0797   H         3 RES3   0.0000
   100 C53     11.8694   7.9820  16.3150   C.3       3 RES3   0.0000
   101 H46     12.2994   7.2323  15.8320   H         3 RES3   0.0000
   102 H47     11.0826   7.6221  16.7962   H         3 RES3   0.0000
   103 C54     12.8407   8.5491  17.3115   C.3       3 RES3   0.0000
   104 H48     13.0629   7.8508  17.9771   H         3 RES3   0.0000
   105 H49     12.4073   9.2980  17.7926   H         3 RES3   0.0000
   106 C55     14.1290   9.0512  16.6723   C.3       3 RES3   0.0000
   107 H50     14.8369   9.0650  17.3642   H         3 RES3   0.0000
   108 H51     14.4060   8.4038  15.9765   H         3 RES3   0.0000
   109 C56     13.9407  11.4108  17.1461   C.3       3 RES3   0.0000
   110 H52     13.9233  12.3150  16.7686   H         3 RES3   0.0000
   111 H53     14.7116  11.3214  17.7445   H         3 RES3   0.0000
   112 H54     13.1156  11.2514  17.6502   H         3 RES3   0.0000
   113 C57     15.3841  10.6178  15.3762   C.3       3 RES3   0.0000
   114 H55     15.5038   9.8947  14.7107   H         3 RES3   0.0000
   115 H56     16.0899  10.5058  16.0612   H         3 RES3   0.0000
   116 C58     15.6204  11.9568  14.6677   C.3       3 RES3   0.0000
   117 H57     16.5455  11.9647  14.3152   H         3 RES3   0.0000
   118 H58     15.5521  12.6816  15.3386   H         3 RES3   0.0000
   119 C59     14.6592  12.2732  13.5132   C.3       3 RES3   0.0000
   120 H59     14.8515  13.1711  13.1432   H         3 RES3   0.0000
   121 H60     14.7619  11.6060  12.7889   H         3 RES3   0.0000
   122 C60     12.7233  13.3371  14.3855   C.2       3 RES3   0.0000
   123 H61     13.0266  14.1870  14.0885   H         3 RES3   0.0000
   124 C61     11.5808  13.1723  15.2424   C.2       3 RES3   0.0000
   125 C62     10.6596  13.9504  15.8904   C.2       3 RES3   0.0000
   126 H62     10.5302  14.8879  15.8074   H         3 RES3   0.0000
   127 C63      8.9237  13.3888  17.6362   C.3       3 RES3   0.0000
   128 H63      8.3819  12.5856  17.7834   H         3 RES3   0.0000
   129 H64      8.3548  14.1075  17.2893   H         3 RES3   0.0000
   130 H65      9.3261  13.6713  18.4839   H         3 RES3   0.0000
   131 C64     13.6658   9.2886  12.3379   C.2       3 RES3   0.0000
   132 H66     13.1395   9.8728  11.8047   H         3 RES3   0.0000
   133 C65     14.6561   8.4660  10.2824   C.3       3 RES3   0.0000
   134 H67     14.3169   7.6199   9.9220   H         3 RES3   0.0000
   135 H68     15.6036   8.5627  10.0519   H         3 RES3   0.0000
   136 H69     14.1486   9.2112   9.8982   H         3 RES3   0.0000
   137 C66     15.3446   7.5474  12.5025   C.3       3 RES3   0.0000
   138 H70     16.2512   7.9125  12.5748   H         3 RES3   0.0000
   139 H71     15.3771   6.6800  12.0474   H         3 RES3   0.0000
   140 H72     14.9665   7.4318  13.3992   H         3 RES3   0.0000
   141 Fe1     12.4660  10.5741  14.6849   Fe        3 RES3   2.0000
   142 N1       9.3818  10.8946  12.0163   N.pl3     3 RES3   0.0000
   143 N2      10.6040  11.3303  12.3755   N.2       3 RES3   0.0000
   144 N3      10.9578  10.5948  13.4075   N.2       3 RES3   0.0000
   145 N4      11.4210   8.9909  15.3413   N.2       3 RES3   0.0000
   146 N5      14.0494  10.4168  16.0463   N.3       3 RES3   0.0000
   147 N6      13.3038  12.2285  14.0529   N.2       3 RES3   0.0000
   148 N7      11.4046  11.8795  15.6763   N.2       3 RES3   0.0000
   149 N8      10.4220  11.8207  16.5481   N.2       3 RES3   0.0000
   150 N9       9.9798  13.0940  16.6698   N.pl3     3 RES3   0.0000
   151 N10     14.5053   8.4717  11.7335   N.am      3 RES3   0.0000
   152 O1      13.5298   9.3304  13.5781   O.2       3 RES3   0.0000
@<TRIPOS>BOND
     1     1     2    1
     2     2     3   ar
     3     3     4    1
     4     5     3   ar
     5     6     5    1
     6     7     5   ar
     7     8     7    1
     8     9     7   ar
     9    10     9    1
    10    11     2   ar
    11    12    11    1
    12    13     1    1
    13    14    13   ar
    14    15    14    1
    15    16    14   ar
    16    17    16    1
    17    18    16   ar
    18    19    18    1
    19    20    18   ar
    20    21    20    1
    21    22    13   ar
    22    23    22    1
    23    24     1    1
    24    25    24   ar
    25    26    25    1
    26    27    25   ar
    27    28    27    1
    28    29    27   ar
    29    30    29    1
    30    31    29   ar
    31    32    31    1
    32    33    24   ar
    33    34    33    1
    34    35     1    1
    35    36    35   ar
    36    37    36    1
    37    38    36   ar
    38    39    38    1
    39    40    38   ar
    40    41    40    1
    41    42    40   ar
    42    43    42    1
    43    44    35   ar
    44    45    44    1
    45     9    11   ar
    46    20    22   ar
    47    31    33   ar
    48    42    44   ar
    49    46    47    1
    50    47    48   ar
    51    48    49    1
    52    50    48   ar
    53    51    50    1
    54    52    50   ar
    55    53    52    1
    56    54    52   ar
    57    55    54    1
    58    56    47   ar
    59    57    56    1
    60    58    46    1
    61    59    58   ar
    62    60    59    1
    63    61    59   ar
    64    62    61    1
    65    63    61   ar
    66    64    63    1
    67    65    63   ar
    68    66    65    1
    69    67    58   ar
    70    68    67    1
    71    69    46    1
    72    70    69   ar
    73    71    70    1
    74    72    70   ar
    75    73    72    1
    76    74    72   ar
    77    75    74    1
    78    76    74   ar
    79    77    76    1
    80    78    69   ar
    81    79    78    1
    82    80    46    1
    83    81    80   ar
    84    82    81    1
    85    83    81   ar
    86    84    83    1
    87    85    83   ar
    88    86    85    1
    89    87    85   ar
    90    88    87    1
    91    89    80   ar
    92    90    89    1
    93    54    56   ar
    94    65    67   ar
    95    76    78   ar
    96    87    89   ar
    97    91    92    1
    98    93    91    1
    99    94    91    1
   100    95    96    1
   101    97    95    2
   102    98    97    1
   103    99    98    1
   104   100   101    1
   105   102   100    1
   106   103   100    1
   107   104   103    1
   108   105   103    1
   109   106   103    1
   110   107   106    1
   111   108   106    1
   112   109   110    1
   113   111   109    1
   114   112   109    1
   115   113   114    1
   116   115   113    1
   117   116   113    1
   118   117   116    1
   119   118   116    1
   120   119   116    1
   121   120   119    1
   122   121   119    1
   123   122   123    1
   124   124   122    1
   125   125   124    2
   126   126   125    1
   127   127   128    1
   128   129   127    1
   129   130   127    1
   130   131   132    1
   131   133   134    1
   132   135   133    1
   133   136   133    1
   134   137   138    1
   135   139   137    1
   136   140   137    1
   137   141   144    1
   138   142    91    1
   139   143   142    1
   140   144    97    1
   141   145    98    2
   142   146   106    1
   143   147   119    1
   144   148   124    1
   145   149   148    2
   146   150   125    1
   147   151   131   am
   148   152   131    2
   149    95   142    1
   150   100   145    1
   151   109   146    1
   152   113   146    1
   153   122   147    2
   154   127   150    1
   155   133   151    1
   156   137   151    1
   157   141   145    1
   158   141   146    1
   159   141   147    1
   160   141   148    1
   161   141   152    1
   162   143   144    2
   163   149   150    1
@<TRIPOS>SUBSTRUCTURE
     1 RES1        1 GROUP             0 ****  ****    0  
     2 RES2       46 GROUP             0 ****  ****    0  
     3 RES3       91 GROUP             0 ****  ****    0  
@<TRIPOS>CRYSIN
   13.0300   13.0581   20.0065   76.5650   71.4950   62.0770     2     1
