@<TRIPOS>MOLECULE
TIJJEF01
    77    83     4     0     0
SMALL
USER_CHARGES
****
Generated from the CSD

@<TRIPOS>ATOM
     1 I1      14.1004  11.2978   4.9165   I         1 RES1   0.0000
     2 I2       8.2215   0.2008  -0.6294   I         1 RES1   0.0000
     3 Fe1      8.1366   6.6655   3.5169   Fe        1 RES1   1.0000
     4 O1       9.5686   7.6540   2.7337   O.3       1 RES1   0.0000
     5 O2       8.9689   4.9553   3.3086   O.3       1 RES1   0.0000
     6 N1       6.6916   5.7691   4.8228   N.ar      1 RES1   0.0000
     7 N2       8.8841   7.1491   5.4182   N.2       1 RES1   0.0000
     8 N3       6.8771   8.3823   3.4157   N.ar      1 RES1   0.0000
     9 N4       7.0031   6.2937   1.7836   N.2       1 RES1   0.0000
    10 C1       5.6333   5.0681   4.4512   C.ar      1 RES1   0.0000
    11 H1       5.4323   5.0008   3.5455   H         1 RES1   0.0000
    12 C2       4.7943   4.4153   5.3905   C.ar      1 RES1   0.0000
    13 H2       4.0449   3.9420   5.1066   H         1 RES1   0.0000
    14 C3       5.1003   4.4915   6.7015   C.ar      1 RES1   0.0000
    15 H3       4.5666   4.0505   7.3227   H         1 RES1   0.0000
    16 C4       6.2115   5.2250   7.1416   C.ar      1 RES1   0.0000
    17 C5       6.5885   5.3768   8.4935   C.ar      1 RES1   0.0000
    18 H4       6.0777   4.9812   9.1629   H         1 RES1   0.0000
    19 C6       7.6919   6.0945   8.8230   C.ar      1 RES1   0.0000
    20 H5       7.9275   6.1819   9.7187   H         1 RES1   0.0000
    21 C7       8.4856   6.7102   7.8380   C.ar      1 RES1   0.0000
    22 H6       9.2364   7.1974   8.0891   H         1 RES1   0.0000
    23 C8       8.1617   6.5960   6.5162   C.ar      1 RES1   0.0000
    24 C9       7.0043   5.8569   6.1542   C.ar      1 RES1   0.0000
    25 C10      9.9155   7.9025   5.6359   C.2       1 RES1   0.0000
    26 H7      10.1725   8.0170   6.5218   H         1 RES1   0.0000
    27 C11     10.6962   8.5763   4.6448   C.ar      1 RES1   0.0000
    28 C12     11.7515   9.3995   5.1043   C.ar      1 RES1   0.0000
    29 H8      11.9093   9.4685   6.0185   H         1 RES1   0.0000
    30 C13     12.5373  10.0886   4.2407   C.ar      1 RES1   0.0000
    31 C14     12.3095   9.9725   2.8540   C.ar      1 RES1   0.0000
    32 H9      12.8437  10.4493   2.2598   H         1 RES1   0.0000
    33 C15     11.3252   9.1765   2.3741   C.ar      1 RES1   0.0000
    34 H10     11.1998   9.1094   1.4552   H         1 RES1   0.0000
    35 C16     10.4821   8.4444   3.2425   C.ar      1 RES1   0.0000
    36 C17      6.8771   9.3974   4.2576   C.ar      1 RES1   0.0000
    37 H11      7.4394   9.3610   4.9970   H         1 RES1   0.0000
    38 C18      6.0670  10.5313   4.0856   C.ar      1 RES1   0.0000
    39 H12      6.0832  11.2204   4.7101   H         1 RES1   0.0000
    40 C19      5.2659  10.6060   3.0043   C.ar      1 RES1   0.0000
    41 H13      4.7422  11.3630   2.8701   H         1 RES1   0.0000
    42 C20      5.2125   9.5434   2.0711   C.ar      1 RES1   0.0000
    43 C21      4.4102   9.5276   0.9044   C.ar      1 RES1   0.0000
    44 H14      3.8477  10.2443   0.7169   H         1 RES1   0.0000
    45 C22      4.4616   8.4691   0.0601   C.ar      1 RES1   0.0000
    46 H15      3.9291   8.4751  -0.7020   H         1 RES1   0.0000
    47 C23      5.2914   7.3654   0.3007   C.ar      1 RES1   0.0000
    48 H16      5.3023   6.6537  -0.2972   H         1 RES1   0.0000
    49 C24      6.0936   7.3334   1.4216   C.ar      1 RES1   0.0000
    50 C25      6.0579   8.4339   2.3140   C.ar      1 RES1   0.0000
    51 C26      7.0985   5.2221   1.0572   C.2       1 RES1   0.0000
    52 H17      6.5940   5.1950   0.2766   H         1 RES1   0.0000
    53 C27      7.9065   4.0797   1.3470   C.ar      1 RES1   0.0000
    54 C28      7.7700   2.9803   0.4775   C.ar      1 RES1   0.0000
    55 H18      7.1915   3.0407  -0.2486   H         1 RES1   0.0000
    56 C29      8.4677   1.8362   0.6807   C.ar      1 RES1   0.0000
    57 C30      9.3691   1.7371   1.7632   C.ar      1 RES1   0.0000
    58 H19      9.8664   0.9615   1.8900   H         1 RES1   0.0000
    59 C31      9.5079   2.7869   2.6231   C.ar      1 RES1   0.0000
    60 H20     10.1027   2.7136   3.3335   H         1 RES1   0.0000
    61 C32      8.7806   3.9682   2.4667   C.ar      1 RES1   0.0000
    62 O3       2.3573   2.2340   4.6027   O.3       2 RES2  -1.0000
    63 O4       0.2417   2.1275   4.8758   O.2       2 RES2   0.0000
    64 O5       1.0689   2.2919   2.9117   O.2       2 RES2   0.0000
    65 N5       1.2045   2.2407   4.1205   N.pl3     2 RES2   0.0000
    66 O6       4.3915   1.9318   2.7313   O.3       3 RES3   0.0000
    67 H21      3.6842   1.7870   3.1202   H         3 RES3   0.0000
    68 C33      5.4313   1.3282   3.4241   C.3       3 RES3   0.0000
    69 H22      6.0983   1.0294   2.8020   H         3 RES3   0.0000
    70 H23      5.0928   0.5761   3.9160   H         3 RES3   0.0000
    71 H24      5.8197   1.9601   4.0324   H         3 RES3   0.0000
    72 O7       4.5070   4.0194   1.0067   O.3       4 RES4   0.0000
    73 H25      4.5729   3.4679   1.6103   H         4 RES4   0.0000
    74 C34      3.2112   4.1773   0.6831   C.3       4 RES4   0.0000
    75 H26      2.9873   3.5875  -0.0397   H         4 RES4   0.0000
    76 H27      3.0575   5.0863   0.4144   H         4 RES4   0.0000
    77 H28      2.6641   3.9726   1.4452   H         4 RES4   0.0000
@<TRIPOS>BOND
     1     1    30    1
     2     2    56    1
     3     3     4    1
     4     4    35    1
     5     5     3    1
     6     6     3    1
     7     7     3    1
     8     8     3    1
     9     9     3    1
    10    10     6   ar
    11    11    10    1
    12    12    10   ar
    13    13    12    1
    14    14    12   ar
    15    15    14    1
    16    16    14   ar
    17    17    16   ar
    18    18    17    1
    19    19    17   ar
    20    20    19    1
    21    21    19   ar
    22    22    21    1
    23    23     7    1
    24    24     6   ar
    25    25     7    2
    26    26    25    1
    27    27    25    1
    28    28    27   ar
    29    29    28    1
    30    30    28   ar
    31    31    30   ar
    32    32    31    1
    33    33    31   ar
    34    34    33    1
    35    35    27   ar
    36    36     8   ar
    37    37    36    1
    38    38    36   ar
    39    39    38    1
    40    40    38   ar
    41    41    40    1
    42    42    40   ar
    43    43    42   ar
    44    44    43    1
    45    45    43   ar
    46    46    45    1
    47    47    45   ar
    48    48    47    1
    49    49     9    1
    50    50     8   ar
    51    51     9    2
    52    52    51    1
    53    53    51    1
    54    54    53   ar
    55    55    54    1
    56    56    54   ar
    57    57    56   ar
    58    58    57    1
    59    59    57   ar
    60    60    59    1
    61    61     5    1
    62    16    24   ar
    63    21    23   ar
    64    23    24   ar
    65    33    35   ar
    66    42    50   ar
    67    47    49   ar
    68    49    50   ar
    69    53    61   ar
    70    59    61   ar
    71    62    65    1
    72    63    65    2
    73    64    65    2
    74    66    67    1
    75    68    66    1
    76    69    68    1
    77    70    68    1
    78    71    68    1
    79    72    73    1
    80    74    72    1
    81    75    74    1
    82    76    74    1
    83    77    74    1
@<TRIPOS>SUBSTRUCTURE
     1 RES1        1 GROUP             0 ****  ****    0  
     2 RES2       62 GROUP             0 ****  ****    0  
     3 RES3       66 GROUP             0 ****  ****    0  
     4 RES4       72 GROUP             0 ****  ****    0  
@<TRIPOS>CRYSIN
   11.9652   12.4538   12.8389   80.7420   69.6815   69.7944     2     1
