@<TRIPOS>MOLECULE
TIJJEF
    77    83     4     0     0
SMALL
USER_CHARGES
****
Generated from the CSD

@<TRIPOS>ATOM
     1 I1      14.1185  11.3399   4.9396   I         1 RES1   0.0000
     2 I2       8.2419   0.2299  -0.6164   I         1 RES1   0.0000
     3 Fe1      8.1550   6.6985   3.5325   Fe        1 RES1   1.0000
     4 O1       9.5943   7.6992   2.7692   O.3       1 RES1   0.0000
     5 O2       8.9795   4.9861   3.3122   O.3       1 RES1   0.0000
     6 N1       6.7049   5.7936   4.8540   N.ar      1 RES1   0.0000
     7 N2       8.9014   7.1924   5.4453   N.2       1 RES1   0.0000
     8 N3       6.8702   8.4139   3.4186   N.ar      1 RES1   0.0000
     9 N4       7.0155   6.3239   1.7933   N.2       1 RES1   0.0000
    10 C1       8.7926   4.0004   2.4693   C.ar      1 RES1   0.0000
    11 C2       5.6422   5.0972   4.4900   C.ar      1 RES1   0.0000
    12 H1       5.4346   5.0258   3.5869   H         1 RES1   0.0000
    13 C3       4.8140   4.4583   5.4453   C.ar      1 RES1   0.0000
    14 H2       4.0666   3.9785   5.1685   H         1 RES1   0.0000
    15 C4       5.1147   4.5481   6.7549   C.ar      1 RES1   0.0000
    16 H3       4.5770   4.1228   7.3836   H         1 RES1   0.0000
    17 C5       6.2315   5.2767   7.1745   C.ar      1 RES1   0.0000
    18 C6       6.6135   5.4320   8.5277   C.ar      1 RES1   0.0000
    19 H4       6.1124   5.0277   9.1989   H         1 RES1   0.0000
    20 C7       7.7104   6.1675   8.8554   C.ar      1 RES1   0.0000
    21 H5       7.9404   6.2786   9.7498   H         1 RES1   0.0000
    22 C8       8.5052   6.7662   7.8469   C.ar      1 RES1   0.0000
    23 H6       9.2659   7.2455   8.0841   H         1 RES1   0.0000
    24 C9       8.1691   6.6496   6.5397   C.ar      1 RES1   0.0000
    25 C10      7.0184   5.9037   6.1926   C.ar      1 RES1   0.0000
    26 C11      9.9332   7.9590   5.6497   C.2       1 RES1   0.0000
    27 H7      10.1862   8.0897   6.5343   H         1 RES1   0.0000
    28 C12     10.7090   8.6127   4.6629   C.ar      1 RES1   0.0000
    29 C13     11.7581   9.4455   5.1297   C.ar      1 RES1   0.0000
    30 H8      11.9023   9.5305   6.0444   H         1 RES1   0.0000
    31 C14     12.5568  10.1218   4.2638   C.ar      1 RES1   0.0000
    32 C15     12.3202  10.0140   2.8780   C.ar      1 RES1   0.0000
    33 H9      12.8483  10.4955   2.2821   H         1 RES1   0.0000
    34 C16     11.3310   9.2160   2.4052   C.ar      1 RES1   0.0000
    35 H10     11.1991   9.1461   1.4871   H         1 RES1   0.0000
    36 C17     10.5017   8.4932   3.2771   C.ar      1 RES1   0.0000
    37 C18      6.8508   9.4303   4.2675   C.ar      1 RES1   0.0000
    38 H11      7.3948   9.3913   5.0212   H         1 RES1   0.0000
    39 C19      6.0466  10.5594   4.0788   C.ar      1 RES1   0.0000
    40 H12      6.0640  11.2527   4.6986   H         1 RES1   0.0000
    41 C20      5.2496  10.6383   3.0002   C.ar      1 RES1   0.0000
    42 H13      4.7268  11.3942   2.8623   H         1 RES1   0.0000
    43 C21      5.2085   9.5591   2.0678   C.ar      1 RES1   0.0000
    44 C22      4.4193   9.5355   0.9094   C.ar      1 RES1   0.0000
    45 H14      3.8478  10.2461   0.7271   H         1 RES1   0.0000
    46 C23      4.4786   8.4895   0.0544   C.ar      1 RES1   0.0000
    47 H15      3.9525   8.4971  -0.7120   H         1 RES1   0.0000
    48 C24      5.3196   7.3927   0.3011   C.ar      1 RES1   0.0000
    49 H16      5.3431   6.6819  -0.2987   H         1 RES1   0.0000
    50 C25      6.1097   7.3666   1.4281   C.ar      1 RES1   0.0000
    51 C26      6.0627   8.4616   2.3254   C.ar      1 RES1   0.0000
    52 C27      7.0985   5.2420   1.0823   C.2       1 RES1   0.0000
    53 H17      6.5768   5.2037   0.3129   H         1 RES1   0.0000
    54 C28      7.9094   4.1095   1.3628   C.ar      1 RES1   0.0000
    55 C29      7.7714   3.0026   0.4849   C.ar      1 RES1   0.0000
    56 H18      7.1920   3.0588  -0.2402   H         1 RES1   0.0000
    57 C30      8.4819   1.8572   0.6977   C.ar      1 RES1   0.0000
    58 C31      9.3681   1.7635   1.7619   C.ar      1 RES1   0.0000
    59 H19      9.8613   0.9855   1.8881   H         1 RES1   0.0000
    60 C32      9.5160   2.8195   2.6289   C.ar      1 RES1   0.0000
    61 H20     10.1134   2.7443   3.3383   H         1 RES1   0.0000
    62 O3       8.5216  10.1659   7.1806   O.2       2 RES2   0.0000
    63 O4       6.4170  10.0666   7.4345   O.3       2 RES2  -1.0000
    64 O5       7.7043  10.0409   9.1372   O.2       2 RES2   0.0000
    65 N5       7.5547  10.0688   7.9303   N.pl3     2 RES2   0.0000
    66 O6       4.5108   4.0005   0.9976   O.3       3 RES3   0.0000
    67 H21      4.5587   3.5782   1.6987   H         3 RES3   0.0000
    68 C33      3.2096   4.2018   0.6796   C.3       3 RES3   0.0000
    69 H22      2.9508   3.5883  -0.0126   H         3 RES3   0.0000
    70 H23      3.0917   5.1021   0.3697   H         3 RES3   0.0000
    71 H24      2.6646   4.0558   1.4561   H         3 RES3   0.0000
    72 O7       4.3527   1.9048   2.7547   O.3       4 RES4   0.0000
    73 H25      4.3390   2.7120   2.8968   H         4 RES4   0.0000
    74 C34      5.4031   1.3290   3.4585   C.3       4 RES4   0.0000
    75 H26      6.1871   1.3090   2.9044   H         4 RES4   0.0000
    76 H27      5.1672   0.4331   3.7108   H         4 RES4   0.0000
    77 H28      5.5824   1.8464   4.2472   H         4 RES4   0.0000
@<TRIPOS>BOND
     1     1    31    1
     2     2    57    1
     3     3     4    1
     4     4    36    1
     5     5     3    1
     6     6     3    1
     7     7     3    1
     8     8     3    1
     9     9     3    1
    10    10     5    1
    11    11     6   ar
    12    12    11    1
    13    13    11   ar
    14    14    13    1
    15    15    13   ar
    16    16    15    1
    17    17    15   ar
    18    18    17   ar
    19    19    18    1
    20    20    18   ar
    21    21    20    1
    22    22    20   ar
    23    23    22    1
    24    24     7    1
    25    25     6   ar
    26    26     7    2
    27    27    26    1
    28    28    26    1
    29    29    28   ar
    30    30    29    1
    31    31    29   ar
    32    32    31   ar
    33    33    32    1
    34    34    32   ar
    35    35    34    1
    36    36    28   ar
    37    37     8   ar
    38    38    37    1
    39    39    37   ar
    40    40    39    1
    41    41    39   ar
    42    42    41    1
    43    43    41   ar
    44    44    43   ar
    45    45    44    1
    46    46    44   ar
    47    47    46    1
    48    48    46   ar
    49    49    48    1
    50    50     9    1
    51    51     8   ar
    52    52     9    2
    53    53    52    1
    54    54    10   ar
    55    55    54   ar
    56    56    55    1
    57    57    55   ar
    58    58    57   ar
    59    59    58    1
    60    60    10   ar
    61    61    60    1
    62    17    25   ar
    63    22    24   ar
    64    24    25   ar
    65    34    36   ar
    66    43    51   ar
    67    48    50   ar
    68    50    51   ar
    69    52    54    1
    70    58    60   ar
    71    62    65    2
    72    63    65    1
    73    64    65    2
    74    66    67    1
    75    68    66    1
    76    69    68    1
    77    70    68    1
    78    71    68    1
    79    72    73    1
    80    74    72    1
    81    75    74    1
    82    76    74    1
    83    77    74    1
@<TRIPOS>SUBSTRUCTURE
     1 RES1        1 GROUP             0 ****  ****    0  
     2 RES2       62 GROUP             0 ****  ****    0  
     3 RES3       66 GROUP             0 ****  ****    0  
     4 RES4       72 GROUP             0 ****  ****    0  
@<TRIPOS>CRYSIN
   12.0079   12.4717   12.8977   80.5400   69.8550   69.7950     2     1
