@<TRIPOS>MOLECULE
TIJJEF04
    77    83     4     0     0
SMALL
USER_CHARGES
****
Generated from the CSD

@<TRIPOS>ATOM
     1 I1      14.1356  11.3259   4.9180   I         1 RES1   0.0000
     2 I2       8.1792   0.2079  -0.6348   I         1 RES1   0.0000
     3 Fe1      8.1628   6.6850   3.5112   Fe        1 RES1   1.0000
     4 O1       9.6057   7.6657   2.7452   O.3       1 RES1   0.0000
     5 O2       8.9717   4.9652   3.2872   O.3       1 RES1   0.0000
     6 N1       6.7118   5.7835   4.8341   N.ar      1 RES1   0.0000
     7 N2       8.8970   7.1788   5.4254   N.2       1 RES1   0.0000
     8 N3       6.9109   8.4095   3.3930   N.ar      1 RES1   0.0000
     9 N4       7.0061   6.3171   1.7812   N.2       1 RES1   0.0000
    10 C1       5.6323   5.0841   4.4735   C.ar      1 RES1   0.0000
    11 H1       5.4107   5.0322   3.5610   H         1 RES1   0.0000
    12 C2       4.8228   4.4282   5.3966   C.ar      1 RES1   0.0000
    13 H2       4.0873   3.9207   5.1063   H         1 RES1   0.0000
    14 C3       5.1088   4.5301   6.7247   C.ar      1 RES1   0.0000
    15 H3       4.5640   4.0989   7.3586   H         1 RES1   0.0000
    16 C4       6.2171   5.2792   7.1417   C.ar      1 RES1   0.0000
    17 C5       6.5901   5.4421   8.5203   C.ar      1 RES1   0.0000
    18 H4       6.0699   5.0535   9.1999   H         1 RES1   0.0000
    19 C6       7.6889   6.1528   8.8316   C.ar      1 RES1   0.0000
    20 H5       7.9320   6.2457   9.7356   H         1 RES1   0.0000
    21 C7       8.4940   6.7687   7.8364   C.ar      1 RES1   0.0000
    22 H6       9.2474   7.2713   8.0881   H         1 RES1   0.0000
    23 C8       8.1765   6.6317   6.5071   C.ar      1 RES1   0.0000
    24 C9       7.0196   5.8980   6.1598   C.ar      1 RES1   0.0000
    25 C10      9.9325   7.9358   5.6393   C.2       1 RES1   0.0000
    26 H7      10.1862   8.0619   6.5351   H         1 RES1   0.0000
    27 C11     10.7263   8.5959   4.6430   C.ar      1 RES1   0.0000
    28 C12     11.7800   9.4187   5.1081   C.ar      1 RES1   0.0000
    29 H8      11.9377   9.4890   6.0322   H         1 RES1   0.0000
    30 C13     12.5719  10.1112   4.2391   C.ar      1 RES1   0.0000
    31 C14     12.3593   9.9858   2.8629   C.ar      1 RES1   0.0000
    32 H9      12.9088  10.4567   2.2631   H         1 RES1   0.0000
    33 C15     11.3592   9.1829   2.3762   C.ar      1 RES1   0.0000
    34 H10     11.2283   9.1132   1.4485   H         1 RES1   0.0000
    35 C16     10.5234   8.4606   3.2572   C.ar      1 RES1   0.0000
    36 C17      6.9254   9.4343   4.2355   C.ar      1 RES1   0.0000
    37 H11      7.5066   9.3964   4.9740   H         1 RES1   0.0000
    38 C18      6.1184  10.5719   4.0805   C.ar      1 RES1   0.0000
    39 H12      6.1396  11.2655   4.7139   H         1 RES1   0.0000
    40 C19      5.3028  10.6485   2.9951   C.ar      1 RES1   0.0000
    41 H13      4.7786  11.4161   2.8578   H         1 RES1   0.0000
    42 C20      5.2396   9.5700   2.0637   C.ar      1 RES1   0.0000
    43 C21      4.4241   9.5545   0.9339   C.ar      1 RES1   0.0000
    44 H14      3.8462  10.2768   0.7680   H         1 RES1   0.0000
    45 C22      4.4574   8.4992   0.0661   C.ar      1 RES1   0.0000
    46 H15      3.9189   8.5177  -0.7045   H         1 RES1   0.0000
    47 C23      5.2924   7.3756   0.3101   C.ar      1 RES1   0.0000
    48 H16      5.2934   6.6488  -0.2862   H         1 RES1   0.0000
    49 C24      6.0969   7.3586   1.4195   C.ar      1 RES1   0.0000
    50 C25      6.0854   8.4660   2.3245   C.ar      1 RES1   0.0000
    51 C26      7.0888   5.2313   1.0637   C.2       1 RES1   0.0000
    52 H17      6.5642   5.1994   0.2832   H         1 RES1   0.0000
    53 C27      7.8836   4.0978   1.3401   C.ar      1 RES1   0.0000
    54 C28      7.7478   2.9905   0.4603   C.ar      1 RES1   0.0000
    55 H18      7.1655   3.0545  -0.2746   H         1 RES1   0.0000
    56 C29      8.4399   1.8435   0.6586   C.ar      1 RES1   0.0000
    57 C30      9.3380   1.7427   1.7295   C.ar      1 RES1   0.0000
    58 H19      9.8265   0.9498   1.8564   H         1 RES1   0.0000
    59 C31      9.5119   2.8042   2.6033   C.ar      1 RES1   0.0000
    60 H20     10.1312   2.7327   3.3076   H         1 RES1   0.0000
    61 C32      8.7726   3.9813   2.4459   C.ar      1 RES1   0.0000
    62 O3       8.5478  10.1394   7.1489   O.2       2 RES2   0.0000
    63 O4       7.7053   9.9629   9.1032   O.2       2 RES2   0.0000
    64 O5       6.4154  10.0542   7.3917   O.3       2 RES2  -1.0000
    65 N5       7.5775  10.0299   7.8797   N.pl3     2 RES2   0.0000
    66 O6       4.5019   4.0503   0.9952   O.3       3 RES3   0.0000
    67 H21      4.5660   3.4797   1.5947   H         3 RES3   0.0000
    68 C33      3.2067   4.2287   0.6851   C.3       3 RES3   0.0000
    69 H22      2.9848   3.6972  -0.0956   H         3 RES3   0.0000
    70 H23      3.0463   5.1661   0.4940   H         3 RES3   0.0000
    71 H24      2.6539   3.9518   1.4324   H         3 RES3   0.0000
    72 O7       4.4112   1.9628   2.7127   O.3       4 RES4   0.0000
    73 H25      3.7569   2.0140   3.2203   H         4 RES4   0.0000
    74 C34      5.4613   1.3585   3.3750   C.3       4 RES4   0.0000
    75 H26      6.1861   1.1950   2.7518   H         4 RES4   0.0000
    76 H27      5.1629   0.5156   3.7520   H         4 RES4   0.0000
    77 H28      5.7719   1.9388   4.0876   H         4 RES4   0.0000
@<TRIPOS>BOND
     1     1    30    1
     2     2    56    1
     3     3     4    1
     4     4    35    1
     5     5     3    1
     6     6     3    1
     7     7     3    1
     8     8     3    1
     9     9     3    1
    10    10     6   ar
    11    11    10    1
    12    12    10   ar
    13    13    12    1
    14    14    12   ar
    15    15    14    1
    16    16    14   ar
    17    17    16   ar
    18    18    17    1
    19    19    17   ar
    20    20    19    1
    21    21    19   ar
    22    22    21    1
    23    23     7    1
    24    24     6   ar
    25    25     7    2
    26    26    25    1
    27    27    25    1
    28    28    27   ar
    29    29    28    1
    30    30    28   ar
    31    31    30   ar
    32    32    31    1
    33    33    31   ar
    34    34    33    1
    35    35    27   ar
    36    36     8   ar
    37    37    36    1
    38    38    36   ar
    39    39    38    1
    40    40    38   ar
    41    41    40    1
    42    42    40   ar
    43    43    42   ar
    44    44    43    1
    45    45    43   ar
    46    46    45    1
    47    47    45   ar
    48    48    47    1
    49    49     9    1
    50    50     8   ar
    51    51     9    2
    52    52    51    1
    53    53    51    1
    54    54    53   ar
    55    55    54    1
    56    56    54   ar
    57    57    56   ar
    58    58    57    1
    59    59    57   ar
    60    60    59    1
    61    61     5    1
    62    16    24   ar
    63    21    23   ar
    64    23    24   ar
    65    33    35   ar
    66    42    50   ar
    67    47    49   ar
    68    49    50   ar
    69    53    61   ar
    70    59    61   ar
    71    62    65    2
    72    63    65    2
    73    64    65    1
    74    66    67    1
    75    68    66    1
    76    69    68    1
    77    70    68    1
    78    71    68    1
    79    72    73    1
    80    74    72    1
    81    75    74    1
    82    76    74    1
    83    77    74    1
@<TRIPOS>SUBSTRUCTURE
     1 RES1        1 GROUP             0 ****  ****    0  
     2 RES2       62 GROUP             0 ****  ****    0  
     3 RES3       66 GROUP             0 ****  ****    0  
     4 RES4       72 GROUP             0 ****  ****    0  
@<TRIPOS>CRYSIN
   11.9290   12.4586   12.8272   80.3460   69.7700   69.4830     2     1
