@<TRIPOS>MOLECULE
TIJJEF07
    77    83     4     0     0
SMALL
USER_CHARGES
****
Generated from the CSD

@<TRIPOS>ATOM
     1 I1      12.2899  11.5477  12.4610   I         1 RES1   0.0000
     2 I2       6.6540   0.8034   7.0568   I         1 RES1   0.0000
     3 Fe1     12.6983   5.2009   8.3385   Fe        1 RES1   1.0000
     4 O1      11.7678   6.8393   8.3924   O.3       1 RES1   0.0000
     5 O2      11.3552   4.2537   9.2565   O.3       1 RES1   0.0000
     6 N1      13.6458   5.5335  10.0317   N.2       1 RES1   0.0000
     7 N2      13.8079   3.5395   8.3615   N.ar      1 RES1   0.0000
     8 N3      11.9193   4.8385   6.5669   N.2       1 RES1   0.0000
     9 N4      14.0989   6.1178   7.2295   N.ar      1 RES1   0.0000
    10 C1      11.8649   7.7875   9.3134   C.ar      1 RES1   0.0000
    11 C2      11.1144   8.9747   9.1510   C.ar      1 RES1   0.0000
    12 H1      10.5324   9.0529   8.4035   H         1 RES1   0.0000
    13 C3      11.1996  10.0086  10.0329   C.ar      1 RES1   0.0000
    14 H2      10.6795  10.7915   9.8905   H         1 RES1   0.0000
    15 C4      12.0500   9.9311  11.1531   C.ar      1 RES1   0.0000
    16 C5      12.7404   8.7827  11.3759   C.ar      1 RES1   0.0000
    17 H3      13.2827   8.7114  12.1529   H         1 RES1   0.0000
    18 C6      12.6712   7.6957  10.4845   C.ar      1 RES1   0.0000
    19 C7      13.4955   6.5632  10.7785   C.2       1 RES1   0.0000
    20 H4      13.9739   6.5768  11.5998   H         1 RES1   0.0000
    21 C8      14.5742   4.5064  10.3802   C.ar      1 RES1   0.0000
    22 C9      15.3967   4.4726  11.5004   C.ar      1 RES1   0.0000
    23 H5      15.3897   5.1945  12.1176   H         1 RES1   0.0000
    24 C10     16.2343   3.3735  11.7149   C.ar      1 RES1   0.0000
    25 H6      16.7842   3.3558  12.4902   H         1 RES1   0.0000
    26 C11     16.2835   2.3213  10.8366   C.ar      1 RES1   0.0000
    27 H7      16.8585   1.5841  11.0068   H         1 RES1   0.0000
    28 C12     15.4702   2.3371   9.6690   C.ar      1 RES1   0.0000
    29 C13     14.6247   3.4514   9.4663   C.ar      1 RES1   0.0000
    30 C14     15.4182   1.2944   8.7337   C.ar      1 RES1   0.0000
    31 H8      15.9534   0.5186   8.8526   H         1 RES1   0.0000
    32 C15     14.5904   1.4046   7.6444   C.ar      1 RES1   0.0000
    33 H9      14.5563   0.7083   6.9986   H         1 RES1   0.0000
    34 C16     13.7980   2.5414   7.4915   C.ar      1 RES1   0.0000
    35 H10     13.2298   2.6033   6.7328   H         1 RES1   0.0000
    36 C17     10.3896   3.5366   8.7326   C.ar      1 RES1   0.0000
    37 C18      9.5431   2.7918   9.6050   C.ar      1 RES1   0.0000
    38 H11      9.7009   2.8216  10.5408   H         1 RES1   0.0000
    39 C19      8.5168   2.0420   9.1285   C.ar      1 RES1   0.0000
    40 H12      7.9694   1.5624   9.7388   H         1 RES1   0.0000
    41 C20      8.2496   1.9608   7.7629   C.ar      1 RES1   0.0000
    42 C21      9.0251   2.6710   6.8858   C.ar      1 RES1   0.0000
    43 H13      8.8334   2.6348   5.9559   H         1 RES1   0.0000
    44 C22     10.0989   3.4527   7.3386   C.ar      1 RES1   0.0000
    45 C23     10.8498   4.1405   6.3393   C.2       1 RES1   0.0000
    46 H14     10.5440   4.0826   5.4415   H         1 RES1   0.0000
    47 C24     12.6378   5.4262   5.4847   C.ar      1 RES1   0.0000
    48 C25     12.3156   5.3708   4.1547   C.ar      1 RES1   0.0000
    49 H15     11.5470   4.8886   3.8720   H         1 RES1   0.0000
    50 C26     13.1209   6.0271   3.2088   C.ar      1 RES1   0.0000
    51 H16     12.8901   5.9736   2.2881   H         1 RES1   0.0000
    52 C27     14.2279   6.7409   3.5774   C.ar      1 RES1   0.0000
    53 H17     14.7435   7.1950   2.9220   H         1 RES1   0.0000
    54 C28     14.6013   6.7991   4.9430   C.ar      1 RES1   0.0000
    55 C29     13.7926   6.1244   5.8889   C.ar      1 RES1   0.0000
    56 C30     15.7224   7.4997   5.4384   C.ar      1 RES1   0.0000
    57 H18     16.2710   7.9959   4.8436   H         1 RES1   0.0000
    58 C31     16.0182   7.4654   6.7660   C.ar      1 RES1   0.0000
    59 H19     16.7886   7.9136   7.0975   H         1 RES1   0.0000
    60 C32     15.1791   6.7643   7.6397   C.ar      1 RES1   0.0000
    61 H20     15.3935   6.7508   8.5655   H         1 RES1   0.0000
    62 O3      16.2701   9.8145   9.2304   O.3       2 RES2   0.0000
    63 H21     16.9394   9.8566   8.7239   H         2 RES2   0.0000
    64 C33     15.1607  10.4846   8.6128   C.3       2 RES2   0.0000
    65 H22     14.8308   9.9483   7.8620   H         2 RES2   0.0000
    66 H23     15.4496  11.3621   8.2853   H         2 RES2   0.0000
    67 H24     14.4430  10.6021   9.2703   H         2 RES2   0.0000
    68 O4      16.1341   7.6573  10.8627   O.3       3 RES3   0.0000
    69 H25     16.0444   8.3660  10.4212   H         3 RES3   0.0000
    70 C34     17.4808   7.4943  11.2183   C.3       3 RES3   0.0000
    71 H26     18.0501   7.7296  10.4558   H         3 RES3   0.0000
    72 H27     17.6414   6.5615  11.4704   H         3 RES3   0.0000
    73 H28     17.6910   8.0792  11.9756   H         3 RES3   0.0000
    74 O5       8.4982   9.7520   7.1489   O.2       4 RES4   0.0000
    75 O6       7.6324   9.4230   9.1202   O.2       4 RES4   0.0000
    76 O7       6.3406   9.6576   7.3895   O.3       4 RES4  -1.0000
    77 N5       7.5049   9.5957   7.8969   N.pl3     4 RES4   0.0000
@<TRIPOS>BOND
     1     1    15    1
     2     2    41    1
     3     3     4    1
     4     4    10    1
     5     5     3    1
     6     6     3    1
     7     7     3    1
     8     8     3    1
     9     9     3    1
    10    10    11   ar
    11    11    12    1
    12    13    11   ar
    13    14    13    1
    14    15    13   ar
    15    16    15   ar
    16    17    16    1
    17    18    10   ar
    18    19     6    2
    19    20    19    1
    20    21     6    1
    21    22    21   ar
    22    23    22    1
    23    24    22   ar
    24    25    24    1
    25    26    24   ar
    26    27    26    1
    27    28    26   ar
    28    29     7   ar
    29    30    28   ar
    30    31    30    1
    31    32    30   ar
    32    33    32    1
    33    34     7   ar
    34    35    34    1
    35    36     5    1
    36    37    36   ar
    37    38    37    1
    38    39    37   ar
    39    40    39    1
    40    41    39   ar
    41    42    41   ar
    42    43    42    1
    43    44    36   ar
    44    45     8    2
    45    46    45    1
    46    47     8    1
    47    48    47   ar
    48    49    48    1
    49    50    48   ar
    50    51    50    1
    51    52    50   ar
    52    53    52    1
    53    54    52   ar
    54    55     9   ar
    55    56    54   ar
    56    57    56    1
    57    58    56   ar
    58    59    58    1
    59    60     9   ar
    60    61    60    1
    61    16    18   ar
    62    18    19    1
    63    21    29   ar
    64    28    29   ar
    65    32    34   ar
    66    42    44   ar
    67    44    45    1
    68    47    55   ar
    69    54    55   ar
    70    58    60   ar
    71    62    63    1
    72    64    62    1
    73    65    64    1
    74    66    64    1
    75    67    64    1
    76    68    69    1
    77    70    68    1
    78    71    70    1
    79    72    70    1
    80    73    70    1
    81    74    77    2
    82    75    77    2
    83    76    77    1
@<TRIPOS>SUBSTRUCTURE
     1 RES1        1 GROUP             0 ****  ****    0  
     2 RES2       62 GROUP             0 ****  ****    0  
     3 RES3       68 GROUP             0 ****  ****    0  
     4 RES4       74 GROUP             0 ****  ****    0  
@<TRIPOS>CRYSIN
   11.9612   12.2958   12.6524   82.2060   69.5470   69.3290     2     1
