@<TRIPOS>MOLECULE
TIJJEF08
    77    83     4     0     0
SMALL
USER_CHARGES
****
Generated from the CSD

@<TRIPOS>ATOM
     1 I1      12.6857  11.9515  12.6291   I         1 RES1   0.0000
     2 I2       6.6268   0.8870   7.0549   I         1 RES1   0.0000
     3 Fe1     12.6201   5.4982   8.4420   Fe        1 RES1   1.0000
     4 O1      11.8184   7.2219   8.6641   O.3       1 RES1   0.0000
     5 O2      11.1747   4.5269   9.2245   O.3       1 RES1   0.0000
     6 N1      13.7813   5.8497  10.1604   N.2       1 RES1   0.0000
     7 N2      13.8537   3.7565   8.5328   N.ar      1 RES1   0.0000
     8 N3      11.8662   5.0089   6.5365   N.2       1 RES1   0.0000
     9 N4      14.0665   6.3858   7.1236   N.ar      1 RES1   0.0000
    10 C1      12.0199   8.1971   9.5244   C.ar      1 RES1   0.0000
    11 C2      11.3021   9.4001   9.3752   C.ar      1 RES1   0.0000
    12 H1      10.6883   9.4941   8.6566   H         1 RES1   0.0000
    13 C3      11.4805  10.4374  10.2535   C.ar      1 RES1   0.0000
    14 H2      10.9862  11.2398  10.1313   H         1 RES1   0.0000
    15 C4      12.3766  10.3396  11.3298   C.ar      1 RES1   0.0000
    16 C5      13.0635   9.1672  11.5183   C.ar      1 RES1   0.0000
    17 H3      13.6529   9.0831  12.2585   H         1 RES1   0.0000
    18 C6      12.9060   8.0795  10.6234   C.ar      1 RES1   0.0000
    19 C7      13.6987   6.9089  10.9050   C.2       1 RES1   0.0000
    20 H4      14.2058   6.9132  11.7078   H         1 RES1   0.0000
    21 C8      14.6827   4.8058  10.5160   C.ar      1 RES1   0.0000
    22 C9      15.5074   4.7758  11.6114   C.ar      1 RES1   0.0000
    23 H5      15.5213   5.5129  12.2110   H         1 RES1   0.0000
    24 C10     16.3352   3.6636  11.8560   C.ar      1 RES1   0.0000
    25 H6      16.8916   3.6558  12.6260   H         1 RES1   0.0000
    26 C11     16.3522   2.5881  11.0004   C.ar      1 RES1   0.0000
    27 H7      16.9196   1.8479  11.1811   H         1 RES1   0.0000
    28 C12     15.5305   2.5813   9.8573   C.ar      1 RES1   0.0000
    29 C13     14.6884   3.7041   9.6175   C.ar      1 RES1   0.0000
    30 C14     15.4614   1.5153   8.9278   C.ar      1 RES1   0.0000
    31 H8      15.9897   0.7374   9.0613   H         1 RES1   0.0000
    32 C15     14.6414   1.6011   7.8419   C.ar      1 RES1   0.0000
    33 H9      14.6105   0.8974   7.2047   H         1 RES1   0.0000
    34 C16     13.8446   2.7447   7.6820   C.ar      1 RES1   0.0000
    35 H10     13.2710   2.7936   6.9269   H         1 RES1   0.0000
    36 C17     10.2580   3.7268   8.7273   C.ar      1 RES1   0.0000
    37 C18      9.4214   2.9976   9.6008   C.ar      1 RES1   0.0000
    38 H11      9.5600   3.0579  10.5382   H         1 RES1   0.0000
    39 C19      8.4184   2.2075   9.1199   C.ar      1 RES1   0.0000
    40 H12      7.8653   1.7304   9.7275   H         1 RES1   0.0000
    41 C20      8.1898   2.0888   7.7405   C.ar      1 RES1   0.0000
    42 C21      8.9842   2.7785   6.8611   C.ar      1 RES1   0.0000
    43 H13      8.8244   2.7068   5.9280   H         1 RES1   0.0000
    44 C22     10.0420   3.5958   7.3300   C.ar      1 RES1   0.0000
    45 C23     10.8234   4.2584   6.3325   C.2       1 RES1   0.0000
    46 H14     10.5543   4.1388   5.4289   H         1 RES1   0.0000
    47 C24     12.5948   5.5412   5.4400   C.ar      1 RES1   0.0000
    48 C25     12.2648   5.4164   4.1047   C.ar      1 RES1   0.0000
    49 H15     11.4975   4.9163   3.8521   H         1 RES1   0.0000
    50 C26     13.0582   6.0251   3.1155   C.ar      1 RES1   0.0000
    51 H16     12.8157   5.9255   2.2024   H         1 RES1   0.0000
    52 C27     14.1720   6.7562   3.4341   C.ar      1 RES1   0.0000
    53 H17     14.6906   7.1619   2.7488   H         1 RES1   0.0000
    54 C28     14.5449   6.9052   4.7932   C.ar      1 RES1   0.0000
    55 C29     13.7538   6.2842   5.7920   C.ar      1 RES1   0.0000
    56 C30     15.6627   7.6480   5.2216   C.ar      1 RES1   0.0000
    57 H18     16.2110   8.0908   4.5838   H         1 RES1   0.0000
    58 C31     15.9569   7.7331   6.5461   C.ar      1 RES1   0.0000
    59 H19     16.7124   8.2277   6.8397   H         1 RES1   0.0000
    60 C32     15.1284   7.0803   7.4756   C.ar      1 RES1   0.0000
    61 H20     15.3449   7.1439   8.3982   H         1 RES1   0.0000
    62 O3      16.3678  10.1282   9.2237   O.3       2 RES2   0.0000
    63 H21     17.0160  10.0949   8.6902   H         2 RES2   0.0000
    64 C33     15.2518  10.7658   8.5829   C.3       2 RES2   0.0000
    65 H22     14.9162  10.1905   7.8643   H         2 RES2   0.0000
    66 H23     15.5378  11.6245   8.2081   H         2 RES2   0.0000
    67 H24     14.5408  10.9162   9.2403   H         2 RES2   0.0000
    68 O4      16.2451   8.0575  10.9670   O.3       3 RES3   0.0000
    69 H25     16.1603   8.6784  10.4079   H         3 RES3   0.0000
    70 C34     17.6036   7.9030  11.2940   C.3       3 RES3   0.0000
    71 H26     18.1563   8.1882  10.5374   H         3 RES3   0.0000
    72 H27     17.7859   6.9612  11.4956   H         3 RES3   0.0000
    73 H28     17.8145   8.4513  12.0785   H         3 RES3   0.0000
    74 O5       8.6497   9.9772   7.0962   O.2       4 RES4   0.0000
    75 O6       7.7916   9.7419   9.0781   O.2       4 RES4   0.0000
    76 O7       6.4891   9.8702   7.3479   O.3       4 RES4  -1.0000
    77 N5       7.6607   9.8538   7.8479   N.pl3     4 RES4   0.0000
@<TRIPOS>BOND
     1     1    15    1
     2     2    41    1
     3     3     4    1
     4     4    10    1
     5     5     3    1
     6     6     3    1
     7     7     3    1
     8     8     3    1
     9     9     3    1
    10    10    11   ar
    11    11    12    1
    12    13    11   ar
    13    14    13    1
    14    15    13   ar
    15    16    15   ar
    16    17    16    1
    17    18    10   ar
    18    19     6    2
    19    20    19    1
    20    21     6    1
    21    22    21   ar
    22    23    22    1
    23    24    22   ar
    24    25    24    1
    25    26    24   ar
    26    27    26    1
    27    28    26   ar
    28    29     7   ar
    29    30    28   ar
    30    31    30    1
    31    32    30   ar
    32    33    32    1
    33    34     7   ar
    34    35    34    1
    35    36     5    1
    36    37    36   ar
    37    38    37    1
    38    39    37   ar
    39    40    39    1
    40    41    39   ar
    41    42    41   ar
    42    43    42    1
    43    44    36   ar
    44    45     8    2
    45    46    45    1
    46    47     8    1
    47    48    47   ar
    48    49    48    1
    49    50    48   ar
    50    51    50    1
    51    52    50   ar
    52    53    52    1
    53    54    52   ar
    54    55     9   ar
    55    56    54   ar
    56    57    56    1
    57    58    56   ar
    58    59    58    1
    59    60     9   ar
    60    61    60    1
    61    16    18   ar
    62    18    19    1
    63    21    29   ar
    64    28    29   ar
    65    32    34   ar
    66    42    44   ar
    67    44    45    1
    68    47    55   ar
    69    54    55   ar
    70    58    60   ar
    71    62    63    1
    72    64    62    1
    73    65    64    1
    74    66    64    1
    75    67    64    1
    76    68    69    1
    77    70    68    1
    78    71    70    1
    79    72    70    1
    80    73    70    1
    81    74    77    2
    82    75    77    2
    83    76    77    1
@<TRIPOS>SUBSTRUCTURE
     1 RES1        1 GROUP             0 ****  ****    0  
     2 RES2       62 GROUP             0 ****  ****    0  
     3 RES3       68 GROUP             0 ****  ****    0  
     4 RES4       74 GROUP             0 ****  ****    0  
@<TRIPOS>CRYSIN
   11.8742   12.3742   12.7752   80.5020   69.2120   68.9900     2     1
