@<TRIPOS>MOLECULE
TIJLEH01
    83    89     4     0     0
SMALL
USER_CHARGES
****
Generated from the CSD

@<TRIPOS>ATOM
     1 I1       3.1355   8.1352  -0.5572   I         1 RES1   0.0000
     2 I2      14.8038   9.4186   4.9326   I         1 RES1   0.0000
     3 Fe1      8.6895   5.1447   3.6156   Fe        1 RES1   1.0000
     4 O1       7.5174   6.6107   3.6129   O.3       1 RES1   0.0000
     5 O2      10.0450   6.0654   2.7036   O.3       1 RES1   0.0000
     6 N1       9.8175   3.5123   3.6096   N.ar      1 RES1   0.0000
     7 N2       8.0953   4.4497   1.8922   N.2       1 RES1   0.0000
     8 N3       7.3425   4.1236   4.6523   N.ar      1 RES1   0.0000
     9 N4       9.2583   5.7390   5.3774   N.2       1 RES1   0.0000
    10 C1      10.7000   3.1324   4.5058   C.ar      1 RES1   0.0000
    11 H1      10.8281   3.6721   5.2777   H         1 RES1   0.0000
    12 C2      11.4625   1.9558   4.3667   C.ar      1 RES1   0.0000
    13 H2      12.0890   1.7092   5.0364   H         1 RES1   0.0000
    14 C3      11.2919   1.1740   3.2612   C.ar      1 RES1   0.0000
    15 H3      11.8003   0.3780   3.1577   H         1 RES1   0.0000
    16 C4      10.3543   1.5545   2.2689   C.ar      1 RES1   0.0000
    17 C5      10.1442   0.8440   1.0624   C.ar      1 RES1   0.0000
    18 H4      10.6117   0.0335   0.8999   H         1 RES1   0.0000
    19 C6       9.2704   1.3265   0.1379   C.ar      1 RES1   0.0000
    20 H5       9.1507   0.8509  -0.6746   H         1 RES1   0.0000
    21 C7       8.5379   2.5125   0.3509   C.ar      1 RES1   0.0000
    22 H6       7.9249   2.8186  -0.3065   H         1 RES1   0.0000
    23 C8       8.7188   3.2261   1.5192   C.ar      1 RES1   0.0000
    24 C9       9.6374   2.7511   2.4782   C.ar      1 RES1   0.0000
    25 C10      7.2084   5.0076   1.1338   C.2       1 RES1   0.0000
    26 H7       7.0356   4.6020   0.2930   H         1 RES1   0.0000
    27 C11      6.4672   6.1879   1.4613   C.ar      1 RES1   0.0000
    28 C12      5.4728   6.5786   0.5417   C.ar      1 RES1   0.0000
    29 H8       5.3612   6.0834  -0.2622   H         1 RES1   0.0000
    30 C13      4.6670   7.6567   0.7842   C.ar      1 RES1   0.0000
    31 C14      4.8820   8.4218   1.9414   C.ar      1 RES1   0.0000
    32 H9       4.3535   9.1960   2.0990   H         1 RES1   0.0000
    33 C15      5.8494   8.0633   2.8475   C.ar      1 RES1   0.0000
    34 H10      5.9787   8.5990   3.6219   H         1 RES1   0.0000
    35 C16      6.6568   6.9273   2.6628   C.ar      1 RES1   0.0000
    36 C17      6.3988   3.3059   4.2079   C.ar      1 RES1   0.0000
    37 H11      6.3486   3.1270   3.2759   H         1 RES1   0.0000
    38 C18      5.4663   2.6910   5.0684   C.ar      1 RES1   0.0000
    39 H12      4.8151   2.0937   4.7188   H         1 RES1   0.0000
    40 C19      5.5037   2.9574   6.4004   C.ar      1 RES1   0.0000
    41 H13      4.8647   2.5620   6.9815   H         1 RES1   0.0000
    42 C20      6.4908   3.8202   6.9212   C.ar      1 RES1   0.0000
    43 C21      6.6268   4.1669   8.2815   C.ar      1 RES1   0.0000
    44 H14      6.0166   3.8183   8.9205   H         1 RES1   0.0000
    45 C22      7.6289   5.0010   8.6853   C.ar      1 RES1   0.0000
    46 H15      7.7116   5.2120   9.6074   H         1 RES1   0.0000
    47 C23      8.5431   5.5569   7.7731   C.ar      1 RES1   0.0000
    48 H16      9.2287   6.1391   8.0784   H         1 RES1   0.0000
    49 C24      8.4371   5.2525   6.4386   C.ar      1 RES1   0.0000
    50 C25      7.4014   4.3876   6.0003   C.ar      1 RES1   0.0000
    51 C26     10.2745   6.4993   5.6249   C.2       1 RES1   0.0000
    52 H17     10.4346   6.7372   6.5309   H         1 RES1   0.0000
    53 C27     11.1731   7.0064   4.6400   C.ar      1 RES1   0.0000
    54 C28     12.2648   7.7706   5.1090   C.ar      1 RES1   0.0000
    55 H18     12.3744   7.9071   6.0434   H         1 RES1   0.0000
    56 C29     13.1705   8.3188   4.2350   C.ar      1 RES1   0.0000
    57 C30     13.0095   8.1023   2.8537   C.ar      1 RES1   0.0000
    58 H19     13.6361   8.4784   2.2455   H         1 RES1   0.0000
    59 C31     11.9645   7.3590   2.3760   C.ar      1 RES1   0.0000
    60 H20     11.8720   7.2377   1.4379   H         1 RES1   0.0000
    61 C32     11.0166   6.7655   3.2464   C.ar      1 RES1   0.0000
    62 O3      11.8357   4.4705   7.2893   O.2       2 RES2   0.0000
    63 O4      11.4946   3.7399   9.2984   O.2       2 RES2   0.0000
    64 O5      11.0572   2.4779   7.6044   O.3       2 RES2  -1.0000
    65 N5      11.4506   3.5740   8.0735   N.pl3     2 RES2   0.0000
    66 O6       4.8304   3.2531   0.9492   O.3       3 RES3   0.0000
    67 H21      4.2060   3.3877   1.5019   H         3 RES3   0.0000
    68 C33      5.2520   0.9152   1.3727   C.3       3 RES3   0.0000
    69 H22      5.2269   0.0337   0.9455   H         3 RES3   0.0000
    70 H23      6.1749   1.1378   1.6177   H         3 RES3   0.0000
    71 H24      4.6947   0.9021   2.1790   H         3 RES3   0.0000
    72 C34      4.7245   1.9516   0.4136   C.3       3 RES3   0.0000
    73 H25      3.7749   1.7565   0.2117   H         3 RES3   0.0000
    74 H26      5.2327   1.9029  -0.4333   H         3 RES3   0.0000
    75 O7       2.8100   3.1123   2.8579   O.3       4 RES4   0.0000
    76 H27      2.6763   2.3744   3.2390   H         4 RES4   0.0000
    77 C35      2.4589   4.1813   3.7536   C.3       4 RES4   0.0000
    78 H28      1.4903   4.3763   3.6859   H         4 RES4   0.0000
    79 H29      2.6597   3.9203   4.6868   H         4 RES4   0.0000
    80 C36      3.2514   5.3937   3.3781   C.3       4 RES4   0.0000
    81 H30      3.0903   5.6127   2.4363   H         4 RES4   0.0000
    82 H31      2.9798   6.1497   3.9407   H         4 RES4   0.0000
    83 H32      4.2058   5.2144   3.5086   H         4 RES4   0.0000
@<TRIPOS>BOND
     1     1    30    1
     2     2    56    1
     3     3     4    1
     4     4    35    1
     5     5     3    1
     6     6     3    1
     7     7     3    1
     8     8     3    1
     9     9     3    1
    10    10     6   ar
    11    11    10    1
    12    12    10   ar
    13    13    12    1
    14    14    12   ar
    15    15    14    1
    16    16    14   ar
    17    17    16   ar
    18    18    17    1
    19    19    17   ar
    20    20    19    1
    21    21    19   ar
    22    22    21    1
    23    23     7    1
    24    24     6   ar
    25    25     7    2
    26    26    25    1
    27    27    25    1
    28    28    27   ar
    29    29    28    1
    30    30    28   ar
    31    31    30   ar
    32    32    31    1
    33    33    31   ar
    34    34    33    1
    35    35    27   ar
    36    36     8   ar
    37    37    36    1
    38    38    36   ar
    39    39    38    1
    40    40    38   ar
    41    41    40    1
    42    42    40   ar
    43    43    42   ar
    44    44    43    1
    45    45    43   ar
    46    46    45    1
    47    47    45   ar
    48    48    47    1
    49    49     9    1
    50    50     8   ar
    51    51     9    2
    52    52    51    1
    53    53    51    1
    54    54    53   ar
    55    55    54    1
    56    56    54   ar
    57    57    56   ar
    58    58    57    1
    59    59    57   ar
    60    60    59    1
    61    61     5    1
    62    16    24   ar
    63    21    23   ar
    64    23    24   ar
    65    33    35   ar
    66    42    50   ar
    67    47    49   ar
    68    49    50   ar
    69    53    61   ar
    70    59    61   ar
    71    62    65    2
    72    63    65    2
    73    64    65    1
    74    66    67    1
    75    68    69    1
    76    70    68    1
    77    71    68    1
    78    72    66    1
    79    73    72    1
    80    74    72    1
    81    68    72    1
    82    75    76    1
    83    77    75    1
    84    78    77    1
    85    79    77    1
    86    80    77    1
    87    81    80    1
    88    82    80    1
    89    83    80    1
@<TRIPOS>SUBSTRUCTURE
     1 RES1        1 GROUP             0 ****  ****    0  
     2 RES2       62 GROUP             0 ****  ****    0  
     3 RES3       66 GROUP             0 ****  ****    0  
     4 RES4       75 GROUP             0 ****  ****    0  
@<TRIPOS>CRYSIN
   12.0800   12.3092   12.9073   72.6155   82.7314   71.1357     2     1
