@<TRIPOS>MOLECULE
TILHAA
    75    81     3     0     0
SMALL
USER_CHARGES
****
Generated from the CSD

@<TRIPOS>ATOM
     1 U1       7.1992   4.1556   9.1885   U         1 RES1  -2.0000
     2 Cl1      5.4713   2.9280  10.7243   Cl        1 RES1   0.0000
     3 Cl1A     9.1256   3.2743  10.7243   Cl        1 RES1   0.0000
     4 Cl1B     6.9986   6.2659  10.7243   Cl        1 RES1   0.0000
     5 Cl1L     8.9257   5.3841   7.6545   Cl        1 RES1   0.0000
     6 Cl1M     5.2714   5.0378   7.6545   Cl        1 RES1   0.0000
     7 Cl1N     7.3984   2.0462   7.6545   Cl        1 RES1   0.0000
     8 Fe1     -0.0007   8.3125  11.2793   Fe        2 RES2   2.0000
     9 N1       1.6791   8.2814  12.3062   N.ar      2 RES2   0.0000
    10 C1       0.4716   6.2628   9.1717   C.ar      2 RES2   0.0000
    11 H1      -0.3477   6.5445   8.7805   H         2 RES2   0.0000
    12 N2       0.9354   6.9187  10.2513   N.ar      2 RES2   0.0000
    13 C2       1.1476   5.1885   8.6077   C.ar      2 RES2   0.0000
    14 H2       0.8098   4.7641   7.8266   H         2 RES2   0.0000
    15 C3       2.3173   4.7429   9.1946   C.ar      2 RES2   0.0000
    16 H3       2.7664   3.9761   8.8577   H         2 RES2   0.0000
    17 C4       2.8238   5.4367  10.2855   C.ar      2 RES2   0.0000
    18 H4       3.6381   5.1643  10.6910   H         2 RES2   0.0000
    19 C5       2.1307   6.5300  10.7753   C.ar      2 RES2   0.0000
    20 C6       2.6034   7.3864  11.8687   C.ar      2 RES2   0.0000
    21 C7       3.8962   7.3459  12.3859   C.ar      2 RES2   0.0000
    22 H5       4.5221   6.7079  12.0666   H         2 RES2   0.0000
    23 C8       2.0343   9.1167  13.3023   C.ar      2 RES2   0.0000
    24 H6       1.3821   9.7177  13.6436   H         2 RES2   0.0000
    25 C9       3.3045   9.1394  13.8495   C.ar      2 RES2   0.0000
    26 H7       3.5222   9.7538  14.5395   H         2 RES2   0.0000
    27 C10      4.2558   8.2474  13.3717   C.ar      2 RES2   0.0000
    28 H8       5.1412   8.2564  13.7180   H         2 RES2   0.0000
    29 N1A     -0.8129   9.7817  12.3062   N.ar      2 RES2   0.0000
    30 C1A      1.5390   9.7452   9.1717   C.ar      2 RES2   0.0000
    31 H1A      1.7046   8.8948   8.7805   H         2 RES2   0.0000
    32 N2A      0.7390   9.8189  10.2513   N.ar      2 RES2   0.0000
    33 C2A      2.1313  10.8678   8.6077   C.ar      2 RES2   0.0000
    34 H2A      2.6678  10.7875   7.8266   H         2 RES2   0.0000
    35 C3A      1.9324  12.1036   9.1946   C.ar      2 RES2   0.0000
    36 H3A      2.3719  12.8759   8.8577   H         2 RES2   0.0000
    37 C4A      1.0783  12.1952  10.2855   C.ar      2 RES2   0.0000
    38 H4A      0.9070  13.0367  10.6910   H         2 RES2   0.0000
    39 C5A      0.4781  11.0484  10.7753   C.ar      2 RES2   0.0000
    40 C6A     -0.5000  11.0296  11.8687   C.ar      2 RES2   0.0000
    41 C7A     -1.1113  12.1694  12.3859   C.ar      2 RES2   0.0000
    42 H5A     -0.8717  13.0305  12.0666   H         2 RES2   0.0000
    43 C8A     -1.7140   9.6716  13.3023   C.ar      2 RES2   0.0000
    44 H6A     -1.9083   8.8063  13.6436   H         2 RES2   0.0000
    45 C9A     -2.3687  10.7603  13.8495   C.ar      2 RES2   0.0000
    46 H7A     -3.0097  10.6416  14.5395   H         2 RES2   0.0000
    47 C10A    -2.0719  12.0300  13.3717   C.ar      2 RES2   0.0000
    48 H8A     -2.5224  12.7923  13.7180   H         2 RES2   0.0000
    49 N1B     -0.8662   6.8733  12.3062   N.ar      2 RES2   0.0000
    50 C1B     -2.0106   8.9283   9.1717   C.ar      2 RES2   0.0000
    51 H1B     -1.3569   9.4970   8.7805   H         2 RES2   0.0000
    52 N2B     -1.6744   8.1987  10.2513   N.ar      2 RES2   0.0000
    53 C2B     -3.2789   8.8801   8.6077   C.ar      2 RES2   0.0000
    54 H2B     -3.4776   9.3848   7.8266   H         2 RES2   0.0000
    55 C3B     -4.2497   8.0898   9.1946   C.ar      2 RES2   0.0000
    56 H3B     -5.1383   8.0844   8.8577   H         2 RES2   0.0000
    57 C4B     -3.9020   7.3044  10.2855   C.ar      2 RES2   0.0000
    58 H4B     -4.5451   6.7353  10.6910   H         2 RES2   0.0000
    59 C5B     -2.6087   7.3580  10.7753   C.ar      2 RES2   0.0000
    60 C6B     -2.1034   6.5204  11.8687   C.ar      2 RES2   0.0000
    61 C7B     -2.7849   5.4210  12.3859   C.ar      2 RES2   0.0000
    62 H5B     -3.6504   5.1980  12.0666   H         2 RES2   0.0000
    63 C8B     -0.3203   6.1481  13.3023   C.ar      2 RES2   0.0000
    64 H6B      0.5262   6.4124  13.6436   H         2 RES2   0.0000
    65 C9B     -0.9358   5.0366  13.8495   C.ar      2 RES2   0.0000
    66 H7B     -0.5125   4.5409  14.5395   H         2 RES2   0.0000
    67 C10B    -2.1839   4.6589  13.3717   C.ar      2 RES2   0.0000
    68 H8B     -2.6188   3.8876  13.7180   H         2 RES2   0.0000
    69 U2       0.0000   0.0000  13.7842   U         3 RES3  -2.0000
    70 Cl2      1.1284   1.8206  12.2593   Cl        3 RES3   0.0000
    71 Cl2A    -2.1409   0.0670  12.2593   Cl        3 RES3   0.0000
    72 Cl2B     1.0125  -1.8876  12.2593   Cl        3 RES3   0.0000
    73 Cl2I    -1.1284  -1.8206  15.3090   Cl        3 RES3   0.0000
    74 Cl2J     2.1409  -0.0670  15.3090   Cl        3 RES3   0.0000
    75 Cl2K    -1.0125   1.8876  15.3090   Cl        3 RES3   0.0000
@<TRIPOS>BOND
     1     1     2    1
     2     3     1    1
     3     4     1    1
     4     5     1    1
     5     6     1    1
     6     7     1    1
     7     8     9    1
     8     9    20   ar
     9    10    11    1
    10    12     8    1
    11    13    10   ar
    12    14    13    1
    13    15    13   ar
    14    16    15    1
    15    17    15   ar
    16    18    17    1
    17    19    12   ar
    18    20    19    1
    19    21    20   ar
    20    22    21    1
    21    23     9   ar
    22    24    23    1
    23    25    23   ar
    24    26    25    1
    25    27    21   ar
    26    28    27    1
    27    29     8    1
    28    30    31    1
    29    32     8    1
    30    33    30   ar
    31    34    33    1
    32    35    33   ar
    33    36    35    1
    34    37    35   ar
    35    38    37    1
    36    39    32   ar
    37    40    29   ar
    38    41    40   ar
    39    42    41    1
    40    43    29   ar
    41    44    43    1
    42    45    43   ar
    43    46    45    1
    44    47    41   ar
    45    48    47    1
    46    49     8    1
    47    50    51    1
    48    52     8    1
    49    53    50   ar
    50    54    53    1
    51    55    53   ar
    52    56    55    1
    53    57    55   ar
    54    58    57    1
    55    59    52   ar
    56    60    49   ar
    57    61    60   ar
    58    62    61    1
    59    63    49   ar
    60    64    63    1
    61    65    63   ar
    62    66    65    1
    63    67    61   ar
    64    68    67    1
    65    10    12   ar
    66    17    19   ar
    67    25    27   ar
    68    30    32   ar
    69    37    39   ar
    70    39    40    1
    71    45    47   ar
    72    50    52   ar
    73    57    59   ar
    74    59    60    1
    75    65    67   ar
    76    69    70    1
    77    71    69    1
    78    72    69    1
    79    73    69    1
    80    74    69    1
    81    75    69    1
@<TRIPOS>SUBSTRUCTURE
     1 RES1        1 GROUP             0 ****  ****    0  
     2 RES2        8 GROUP             0 ****  ****    0  
     3 RES3       69 GROUP             0 ****  ****    0  
@<TRIPOS>CRYSIN
   14.3970   14.3970   27.5683   90.0000   90.0000  120.0000   233     1
