@<TRIPOS>MOLECULE
TILREL
    87    91     4     0     0
SMALL
USER_CHARGES
****
Generated from the CSD

@<TRIPOS>ATOM
     1 Fe1      4.9957   2.7759   3.2797   Fe        1 RES1   2.0000
     2 O1       4.2130   1.5621   4.5439   O.3       1 RES1   0.0000
     3 N1       6.2647   1.9211   1.7103   N.ar      1 RES1   0.0000
     4 N2       5.2459   4.4250   1.7785   N.3       1 RES1   0.0000
     5 N3       4.6059   4.6097   4.5944   N.3       1 RES1   0.0000
     6 N4       6.8277   2.9994   4.5439   N.ar      1 RES1   0.0000
     7 N5       3.1255   2.7291   2.1129   N.ar      1 RES1   0.0000
     8 N6       2.0948   5.5720   6.8152   N.ar      1 RES1   0.0000
     9 C1       6.9032   2.8443   0.9527   C.ar      1 RES1   0.0000
    10 C2       7.7213   2.4812  -0.0969   C.ar      1 RES1   0.0000
    11 C3       7.9428   1.1540  -0.3535   C.ar      1 RES1   0.0000
    12 C4       7.3203   0.2155   0.4272   C.ar      1 RES1   0.0000
    13 C5       6.5013   0.6099   1.4373   C.ar      1 RES1   0.0000
    14 C6       5.7950  -0.3845   2.3259   C.3       1 RES1   0.0000
    15 C7       6.6353   4.2660   1.3377   C.3       1 RES1   0.0000
    16 C8       4.9647   5.7355   2.4337   C.3       1 RES1   0.0000
    17 C9       5.3256   5.7081   3.9038   C.3       1 RES1   0.0000
    18 C10      5.2540   4.2988   5.8843   C.3       1 RES1   0.0000
    19 C11      6.6076   3.6947   5.6877   C.ar      1 RES1   0.0000
    20 C12      7.5799   3.7921   6.6746   C.ar      1 RES1   0.0000
    21 C13      8.8062   3.1969   6.4576   C.ar      1 RES1   0.0000
    22 C14      9.0411   2.5119   5.2769   C.ar      1 RES1   0.0000
    23 C15      8.0124   2.4375   4.3692   C.ar      1 RES1   0.0000
    24 C16      4.3340   4.2114   0.6415   C.3       1 RES1   0.0000
    25 C17      3.0805   3.4918   1.0183   C.ar      1 RES1   0.0000
    26 C18      1.9501   3.5428   0.2198   C.ar      1 RES1   0.0000
    27 C19      0.8507   2.8013   0.5214   C.ar      1 RES1   0.0000
    28 C20      0.8884   2.0267   1.6516   C.ar      1 RES1   0.0000
    29 C21      2.0290   2.0188   2.4187   C.ar      1 RES1   0.0000
    30 C22      3.1552   4.8165   4.7364   C.3       1 RES1   0.0000
    31 C23      2.6874   5.9256   5.6536   C.ar      1 RES1   0.0000
    32 C24      2.7276   7.2588   5.3465   C.ar      1 RES1   0.0000
    33 C25      2.2231   8.1826   6.2255   C.ar      1 RES1   0.0000
    34 C26      1.6363   7.8018   7.3762   C.ar      1 RES1   0.0000
    35 C27      1.5616   6.4678   7.6806   C.ar      1 RES1   0.0000
    36 C28      0.8665   5.9237   8.8858   C.3       1 RES1   0.0000
    37 H1       3.4596   1.2175   5.2005   H         1 RES1   0.0000
    38 H2       4.7195   1.1838   4.4224   H         1 RES1   0.0000
    39 H5       8.1338   3.1509  -0.6415   H         1 RES1   0.0000
    40 H6       8.5236   0.8879  -1.0647   H         1 RES1   0.0000
    41 H7       7.4646  -0.7001   0.2593   H         1 RES1   0.0000
    42 H8       6.0303  -1.2642   2.0611   H         1 RES1   0.0000
    43 H9       4.8637  -0.2589   2.2522   H         1 RES1   0.0000
    44 H10      6.0675  -0.2448   3.2213   H         1 RES1   0.0000
    45 H11      7.2218   4.5159   2.0338   H         1 RES1   0.0000
    46 H12      6.7954   4.8282   0.5869   H         1 RES1   0.0000
    47 H13      4.0416   5.9409   2.3477   H         1 RES1   0.0000
    48 H14      5.4775   6.4134   2.0065   H         1 RES1   0.0000
    49 H15      6.2598   5.5766   3.9993   H         1 RES1   0.0000
    50 H16      5.0765   6.5396   4.2996   H         1 RES1   0.0000
    51 H17      4.7118   3.6959   6.3607   H         1 RES1   0.0000
    52 H18      5.3537   5.1021   6.3880   H         1 RES1   0.0000
    53 H19      7.3976   4.2699   7.4799   H         1 RES1   0.0000
    54 H20      9.4863   3.2519   7.1114   H         1 RES1   0.0000
    55 H21      9.8895   2.1075   5.1049   H         1 RES1   0.0000
    56 H22      8.1618   1.9594   3.5625   H         1 RES1   0.0000
    57 H23      4.7920   3.6979  -0.0136   H         1 RES1   0.0000
    58 H24      4.0973   5.0588   0.2866   H         1 RES1   0.0000
    59 H25      1.9344   4.1057  -0.5460   H         1 RES1   0.0000
    60 H26      0.0781   2.8102  -0.0409   H         1 RES1   0.0000
    61 H27      0.1387   1.5000   1.8973   H         1 RES1   0.0000
    62 H28      2.0310   1.4877   3.2076   H         1 RES1   0.0000
    63 H29      2.7829   4.0013   5.0640   H         1 RES1   0.0000
    64 H30      2.8051   5.0001   3.8765   H         1 RES1   0.0000
    65 H31      3.1010   7.5524   4.5180   H         1 RES1   0.0000
    66 H32      2.2870   9.1000   6.0194   H         1 RES1   0.0000
    67 H33      1.2843   8.4447   7.9713   H         1 RES1   0.0000
    68 H34      0.5332   6.6456   9.4045   H         1 RES1   0.0000
    69 H35      1.4690   5.4120   9.3909   H         1 RES1   0.0000
    70 H36      0.1346   5.3744   8.5992   H         1 RES1   0.0000
    71 P1       4.9578   5.5056  10.0983   P.3       2 RES2  -1.0000
    72 F1       5.2553   4.7191  11.3987   F         2 RES2   0.0000
    73 F2       6.2812   5.0672   9.4741   F         2 RES2   0.0000
    74 F3       5.7365   6.7126  10.6835   F         2 RES2   0.0000
    75 F4       3.7293   6.0576  10.7435   F         2 RES2   0.0000
    76 F5       4.2227   4.3376   9.5001   F         2 RES2   0.0000
    77 F6       4.6451   6.3038   8.7862   F         2 RES2   0.0000
    78 P2      10.1044   6.1575   2.8618   P.3       3 RES3  -1.0000
    79 F7      10.3325   4.7609   3.3373   F         3 RES3   0.0000
    80 F8       9.7297   5.6816   1.4209   F         3 RES3   0.0000
    81 F9      11.5990   6.1964   2.3736   F         3 RES3   0.0000
    82 F10     10.4853   6.7531   4.2518   F         3 RES3   0.0000
    83 F11      8.6201   6.1274   3.3605   F         3 RES3   0.0000
    84 F12      9.9090   7.6149   2.3450   F         3 RES3   0.0000
    85 O2       2.3329   0.7506   5.9730   O.3       4 RES4   0.0000
    86 H3       2.6084   1.7434   6.1013   H         4 RES4   0.0000
    87 H4       3.1664   0.7183   6.7565   H         4 RES4   0.0000
@<TRIPOS>BOND
     1     1     2    1
     2     2    37    1
     3     3     1    1
     4     4     1    1
     5     5     1    1
     6     6     1    1
     7     7     1    1
     8     8    31   ar
     9     9     3   ar
    10    10     9   ar
    11    11    10   ar
    12    12    11   ar
    13    13     3   ar
    14    14    13    1
    15    15     4    1
    16    16     4    1
    17    17     5    1
    18    18     5    1
    19    19     6   ar
    20    20    19   ar
    21    21    20   ar
    22    22    21   ar
    23    23     6   ar
    24    24     4    1
    25    25     7   ar
    26    26    25   ar
    27    27    26   ar
    28    28    27   ar
    29    29     7   ar
    30    30     5    1
    31    31    30    1
    32    32    31   ar
    33    33    32   ar
    34    34    33   ar
    35    35     8   ar
    36    36    35    1
    37    38     2    1
    38    39    10    1
    39    40    11    1
    40    41    12    1
    41    42    14    1
    42    43    14    1
    43    44    14    1
    44    45    15    1
    45    46    15    1
    46    47    16    1
    47    48    16    1
    48    49    17    1
    49    50    17    1
    50    51    18    1
    51    52    18    1
    52    53    20    1
    53    54    21    1
    54    55    22    1
    55    56    23    1
    56    57    24    1
    57    58    24    1
    58    59    26    1
    59    60    27    1
    60    61    28    1
    61    62    29    1
    62    63    30    1
    63    64    30    1
    64    65    32    1
    65    66    33    1
    66    67    34    1
    67    68    36    1
    68    69    36    1
    69    70    36    1
    70     9    15    1
    71    12    13   ar
    72    16    17    1
    73    18    19    1
    74    22    23   ar
    75    24    25    1
    76    28    29   ar
    77    34    35   ar
    78    71    72    1
    79    73    71    1
    80    74    71    1
    81    75    71    1
    82    76    71    1
    83    77    71    1
    84    78    79    1
    85    80    78    1
    86    81    78    1
    87    82    78    1
    88    83    78    1
    89    84    78    1
    90    85    86    1
    91    87    85    1
@<TRIPOS>SUBSTRUCTURE
     1 RES1        1 GROUP             0 ****  ****    0  
     2 RES2       71 GROUP             0 ****  ****    0  
     3 RES3       78 GROUP             0 ****  ****    0  
     4 RES4       85 GROUP             0 ****  ****    0  
@<TRIPOS>CRYSIN
   10.4850   13.1610   14.8530   69.3100   72.4200   66.3700     2     1
