@<TRIPOS>MOLECULE
TIQPUG
    96   102     5     0     0
SMALL
USER_CHARGES
****
Generated from the CSD

@<TRIPOS>ATOM
     1 Fe1      5.7072   3.5420   9.8701   Fe        1 RES1   2.0000
     2 N1       6.2456   5.3085  10.5817   N.3       1 RES1   0.0000
     3 C1       5.9296   6.3186   9.5254   C.3       1 RES1   0.0000
     4 C2       6.9688   6.3424   8.3623   C.3       1 RES1   0.0000
     5 C3       8.4187   6.4285   8.9190   C.3       1 RES1   0.0000
     6 O1       8.4603   7.5940   9.7017   O.3       1 RES1   0.0000
     7 H1       9.2104   7.7023  10.0083   H         1 RES1   0.0000
     8 O2       9.3879   6.4333   7.9170   O.3       1 RES1   0.0000
     9 H2       9.4646   7.2099   7.6631   H         1 RES1   0.0000
    10 C4       8.6422   5.1281   9.7329   C.3       1 RES1   0.0000
    11 C5       7.6957   5.1794  10.9596   C.3       1 RES1   0.0000
    12 C6       7.7943   3.9098  11.7523   C.ar      1 RES1   0.0000
    13 N2       7.0123   2.9103  11.2730   N.ar      1 RES1   0.0000
    14 C7       7.0313   1.7420  11.9440   C.ar      1 RES1   0.0000
    15 C8       7.7970   1.5379  13.0774   C.ar      1 RES1   0.0000
    16 C9       8.6069   2.5589  13.5420   C.ar      1 RES1   0.0000
    17 C10      8.6058   3.7683  12.8586   C.ar      1 RES1   0.0000
    18 H3       9.1320   4.4735  13.1490   H         1 RES1   0.0000
    19 H4       9.1438   2.4330  14.3010   H         1 RES1   0.0000
    20 H5       7.7735   0.7068  13.4981   H         1 RES1   0.0000
    21 H6       6.4867   1.0411  11.6290   H         1 RES1   0.0000
    22 H7       7.9408   5.9198  11.5226   H         1 RES1   0.0000
    23 C11      8.4484   3.8947   8.8364   C.3       1 RES1   0.0000
    24 N3       7.0551   3.8589   8.3145   N.3       1 RES1   0.0000
    25 C12      6.8784   5.0909   7.4928   C.3       1 RES1   0.0000
    26 H8       7.5777   5.1294   6.8266   H         1 RES1   0.0000
    27 H9       6.0306   5.0549   7.0394   H         1 RES1   0.0000
    28 C13      6.8783   2.7277   7.3639   C.3       1 RES1   0.0000
    29 C14      6.4289   1.4885   8.0565   C.ar      1 RES1   0.0000
    30 N4       5.6089   1.6549   9.1176   N.ar      1 RES1   0.0000
    31 C15      5.1201   0.5264   9.6778   C.ar      1 RES1   0.0000
    32 C16      5.4372  -0.7448   9.2274   C.ar      1 RES1   0.0000
    33 C17      6.2913  -0.8987   8.1472   C.ar      1 RES1   0.0000
    34 C18      6.7966   0.2462   7.5477   C.ar      1 RES1   0.0000
    35 H10      7.3746   0.2053   6.8041   H         1 RES1   0.0000
    36 H11      6.5398  -1.7589   7.8461   H         1 RES1   0.0000
    37 H12      5.0825  -1.4936   9.6610   H         1 RES1   0.0000
    38 H13      4.5590   0.6123  10.4322   H         1 RES1   0.0000
    39 H14      7.6810   2.5747   6.8546   H         1 RES1   0.0000
    40 H15      6.1683   2.9690   6.7351   H         1 RES1   0.0000
    41 H16      8.5865   3.0834   9.3473   H         1 RES1   0.0000
    42 H17      9.0672   3.9302   8.0963   H         1 RES1   0.0000
    43 C19     10.0811   5.0685  10.2613   C.2       1 RES1   0.0000
    44 O3      10.4087   6.2089  10.8767   O.3       1 RES1   0.0000
    45 C20     11.7276   6.2972  11.4720   C.3       1 RES1   0.0000
    46 H18     12.0431   7.1935  11.3732   H         1 RES1   0.0000
    47 H19     11.6587   6.0742  12.3927   H         1 RES1   0.0000
    48 H20     12.3374   5.7054  11.0203   H         1 RES1   0.0000
    49 O4      10.8038   4.1164  10.1545   O.2       1 RES1   0.0000
    50 C21      6.6752   7.6098   7.5426   C.2       1 RES1   0.0000
    51 O5       6.8127   7.3899   6.2384   O.3       1 RES1   0.0000
    52 C22      6.5393   8.5410   5.3920   C.3       1 RES1   0.0000
    53 H21      6.6876   8.2546   4.4832   H         1 RES1   0.0000
    54 H22      7.1294   9.2522   5.6110   H         1 RES1   0.0000
    55 H23      5.6288   8.7997   5.5083   H         1 RES1   0.0000
    56 O6       6.3581   8.6645   8.0317   O.2       1 RES1   0.0000
    57 C23      4.5736   5.9343   8.9615   C.ar      1 RES1   0.0000
    58 N5       4.3835   4.5901   8.8461   N.ar      1 RES1   0.0000
    59 C24      3.2693   4.1513   8.2413   C.ar      1 RES1   0.0000
    60 C25      2.3043   5.0198   7.7421   C.ar      1 RES1   0.0000
    61 C26      2.4857   6.3804   7.8886   C.ar      1 RES1   0.0000
    62 C27      3.6451   6.8528   8.5052   C.ar      1 RES1   0.0000
    63 H24      3.8107   7.7858   8.6116   H         1 RES1   0.0000
    64 H25      1.8425   6.9882   7.5977   H         1 RES1   0.0000
    65 H26      1.5436   4.6751   7.3139   H         1 RES1   0.0000
    66 H27      3.1638   3.2197   8.1541   H         1 RES1   0.0000
    67 H28      5.8783   7.2062   9.9037   H         1 RES1   0.0000
    68 C28      5.4622   5.6298  11.8288   C.3       1 RES1   0.0000
    69 C29      4.4881   4.5483  12.1924   C.ar      1 RES1   0.0000
    70 N6       4.3489   3.5233  11.3267   N.ar      1 RES1   0.0000
    71 C30      3.3425   2.6519  11.5443   C.ar      1 RES1   0.0000
    72 C31      2.5247   2.7041  12.6624   C.ar      1 RES1   0.0000
    73 C32      2.7258   3.7074  13.5930   C.ar      1 RES1   0.0000
    74 C33      3.7028   4.6593  13.3355   C.ar      1 RES1   0.0000
    75 H29      3.8318   5.3729  13.9220   H         1 RES1   0.0000
    76 H30      2.2117   3.7557  14.3739   H         1 RES1   0.0000
    77 H31      1.8529   2.0514  12.7811   H         1 RES1   0.0000
    78 H32      3.2101   1.9842  10.9139   H         1 RES1   0.0000
    79 H33      6.0645   5.7708  12.5664   H         1 RES1   0.0000
    80 H34      4.9668   6.4522  11.6776   H         1 RES1   0.0000
    81 F1       5.2533   8.3904  13.5127   F         2 RES2   0.0000
    82 B1       3.9212   8.6903  13.1794   B         2 RES2  -1.0000
    83 F2       3.7266   8.4236  11.8311   F         2 RES2   0.0000
    84 F3       3.6603  10.0131  13.4505   F         2 RES2   0.0000
    85 F4       3.0894   7.8703  13.9498   F         2 RES2   0.0000
    86 F5       8.0222   7.1588  13.5555   F         3 RES3   0.0000
    87 B2       8.4383   6.7207  14.7958   B         3 RES3  -1.0000
    88 F6       9.7915   6.4073  14.7060   F         3 RES3   0.0000
    89 F7       8.2262   7.7126  15.7373   F         3 RES3   0.0000
    90 F8       7.7340   5.5878  15.1467   F         3 RES3   0.0000
    91 O7       3.1757   0.9552   6.7845   O.3       4 RES4   0.0000
    92 H35      3.7994   0.9594   6.2197   H         4 RES4   0.0000
    93 H36      2.5356   1.3537   6.3896   H         4 RES4   0.0000
    94 O8       9.7873   8.9138   7.1447   O.3       5 RES5   0.0000
    95 H37     10.1732   9.2649   6.5147   H         5 RES5   0.0000
    96 H38      9.4448   9.4375   7.6687   H         5 RES5   0.0000
@<TRIPOS>BOND
     1     1     2    1
     2     2     3    1
     3     3     4    1
     4     4     5    1
     5     5     6    1
     6     6     7    1
     7     8     5    1
     8     9     8    1
     9    10     5    1
    10    11     2    1
    11    12    11    1
    12    13     1    1
    13    14    13   ar
    14    15    14   ar
    15    16    15   ar
    16    17    12   ar
    17    18    17    1
    18    19    16    1
    19    20    15    1
    20    21    14    1
    21    22    11    1
    22    23    10    1
    23    24     1    1
    24    25     4    1
    25    26    25    1
    26    27    25    1
    27    28    24    1
    28    29    28    1
    29    30     1    1
    30    31    30   ar
    31    32    31   ar
    32    33    32   ar
    33    34    29   ar
    34    35    34    1
    35    36    33    1
    36    37    32    1
    37    38    31    1
    38    39    28    1
    39    40    28    1
    40    41    23    1
    41    42    23    1
    42    43    10    1
    43    44    43    1
    44    45    44    1
    45    46    45    1
    46    47    45    1
    47    48    45    1
    48    49    43    2
    49    50     4    1
    50    51    50    1
    51    52    51    1
    52    53    52    1
    53    54    52    1
    54    55    52    1
    55    56    50    2
    56    57     3    1
    57    58     1    1
    58    59    58   ar
    59    60    59   ar
    60    61    60   ar
    61    62    57   ar
    62    63    62    1
    63    64    61    1
    64    65    60    1
    65    66    59    1
    66    67     3    1
    67    68     2    1
    68    69    68    1
    69    70     1    1
    70    71    70   ar
    71    72    71   ar
    72    73    72   ar
    73    74    69   ar
    74    75    74    1
    75    76    73    1
    76    77    72    1
    77    78    71    1
    78    79    68    1
    79    80    68    1
    80    10    11    1
    81    12    13   ar
    82    16    17   ar
    83    23    24    1
    84    24    25    1
    85    29    30   ar
    86    33    34   ar
    87    57    58   ar
    88    61    62   ar
    89    69    70   ar
    90    73    74   ar
    91    81    82    1
    92    82    83    1
    93    84    82    1
    94    85    82    1
    95    86    87    1
    96    87    88    1
    97    89    87    1
    98    90    87    1
    99    91    92    1
   100    93    91    1
   101    94    95    1
   102    96    94    1
@<TRIPOS>SUBSTRUCTURE
     1 RES1        1 GROUP             0 ****  ****    0  
     2 RES2       81 GROUP             0 ****  ****    0  
     3 RES3       86 GROUP             0 ****  ****    0  
     4 RES4       91 GROUP             0 ****  ****    0  
     5 RES5       94 GROUP             0 ****  ****    0  
@<TRIPOS>CRYSIN
   10.3903   18.1700   19.0790   90.0000  101.8530   90.0000    14     1
