@<TRIPOS>MOLECULE
TIQQUH
    85    91     3     0     0
SMALL
USER_CHARGES
****
Generated from the CSD

@<TRIPOS>ATOM
     1 Fe1      7.3860  11.1515  16.3817   Fe        1 RES1   1.0000
     2 O1       6.6830  11.8459  14.6775   O.3       1 RES1   0.0000
     3 S1       7.1996  11.7054  13.2667   S.o2      1 RES1   0.0000
     4 O2       8.0658  12.8564  12.9729   O.3       1 RES1  -1.0000
     5 O3       6.0602  11.6908  12.3635   O.2       1 RES1   0.0000
     6 O4       7.9536  10.4541  13.1931   O.2       1 RES1   0.0000
     7 N1       7.8766   9.0833  15.8182   N.3       1 RES1   0.0000
     8 C1       9.3231   8.8181  15.8157   C.3       1 RES1   0.0000
     9 C2       9.8588   8.7778  17.2525   C.3       1 RES1   0.0000
    10 C3       9.1657   7.6203  18.0179   C.3       1 RES1   0.0000
    11 O5       9.4536   6.4480  17.3172   O.3       1 RES1   0.0000
    12 O6       9.5775   7.5392  19.3575   O.3       1 RES1   0.0000
    13 H1      10.2773   7.1608  19.5777   H         1 RES1   0.0000
    14 C4       7.6372   7.9623  18.0124   C.3       1 RES1   0.0000
    15 C5       7.1819   7.9903  16.5372   C.3       1 RES1   0.0000
    16 H2       7.4012   7.1257  16.1264   H         1 RES1   0.0000
    17 H3       6.2193   8.1201  16.4934   H         1 RES1   0.0000
    18 C6       6.8990   6.8872  18.8145   C.2       1 RES1   0.0000
    19 O7       6.3063   5.9926  18.0316   O.3       1 RES1   0.0000
    20 C7       5.6333   4.9212  18.7498   C.3       1 RES1   0.0000
    21 H4       5.0374   4.5020  18.1200   H         1 RES1   0.0000
    22 H5       6.2913   4.2915  19.0606   H         1 RES1   0.0000
    23 H6       5.1412   5.3088  19.4901   H         1 RES1   0.0000
    24 O8       6.8387   6.8653  20.0209   O.2       1 RES1   0.0000
    25 C8       7.4012   9.2881  18.7817   C.3       1 RES1   0.0000
    26 N2       8.2366  10.4355  18.3084   N.3       1 RES1   0.0000
    27 C9       9.6663  10.0966  18.0721   C.3       1 RES1   0.0000
    28 C10     10.2823  11.2875  17.3507   C.ar      1 RES1   0.0000
    29 N3       9.4988  11.8364  16.3960   N.ar      1 RES1   0.0000
    30 C11      9.9542  12.9325  15.7469   C.ar      1 RES1   0.0000
    31 C12     11.1713  13.5078  16.0367   C.ar      1 RES1   0.0000
    32 C13     11.9715  12.9273  16.9918   C.ar      1 RES1   0.0000
    33 C14     11.5195  11.7908  17.6592   C.ar      1 RES1   0.0000
    34 H7      12.0351  11.3892  18.3119   H         1 RES1   0.0000
    35 H8      12.8035  13.3008  17.1941   H         1 RES1   0.0000
    36 H9      11.4492  14.2619  15.5842   H         1 RES1   0.0000
    37 H10      9.4252  13.2938  15.0754   H         1 RES1   0.0000
    38 H11     10.1099   9.9826  18.9479   H         1 RES1   0.0000
    39 C15      8.1545  11.5540  19.3064   C.3       1 RES1   0.0000
    40 C16      7.3543  12.7642  18.8645   C.ar      1 RES1   0.0000
    41 N4       7.0212  12.8939  17.5732   N.ar      1 RES1   0.0000
    42 C17      6.3666  14.0058  17.1754   C.ar      1 RES1   0.0000
    43 C18      5.9983  15.0003  18.0408   C.ar      1 RES1   0.0000
    44 C19      6.3197  14.8599  19.3817   C.ar      1 RES1   0.0000
    45 C20      7.0245  13.7358  19.7904   C.ar      1 RES1   0.0000
    46 H12      7.2740  13.6428  20.6830   H         1 RES1   0.0000
    47 H13      6.0753  15.5229  20.0032   H         1 RES1   0.0000
    48 H14      5.5446  15.7579  17.7322   H         1 RES1   0.0000
    49 H15      6.1624  14.0900  16.2703   H         1 RES1   0.0000
    50 H16      9.0535  11.8294  19.5423   H         1 RES1   0.0000
    51 H17      7.7310  11.1892  20.1095   H         1 RES1   0.0000
    52 C21      5.9380   9.6845  18.6393   C.ar      1 RES1   0.0000
    53 N5       5.6300  10.3439  17.5005   N.ar      1 RES1   0.0000
    54 C22      4.3409  10.6263  17.2692   C.ar      1 RES1   0.0000
    55 C23      3.3248  10.2632  18.1284   C.ar      1 RES1   0.0000
    56 C24      3.6562   9.6126  19.3025   C.ar      1 RES1   0.0000
    57 C25      4.9804   9.3267  19.5694   C.ar      1 RES1   0.0000
    58 H18      5.2433   8.8988  20.3660   H         1 RES1   0.0000
    59 H19      2.9883   9.3793  19.9114   H         1 RES1   0.0000
    60 H20      2.4375  10.4491  17.9303   H         1 RES1   0.0000
    61 H21      4.1334  11.0928  16.4767   H         1 RES1   0.0000
    62 H22      7.5853   9.1408  19.7279   H         1 RES1   0.0000
    63 C26     11.3655   8.4726  17.1295   C.2       1 RES1   0.0000
    64 O9      12.0016   8.6240  18.2846   O.3       1 RES1   0.0000
    65 C27     13.4347   8.4025  18.2306   C.3       1 RES1   0.0000
    66 H23     13.7896   8.5024  19.1273   H         1 RES1   0.0000
    67 H24     13.6004   7.5063  17.9115   H         1 RES1   0.0000
    68 H25     13.8498   9.0461  17.6550   H         1 RES1   0.0000
    69 O10     11.8978   8.1464  16.1055   O.2       1 RES1   0.0000
    70 H26      9.7767   9.5301  15.3152   H         1 RES1   0.0000
    71 H27      9.4871   7.9535  15.3882   H         1 RES1   0.0000
    72 H28      9.2829   5.6911  17.5758   H         1 RES1   0.0000
    73 H29      7.6088   9.0145  14.9648   H         1 RES1   0.0000
    74 O11     11.4575   5.5718  19.6048   O.3       2 RES2   0.0000
    75 C28     12.5558   5.2807  20.3139   C.3       2 RES2   0.0000
    76 H30     12.7466   4.3266  20.2221   H         2 RES2   0.0000
    77 H31     12.4001   5.5052  21.2607   H         2 RES2   0.0000
    78 H32     13.3476   5.8033  19.9948   H         2 RES2   0.0000
    79 H33     10.9185   4.9843  19.4630   H         2 RES2   0.0000
    80 O12      9.1808   9.9248  10.7773   O.3       3 RES3   0.0000
    81 C29      9.3030   8.7181   9.8744   C.3       3 RES3   0.0000
    82 H34      8.8208  10.1177  11.4885   H         3 RES3   0.0000
    83 H35     10.1785   8.7252   9.5073   H         3 RES3   0.0000
    84 H36      9.1958   7.9535  10.4270   H         3 RES3   0.0000
    85 H37      8.6635   8.6918   9.1716   H         3 RES3   0.0000
@<TRIPOS>BOND
     1     1     2    1
     2     2     3    1
     3     3     4    1
     4     5     3    2
     5     6     3    2
     6     7     1    1
     7     8     7    1
     8     9     8    1
     9    10     9    1
    10    11    10    1
    11    12    10    1
    12    13    12    1
    13    14    10    1
    14    15     7    1
    15    16    15    1
    16    17    15    1
    17    18    14    1
    18    19    18    1
    19    20    19    1
    20    21    20    1
    21    22    20    1
    22    23    20    1
    23    24    18    2
    24    25    14    1
    25    26     1    1
    26    27     9    1
    27    28    27    1
    28    29     1    1
    29    30    29   ar
    30    31    30   ar
    31    32    31   ar
    32    33    28   ar
    33    34    33    1
    34    35    32    1
    35    36    31    1
    36    37    30    1
    37    38    27    1
    38    39    26    1
    39    40    39    1
    40    41     1    1
    41    42    41   ar
    42    43    42   ar
    43    44    43   ar
    44    45    40   ar
    45    46    45    1
    46    47    44    1
    47    48    43    1
    48    49    42    1
    49    50    39    1
    50    51    39    1
    51    52    25    1
    52    53     1    1
    53    54    53   ar
    54    55    54   ar
    55    56    55   ar
    56    57    52   ar
    57    58    57    1
    58    59    56    1
    59    60    55    1
    60    61    54    1
    61    62    25    1
    62    63     9    1
    63    64    63    1
    64    65    64    1
    65    66    65    1
    66    67    65    1
    67    68    65    1
    68    69    63    2
    69    70     8    1
    70    71     8    1
    71    72    11    1
    72    73     7    1
    73    14    15    1
    74    25    26    1
    75    26    27    1
    76    28    29   ar
    77    32    33   ar
    78    40    41   ar
    79    44    45   ar
    80    52    53   ar
    81    56    57   ar
    82    74    75    1
    83    75    76    1
    84    77    75    1
    85    78    75    1
    86    79    74    1
    87    80    81    1
    88    81    83    1
    89    82    80    1
    90    84    81    1
    91    85    81    1
@<TRIPOS>SUBSTRUCTURE
     1 RES1        1 GROUP             0 ****  ****    0  
     2 RES2       74 GROUP             0 ****  ****    0  
     3 RES3       80 GROUP             0 ****  ****    0  
@<TRIPOS>CRYSIN
   16.7410   17.5380   20.8540   90.0000   90.0000   90.0000    61     1
