@<TRIPOS>MOLECULE
TIQQAN
    96   100     5     0     0
SMALL
USER_CHARGES
****
Generated from the CSD

@<TRIPOS>ATOM
     1 Fe1     10.6993   5.3311   4.0704   Fe        1 RES1   2.0000
     2 N1      11.5432   5.9925   5.7259   N.ar      1 RES1   0.0000
     3 C1      12.5812   6.8316   5.4936   C.ar      1 RES1   0.0000
     4 C2      13.4228   7.2656   6.4957   C.ar      1 RES1   0.0000
     5 C3      13.1822   6.8468   7.8008   C.ar      1 RES1   0.0000
     6 C4      12.1114   6.0023   8.0451   C.ar      1 RES1   0.0000
     7 C5      11.3252   5.5842   6.9908   C.ar      1 RES1   0.0000
     8 H1      10.6103   4.9984   7.1528   H         1 RES1   0.0000
     9 H2      11.9138   5.7239   8.9034   H         1 RES1   0.0000
    10 H3      13.7238   7.1477   8.5050   H         1 RES1   0.0000
    11 H4      14.1342   7.8293   6.3036   H         1 RES1   0.0000
    12 C6      12.6326   7.3507   4.0748   C.3       1 RES1   0.0000
    13 N2      12.2205   6.2078   3.1884   N.3       1 RES1   0.0000
    14 C7      11.7585   6.5510   1.8081   C.3       1 RES1   0.0000
    15 C8      10.8200   7.7899   1.7689   C.3       1 RES1   0.0000
    16 C9      11.5382   8.9704   2.4849   C.3       1 RES1   0.0000
    17 C10     11.6659   8.5683   3.9703   C.3       1 RES1   0.0000
    18 C11     12.2630   9.7134   4.8103   C.2       1 RES1   0.0000
    19 O1      13.5334   9.9340   4.5050   O.3       1 RES1   0.0000
    20 C12     14.1827  10.9898   5.2532   C.3       1 RES1   0.0000
    21 H5      15.1216  10.9597   5.0455   H         1 RES1   0.0000
    22 H6      13.7993  11.8335   4.9841   H         1 RES1   0.0000
    23 H7      14.0420  10.8542   6.1965   H         1 RES1   0.0000
    24 O2      11.6444  10.3238   5.6418   O.2       1 RES1   0.0000
    25 C13     10.2723   8.2769   4.5386   C.3       1 RES1   0.0000
    26 N3       9.6784   7.1094   3.8287   N.3       1 RES1   0.0000
    27 C14      9.4620   7.5153   2.4235   C.3       1 RES1   0.0000
    28 H8       8.9290   8.3250   2.3803   H         1 RES1   0.0000
    29 H9       9.0022   6.8029   1.9479   H         1 RES1   0.0000
    30 H10      9.7061   9.0550   4.4158   H         1 RES1   0.0000
    31 H11     10.3353   8.0865   5.4819   H         1 RES1   0.0000
    32 O3      10.7059  10.0928   2.2927   O.3       1 RES1   0.0000
    33 H12     11.0933  10.7794   2.5815   H         1 RES1   0.0000
    34 O4      12.8203   9.1848   1.9727   O.3       1 RES1   0.0000
    35 H13     12.7552   9.3367   1.1562   H         1 RES1   0.0000
    36 C15     10.6595   8.1723   0.3018   C.2       1 RES1   0.0000
    37 O5       9.4120   8.1123  -0.1283   O.3       1 RES1   0.0000
    38 C16      9.2245   8.4263  -1.5403   C.3       1 RES1   0.0000
    39 H14      8.3346   8.1830  -1.8173   H         1 RES1   0.0000
    40 H15      9.3837   9.3756  -1.6396   H         1 RES1   0.0000
    41 H16      9.8718   7.9471  -2.0694   H         1 RES1   0.0000
    42 O6      11.5945   8.4762  -0.4000   O.2       1 RES1   0.0000
    43 C17     11.0238   5.3484   1.2882   C.ar      1 RES1   0.0000
    44 N4      10.3145   4.6914   2.2403   N.ar      1 RES1   0.0000
    45 C18      9.5872   3.6294   1.8669   C.ar      1 RES1   0.0000
    46 C19      9.4831   3.2217   0.5409   C.ar      1 RES1   0.0000
    47 C20     10.1873   3.9188  -0.4311   C.ar      1 RES1   0.0000
    48 C21     10.9808   4.9819  -0.0431   C.ar      1 RES1   0.0000
    49 H17     11.4907   5.4482  -0.6715   H         1 RES1   0.0000
    50 H18     10.1252   3.6753  -1.3274   H         1 RES1   0.0000
    51 H19      8.9387   2.5032   0.3044   H         1 RES1   0.0000
    52 H20      9.1176   3.1606   2.5332   H         1 RES1   0.0000
    53 H21     12.5361   6.7277   1.2437   H         1 RES1   0.0000
    54 C22     13.3580   5.2298   3.0728   C.3       1 RES1   0.0000
    55 C23     13.1156   3.9668   3.8383   C.ar      1 RES1   0.0000
    56 N5      11.8599   3.7631   4.2791   N.ar      1 RES1   0.0000
    57 C24     11.5710   2.5947   4.8731   C.ar      1 RES1   0.0000
    58 C25     12.5263   1.6061   5.0625   C.ar      1 RES1   0.0000
    59 C26     13.8249   1.8455   4.6457   C.ar      1 RES1   0.0000
    60 C27     14.1215   3.0329   4.0239   C.ar      1 RES1   0.0000
    61 H22     14.9839   3.2182   3.7221   H         1 RES1   0.0000
    62 H23     14.4908   1.2001   4.7751   H         1 RES1   0.0000
    63 H24     12.2967   0.8028   5.4596   H         1 RES1   0.0000
    64 H25     10.6933   2.4541   5.1644   H         1 RES1   0.0000
    65 H26     14.1755   5.6384   3.3942   H         1 RES1   0.0000
    66 H27     13.4648   4.9887   2.1269   H         1 RES1   0.0000
    67 H28     13.5440   7.6347   3.8475   H         1 RES1   0.0000
    68 N6       9.1414   4.5485   4.8826   N.1       1 RES1   0.0000
    69 C28      8.1589   4.1664   5.3055   C.1       1 RES1   0.0000
    70 C29      6.8959   3.6701   5.8398   C.3       1 RES1   0.0000
    71 H29      6.6956   2.8296   5.4126   H         1 RES1   0.0000
    72 H30      6.9850   3.5478   6.7988   H         1 RES1   0.0000
    73 H31      6.1926   4.3117   5.6504   H         1 RES1   0.0000
    74 H32      8.8586   6.9801   4.1689   H         1 RES1   0.0000
    75 F1      12.6408  14.3255   4.0761   F         2 RES2   0.0000
    76 B1      11.6109  13.8219   3.2909   B         2 RES2  -1.0000
    77 F2      10.3918  14.1467   3.8527   F         2 RES2   0.0000
    78 F3      11.6956  14.3601   2.0290   F         2 RES2   0.0000
    79 F4      11.7349  12.4413   3.2099   F         2 RES2   0.0000
    80 F5       4.9364   6.0372   4.8034   F         3 RES3   0.0000
    81 B2       5.4856   7.1666   4.2028   B         3 RES3  -1.0000
    82 F6       4.8668   7.3545   2.9814   F         3 RES3   0.0000
    83 F7       5.2572   8.2677   5.0138   F         3 RES3   0.0000
    84 F8       6.8364   6.9498   4.0474   F         3 RES3   0.0000
    85 N7       1.7827   2.2042   0.8505   N.1       4 RES4   0.0000
    86 C30      2.7839   1.5752   0.8048   C.1       4 RES4   0.0000
    87 C31      4.0259   0.8664   0.7473   C.3       4 RES4   0.0000
    88 H33      4.3924   0.8865  -0.1529   H         4 RES4   0.0000
    89 H34      3.8847  -0.0607   1.0203   H         4 RES4   0.0000
    90 H35      4.6578   1.2624   1.3679   H         4 RES4   0.0000
    91 N8       3.2096   5.7079  10.7207   N.1       5 RES5   0.0000
    92 C32      4.2818   5.2675  10.8657   C.1       5 RES5   0.0000
    93 C33      5.5537   4.7823  11.0735   C.3       5 RES5   0.0000
    94 H36      5.4911   4.1754  11.8273   H         5 RES5   0.0000
    95 H37      5.8447   4.3209  10.2752   H         5 RES5   0.0000
    96 H38      6.1480   5.5337  11.2733   H         5 RES5   0.0000
@<TRIPOS>BOND
     1     1     2    1
     2     2     3   ar
     3     3     4   ar
     4     4     5   ar
     5     5     6   ar
     6     6     7   ar
     7     7     2   ar
     8     8     7    1
     9     9     6    1
    10    10     5    1
    11    11     4    1
    12    12     3    1
    13    13     1    1
    14    14    13    1
    15    15    14    1
    16    16    15    1
    17    17    12    1
    18    18    17    1
    19    19    18    1
    20    20    19    1
    21    21    20    1
    22    22    20    1
    23    23    20    1
    24    24    18    2
    25    25    17    1
    26    26     1    1
    27    27    15    1
    28    28    27    1
    29    29    27    1
    30    30    25    1
    31    31    25    1
    32    32    16    1
    33    33    32    1
    34    34    16    1
    35    35    34    1
    36    36    15    1
    37    37    36    1
    38    38    37    1
    39    39    38    1
    40    40    38    1
    41    41    38    1
    42    42    36    2
    43    43    14    1
    44    44     1    1
    45    45    44   ar
    46    46    45   ar
    47    47    46   ar
    48    48    43   ar
    49    49    48    1
    50    50    47    1
    51    51    46    1
    52    52    45    1
    53    53    14    1
    54    54    13    1
    55    55    54    1
    56    56     1    1
    57    57    56   ar
    58    58    57   ar
    59    59    58   ar
    60    60    55   ar
    61    61    60    1
    62    62    59    1
    63    63    58    1
    64    64    57    1
    65    65    54    1
    66    66    54    1
    67    67    12    1
    68    68     1    1
    69    69    68    3
    70    70    69    1
    71    71    70    1
    72    72    70    1
    73    73    70    1
    74    74    26    1
    75    12    13    1
    76    16    17    1
    77    25    26    1
    78    26    27    1
    79    43    44   ar
    80    47    48   ar
    81    55    56   ar
    82    59    60   ar
    83    75    76    1
    84    76    77    1
    85    78    76    1
    86    79    76    1
    87    80    81    1
    88    81    82    1
    89    83    81    1
    90    84    81    1
    91    85    86    3
    92    86    87    1
    93    87    88    1
    94    89    87    1
    95    90    87    1
    96    91    92    3
    97    92    93    1
    98    93    94    1
    99    95    93    1
   100    96    93    1
@<TRIPOS>SUBSTRUCTURE
     1 RES1        1 GROUP             0 ****  ****    0  
     2 RES2       75 GROUP             0 ****  ****    0  
     3 RES3       80 GROUP             0 ****  ****    0  
     4 RES4       85 GROUP             0 ****  ****    0  
     5 RES5       91 GROUP             0 ****  ****    0  
@<TRIPOS>CRYSIN
   11.0566   13.7715   14.7180   66.3750   69.9250   71.3250     2     1
