@<TRIPOS>MOLECULE
TIQQER
    98   104     5     0     0
SMALL
USER_CHARGES
****
Generated from the CSD

@<TRIPOS>ATOM
     1 Fe1      1.2995   1.0223  10.6020   Fe        1 RES1   2.0000
     2 N1      -0.0792   2.2939  11.2909   N.ar      1 RES1   0.0000
     3 C1      -0.8483   2.2004  12.4019   C.ar      1 RES1   0.0000
     4 C2      -1.7886   3.1543  12.7359   C.ar      1 RES1   0.0000
     5 C3      -1.9366   4.2724  11.9271   C.ar      1 RES1   0.0000
     6 C4      -1.1704   4.3587  10.7697   C.ar      1 RES1   0.0000
     7 C5      -0.2810   3.3426  10.4787   C.ar      1 RES1   0.0000
     8 C6       0.4589   3.3675   9.1734   C.3       1 RES1   0.0000
     9 N2       1.3832   2.2001   9.0092   N.3       1 RES1   0.0000
    10 C7       2.7847   2.7192   8.9454   C.3       1 RES1   0.0000
    11 C8       3.8120   1.6593   8.4651   C.3       1 RES1   0.0000
    12 C9       3.9968   0.4789   9.4397   C.3       1 RES1   0.0000
    13 N3       2.6936  -0.2168   9.6720   N.3       1 RES1   0.0000
    14 C10      2.2547  -0.7608   8.3470   C.3       1 RES1   0.0000
    15 C11      2.0180   0.3762   7.3482   C.3       1 RES1   0.0000
    16 C12      3.3507   1.1348   7.0813   C.3       1 RES1   0.0000
    17 O1       3.1894   2.2290   6.2336   O.3       1 RES1   0.0000
    18 O2       4.2270   0.1843   6.5592   O.3       1 RES1   0.0000
    19 C13      0.9429   1.3775   7.8323   C.3       1 RES1   0.0000
    20 C14     -0.2685   0.5859   8.3089   C.ar      1 RES1   0.0000
    21 N4      -0.1940   0.1973   9.6230   N.ar      1 RES1   0.0000
    22 C15     -1.2436  -0.4609  10.1446   C.ar      1 RES1   0.0000
    23 C16     -2.3490  -0.8222   9.3891   C.ar      1 RES1   0.0000
    24 C17     -2.3849  -0.4923   8.0388   C.ar      1 RES1   0.0000
    25 C18     -1.3275   0.2329   7.4932   C.ar      1 RES1   0.0000
    26 C19      1.5491  -0.2635   6.0392   C.2       1 RES1   0.0000
    27 O3       1.0872   0.6575   5.1891   O.3       1 RES1   0.0000
    28 C20      0.6471   0.1621   3.9004   C.3       1 RES1   0.0000
    29 O4       1.5957  -1.4392   5.8113   O.2       1 RES1   0.0000
    30 C21      2.9419  -1.3999  10.5535   C.3       1 RES1   0.0000
    31 C22      2.3828  -1.2175  11.9270   C.ar      1 RES1   0.0000
    32 N5       1.5069  -0.2299  12.1057   N.ar      1 RES1   0.0000
    33 N6       0.9400  -0.0455  13.3230   N.ar      1 RES1   0.0000
    34 C23      1.2751  -0.8565  14.3201   C.ar      1 RES1   0.0000
    35 C24      2.1853  -1.8986  14.1920   C.ar      1 RES1   0.0000
    36 C25      2.7542  -2.0822  12.9584   C.ar      1 RES1   0.0000
    37 C26      5.1253   2.4487   8.3201   C.2       1 RES1   0.0000
    38 O5       6.1493   1.8172   8.8671   O.3       1 RES1   0.0000
    39 C27      7.3702   2.6026   8.9290   C.3       1 RES1   0.0000
    40 O6       5.2119   3.5328   7.8345   O.2       1 RES1   0.0000
    41 C28      3.1587   3.1058  10.3585   C.ar      1 RES1   0.0000
    42 N7       2.6683   2.2655  11.3093   N.ar      1 RES1   0.0000
    43 C29      3.0095   2.4904  12.5767   C.ar      1 RES1   0.0000
    44 C30      3.8900   3.4863  12.9620   C.ar      1 RES1   0.0000
    45 C31      4.3839   4.3426  11.9823   C.ar      1 RES1   0.0000
    46 C32      3.9988   4.1663  10.6616   C.ar      1 RES1   0.0000
    47 H1      -2.3088   3.0442  13.4969   H         1 RES1   0.0000
    48 H2      -2.5523   4.9376  12.1517   H         1 RES1   0.0000
    49 H3      -1.2632   5.0788  10.1987   H         1 RES1   0.0000
    50 H4       0.9773   4.1707   9.1059   H         1 RES1   0.0000
    51 H5      -0.1801   3.3509   8.4582   H         1 RES1   0.0000
    52 H6       2.8090   3.4886   8.3598   H         1 RES1   0.0000
    53 H7       4.3376   0.8112  10.2771   H         1 RES1   0.0000
    54 H8       4.6248  -0.1519   9.0660   H         1 RES1   0.0000
    55 H9       1.4190  -1.2650   8.4697   H         1 RES1   0.0000
    56 H10      2.9546  -1.3653   8.0146   H         1 RES1   0.0000
    57 H11      0.6879   1.9808   7.1144   H         1 RES1   0.0000
    58 H12     -1.2136  -0.6693  11.0475   H         1 RES1   0.0000
    59 H13     -3.0573  -1.2714   9.7878   H         1 RES1   0.0000
    60 H14     -3.1110  -0.7608   7.4939   H         1 RES1   0.0000
    61 H15     -1.3299   0.5027   6.5894   H         1 RES1   0.0000
    62 H16      0.4389   0.9275   3.3468   H         1 RES1   0.0000
    63 H17     -0.1337  -0.3807   4.0216   H         1 RES1   0.0000
    64 H18      1.3365  -0.3551   3.4966   H         1 RES1   0.0000
    65 H19      3.8906  -1.5522  10.6124   H         1 RES1   0.0000
    66 H20      2.5100  -2.1761  10.1616   H         1 RES1   0.0000
    67 H21      0.8667  -0.7156  15.1418   H         1 RES1   0.0000
    68 H22      2.3983  -2.4438  14.9164   H         1 RES1   0.0000
    69 H23      3.3699  -2.7498  12.8036   H         1 RES1   0.0000
    70 H24      8.0445   2.1094   9.4326   H         1 RES1   0.0000
    71 H25      7.1770   3.4703   9.3441   H         1 RES1   0.0000
    72 H26      7.6740   2.7498   7.9960   H         1 RES1   0.0000
    73 H27      2.6140   1.9553  13.2302   H         1 RES1   0.0000
    74 H28      4.1326   3.5741  13.8422   H         1 RES1   0.0000
    75 H29      4.9701   5.0498  12.2187   H         1 RES1   0.0000
    76 H30      4.3120   4.7451   9.9833   H         1 RES1   0.0000
    77 H31      3.2118   1.9460   5.4667   H         1 RES1   0.0000
    78 H32      4.9054   0.5330   6.2670   H         1 RES1   0.0000
    79 H33     -0.7162   1.4648  12.9277   H         1 RES1   0.0000
    80 F1       6.4751   1.1786   5.4150   F         2 RES2   0.0000
    81 B1       7.0672   0.4425   4.3811   B         2 RES2  -1.0000
    82 F2       8.2660   1.0230   4.0511   F         2 RES2   0.0000
    83 F3       6.2242   0.4872   3.2740   F         2 RES2   0.0000
    84 F4       7.2350  -0.8590   4.7985   F         2 RES2   0.0000
    85 F5       6.0821  -1.1448  14.3095   F         3 RES3   0.0000
    86 B2       6.1933  -0.7081  13.0019   B         3 RES3  -1.0000
    87 F6       7.4940  -0.3307  12.7590   F         3 RES3   0.0000
    88 F7       5.2609   0.3020  12.7849   F         3 RES3   0.0000
    89 F8       5.8762  -1.7277  12.1414   F         3 RES3   0.0000
    90 O7       3.7126   1.7717   3.6137   O.3       4 RES4   0.0000
    91 H34      3.2903   1.5690   2.9516   H         4 RES4   0.0000
    92 H35      4.4254   1.3729   3.4909   H         4 RES4   0.0000
    93 N8       3.0331   7.1857  13.1653   N.1       5 RES5   0.0000
    94 C33      3.4523   7.4911  14.1731   C.1       5 RES5   0.0000
    95 C34      3.9945   7.9053  15.4528   C.3       5 RES5   0.0000
    96 H36      3.3249   7.7549  16.1304   H         5 RES5   0.0000
    97 H37      4.1985   8.8487  15.4043   H         5 RES5   0.0000
    98 H38      4.7869   7.3889  15.6411   H         5 RES5   0.0000
@<TRIPOS>BOND
     1     1     2    1
     2     2     3   ar
     3     3     4   ar
     4     4     5   ar
     5     5     6   ar
     6     6     7   ar
     7     7     2   ar
     8     8     7    1
     9     9     1    1
    10    10     9    1
    11    11    10    1
    12    12    11    1
    13    13     1    1
    14    14    13    1
    15    15    14    1
    16    16    11    1
    17    17    16    1
    18    18    16    1
    19    19     9    1
    20    20    19    1
    21    21     1    1
    22    22    21   ar
    23    23    22   ar
    24    24    23   ar
    25    25    20   ar
    26    26    15    1
    27    27    26    1
    28    28    27    1
    29    29    26    2
    30    30    13    1
    31    31    30    1
    32    32     1    1
    33    33    32   ar
    34    34    33   ar
    35    35    34   ar
    36    36    31   ar
    37    37    11    1
    38    38    37    1
    39    39    38    1
    40    40    37    2
    41    41    10    1
    42    42     1    1
    43    43    42   ar
    44    44    43   ar
    45    45    44   ar
    46    46    41   ar
    47    47     4    1
    48    48     5    1
    49    49     6    1
    50    50     8    1
    51    51     8    1
    52    52    10    1
    53    53    12    1
    54    54    12    1
    55    55    14    1
    56    56    14    1
    57    57    19    1
    58    58    22    1
    59    59    23    1
    60    60    24    1
    61    61    25    1
    62    62    28    1
    63    63    28    1
    64    64    28    1
    65    65    30    1
    66    66    30    1
    67    67    34    1
    68    68    35    1
    69    69    36    1
    70    70    39    1
    71    71    39    1
    72    72    39    1
    73    73    43    1
    74    74    44    1
    75    75    45    1
    76    76    46    1
    77    77    17    1
    78    78    18    1
    79    79     3    1
    80     8     9    1
    81    12    13    1
    82    15    16    1
    83    15    19    1
    84    20    21   ar
    85    24    25   ar
    86    31    32   ar
    87    35    36   ar
    88    41    42   ar
    89    45    46   ar
    90    80    81    1
    91    81    82    1
    92    83    81    1
    93    84    81    1
    94    85    86    1
    95    86    87    1
    96    88    86    1
    97    89    86    1
    98    90    91    1
    99    92    90    1
   100    93    94    3
   101    94    95    1
   102    95    96    1
   103    97    95    1
   104    98    95    1
@<TRIPOS>SUBSTRUCTURE
     1 RES1        1 GROUP             0 ****  ****    0  
     2 RES2       80 GROUP             0 ****  ****    0  
     3 RES3       85 GROUP             0 ****  ****    0  
     4 RES4       90 GROUP             0 ****  ****    0  
     5 RES5       93 GROUP             0 ****  ****    0  
@<TRIPOS>CRYSIN
   10.6244   12.3593   15.2033  103.1780  103.0070   98.1230     2     1
