@<TRIPOS>MOLECULE
TIWQOI
   110   124     1     0     0
SMALL
NO_CHARGES
****
Generated from the CSD

@<TRIPOS>ATOM
     1 C1      20.1454   3.3353   2.2486   C.ar      1 RES1   0.0000
     2 H1      20.3686   3.6059   3.1312   H         1 RES1   0.0000
     3 C2      19.2482   4.0870   1.5583   C.ar      1 RES1   0.0000
     4 H2      18.8639   4.8645   1.9494   H         1 RES1   0.0000
     5 C3      18.9106   3.7099   0.3221   C.ar      1 RES1   0.0000
     6 H3      18.2710   4.2132  -0.1673   H         1 RES1   0.0000
     7 C4      19.4879   2.5933  -0.2489   C.ar      1 RES1   0.0000
     8 H4      19.2659   2.3251  -1.1337   H         1 RES1   0.0000
     9 C5      20.3878   1.8868   0.4915   C.ar      1 RES1   0.0000
    10 C6      21.0577   0.6526   0.0230   C.ar      1 RES1   0.0000
    11 C7      20.9925  -0.0147  -1.2174   C.ar      1 RES1   0.0000
    12 H5      20.4815   0.2155  -1.9850   H         1 RES1   0.0000
    13 C8      21.8455  -1.0750  -1.0479   C.ar      1 RES1   0.0000
    14 H6      22.0262  -1.7338  -1.7089   H         1 RES1   0.0000
    15 C9      22.9111  -4.4997   1.4391   C.2       1 RES1   0.0000
    16 H7      23.5919  -4.8670   0.8869   H         1 RES1   0.0000
    17 C10     22.0803  -5.2123   2.2402   C.2       1 RES1   0.0000
    18 H8      22.0575  -6.1538   2.3636   H         1 RES1   0.0000
    19 C11     21.2507  -4.2315   2.8489   C.2       1 RES1   0.0000
    20 C12     20.0977  -4.4935   3.7399   C.ar      1 RES1   0.0000
    21 C13     19.2869  -3.4920   4.1290   C.ar      1 RES1   0.0000
    22 H9      19.4258  -2.5933   3.8529   H         1 RES1   0.0000
    23 C14     18.2503  -3.8446   4.9426   C.ar      1 RES1   0.0000
    24 H10     17.6114  -3.1847   5.1895   H         1 RES1   0.0000
    25 C15     18.1001  -5.1082   5.4112   C.ar      1 RES1   0.0000
    26 H11     17.4299  -5.3359   6.0450   H         1 RES1   0.0000
    27 C16     18.9570  -6.0143   4.9259   C.ar      1 RES1   0.0000
    28 H12     18.8120  -6.9166   5.1853   H         1 RES1   0.0000
    29 C17     25.6687  -1.4497   1.6587   C.ar      1 RES1   0.0000
    30 H13     26.1376  -1.8513   0.9371   H         1 RES1   0.0000
    31 C18     26.2477  -0.9073   2.7527   C.ar      1 RES1   0.0000
    32 H14     27.1780  -0.8424   2.9493   H         1 RES1   0.0000
    33 C19     25.1604  -0.4555   3.5328   C.ar      1 RES1   0.0000
    34 C20     25.2468   0.1971   4.8464   C.ar      1 RES1   0.0000
    35 C21     24.2001   0.1531   5.7333   C.ar      1 RES1   0.0000
    36 H15     23.3963  -0.2951   5.5032   H         1 RES1   0.0000
    37 C22     24.3290   0.7604   6.9569   C.ar      1 RES1   0.0000
    38 H16     23.6176   0.7420   7.5886   H         1 RES1   0.0000
    39 C23     25.5019   1.3872   7.2435   C.ar      1 RES1   0.0000
    40 H17     25.6210   1.8256   8.0781   H         1 RES1   0.0000
    41 C24     26.5421   1.3811   6.2855   C.ar      1 RES1   0.0000
    42 H18     27.3623   1.8170   6.4863   H         1 RES1   0.0000
    43 C25     24.7677   1.9701   1.3199   C.ar      1 RES1   0.0000
    44 H19     24.5487   1.3542   0.6296   H         1 RES1   0.0000
    45 C26     25.9749   2.6178   1.2487   C.ar      1 RES1   0.0000
    46 H20     26.5859   2.4415   0.5417   H         1 RES1   0.0000
    47 C27     26.2753   3.5226   2.2276   C.ar      1 RES1   0.0000
    48 H21     27.0981   3.9977   2.1963   H         1 RES1   0.0000
    49 C28     25.3942   3.7479   3.2526   C.ar      1 RES1   0.0000
    50 H22     25.5990   4.3711   3.9407   H         1 RES1   0.0000
    51 C29     24.2105   3.0512   3.2609   C.ar      1 RES1   0.0000
    52 C30     23.2315   3.2079   4.2900   C.ar      1 RES1   0.0000
    53 C31     23.0542   4.1862   5.2606   C.ar      1 RES1   0.0000
    54 H23     23.6027   4.9478   5.4028   H         1 RES1   0.0000
    55 C32     21.9315   3.8434   5.9801   C.ar      1 RES1   0.0000
    56 H24     21.5677   4.3136   6.7206   H         1 RES1   0.0000
    57 C33     17.8429   2.6802   6.0366   C.2       1 RES1   0.0000
    58 H25     17.5030   2.0729   5.3903   H         1 RES1   0.0000
    59 C34     17.0546   3.6108   6.7645   C.2       1 RES1   0.0000
    60 H26     16.1206   3.7748   6.7122   H         1 RES1   0.0000
    61 C35     18.0003   4.2168   7.5677   C.2       1 RES1   0.0000
    62 C36     17.8189   5.3702   8.4713   C.ar      1 RES1   0.0000
    63 C37     18.8878   6.0498   8.9921   C.ar      1 RES1   0.0000
    64 H27     19.7814   5.7596   8.8478   H         1 RES1   0.0000
    65 C38     18.6025   7.1701   9.7368   C.ar      1 RES1   0.0000
    66 H28     19.3125   7.6807  10.1070   H         1 RES1   0.0000
    67 C39     17.3105   7.5545   9.9459   C.ar      1 RES1   0.0000
    68 H29     17.1009   8.3137  10.4793   H         1 RES1   0.0000
    69 C40     16.3544   6.8260   9.3749   C.ar      1 RES1   0.0000
    70 H30     15.4536   7.1076   9.5046   H         1 RES1   0.0000
    71 C41     20.5304   0.9342   8.2454   C.2       1 RES1   0.0000
    72 H31     20.2521   1.6946   8.7432   H         1 RES1   0.0000
    73 C42     20.9882  -0.2498   8.7704   C.2       1 RES1   0.0000
    74 H32     21.1002  -0.4726   9.6866   H         1 RES1   0.0000
    75 C43     21.2507  -1.0554   7.6597   C.2       1 RES1   0.0000
    76 C44     21.7284  -2.4353   7.6807   C.ar      1 RES1   0.0000
    77 C45     21.8980  -3.1773   6.5156   C.ar      1 RES1   0.0000
    78 H33     21.7471  -2.7892   5.6622   H         1 RES1   0.0000
    79 C46     22.2914  -4.4838   6.6390   C.ar      1 RES1   0.0000
    80 H34     22.4193  -5.0090   5.8588   H         1 RES1   0.0000
    81 C47     22.5039  -5.0433   7.8647   C.ar      1 RES1   0.0000
    82 H35     22.7491  -5.9567   7.9568   H         1 RES1   0.0000
    83 C48     22.3470  -4.2291   8.9587   C.ar      1 RES1   0.0000
    84 H36     22.5238  -4.5988   9.8142   H         1 RES1   0.0000
    85 N1      20.7369   2.2309   1.7549   N.ar      1 RES1   0.0000
    86 N2      21.8822   0.0282   0.8639   N.ar      1 RES1   0.0000
    87 N3      22.3863  -1.0554   0.1778   N.ar      1 RES1   0.0000
    88 N4      22.6183  -3.1785   1.5499   N.pl3     1 RES1   0.0000
    89 N5      21.5886  -3.0047   2.4264   N.2       1 RES1   0.0000
    90 N6      19.9750  -5.7828   4.1248   N.ar      1 RES1   0.0000
    91 N7      24.3431  -1.3395   1.7445   N.ar      1 RES1   0.0000
    92 N8      23.9999  -0.6967   2.9346   N.ar      1 RES1   0.0000
    93 N9      26.4017   0.7787   5.1100   N.ar      1 RES1   0.0000
    94 N10     23.8656   2.1574   2.3155   N.ar      1 RES1   0.0000
    95 N11     22.2511   2.2945   4.3800   N.ar      1 RES1   0.0000
    96 N12     21.4400   2.6937   5.4175   N.ar      1 RES1   0.0000
    97 N13     19.0987   2.7720   6.3817   N.pl3     1 RES1   0.0000
    98 N14     19.2723   3.7393   7.3585   N.2       1 RES1   0.0000
    99 N15     16.5569   5.7094   8.6198   N.ar      1 RES1   0.0000
   100 N16     20.5385   0.8289   6.9130   N.pl3     1 RES1   0.0000
   101 N17     20.9694  -0.4102   6.5260   N.2       1 RES1   0.0000
   102 N18     21.9648  -2.9520   8.8980   N.ar      1 RES1   0.0000
   103 O1      21.0438  -0.5547   3.6816   O.3       1 RES1   0.0000
   104 H37     21.2215  -1.3334   3.3906   H         1 RES1   0.0000
   105 H38     20.8448  -0.6257   4.5055   H         1 RES1   0.0000
   106 Fe1     22.1834   0.8559   2.7752   Fe        1 RES1   0.0000
   107 B1      23.3632  -2.0582   0.8137   B         1 RES1   0.0000
   108 H39     23.8903  -2.4782   0.0774   H         1 RES1   0.0000
   109 B2      20.1578   1.8868   5.8379   B         1 RES1   0.0000
   110 H40     19.8027   1.4130   5.0326   H         1 RES1   0.0000
@<TRIPOS>BOND
     1     1     2    1
     2     3     1   ar
     3     4     3    1
     4     5     3   ar
     5     6     5    1
     6     7     5   ar
     7     8     7    1
     8     9     7   ar
     9    10     9    1
    10    11    10   ar
    11    12    11    1
    12    13    11   ar
    13    14    13    1
    14    15    16    1
    15    17    15    2
    16    18    17    1
    17    19    17    1
    18    20    19    1
    19    21    20   ar
    20    22    21    1
    21    23    21   ar
    22    24    23    1
    23    25    23   ar
    24    26    25    1
    25    27    25   ar
    26    28    27    1
    27    29    30    1
    28    31    29   ar
    29    32    31    1
    30    33    31   ar
    31    34    33    1
    32    35    34   ar
    33    36    35    1
    34    37    35   ar
    35    38    37    1
    36    39    37   ar
    37    40    39    1
    38    41    39   ar
    39    42    41    1
    40    43    44    1
    41    45    43   ar
    42    46    45    1
    43    47    45   ar
    44    48    47    1
    45    49    47   ar
    46    50    49    1
    47    51    49   ar
    48    52    51    1
    49    53    52   ar
    50    54    53    1
    51    55    53   ar
    52    56    55    1
    53    57    58    1
    54    59    57    2
    55    60    59    1
    56    61    59    1
    57    62    61    1
    58    63    62   ar
    59    64    63    1
    60    65    63   ar
    61    66    65    1
    62    67    65   ar
    63    68    67    1
    64    69    67   ar
    65    70    69    1
    66    71    72    1
    67    73    71    2
    68    74    73    1
    69    75    73    1
    70    76    75    1
    71    77    76   ar
    72    78    77    1
    73    79    77   ar
    74    80    79    1
    75    81    79   ar
    76    82    81    1
    77    83    81   ar
    78    84    83    1
    79    85     1   ar
    80    86    10   ar
    81    87    13   ar
    82    88    15    1
    83    89    19    2
    84    90    20   ar
    85    91    29   ar
    86    92    33   ar
    87    93    34   ar
    88    94    43   ar
    89    95    52   ar
    90    96    55   ar
    91    97    57    1
    92    98    61    2
    93    99    62   ar
    94   100    71    1
    95   101    75    2
    96   102    76   ar
    97   103   104    1
    98   105   103    1
    99   106    85    1
   100   107    87    1
   101   108   107    1
   102   109    96    1
   103   110   109    1
   104     9    85   ar
   105    27    90   ar
   106    41    93   ar
   107    51    94   ar
   108    69    99   ar
   109    83   102   ar
   110    86    87   ar
   111    86   106    1
   112    88    89    1
   113    88   107    1
   114    91    92   ar
   115    91   107    1
   116    92   106    1
   117    94   106    1
   118    95    96   ar
   119    95   106    1
   120    97    98    1
   121    97   109    1
   122   100   101    1
   123   100   109    1
   124   103   106    1
@<TRIPOS>SUBSTRUCTURE
     1 RES1        1 GROUP             0 ****  ****    0  
@<TRIPOS>CRYSIN
   38.5280   12.2440   23.9630   90.0000  119.2050   90.0000    15     1
