@<TRIPOS>MOLECULE
TIXLIX
    81    85     1     0     0
SMALL
NO_CHARGES
****
Generated from the CSD

@<TRIPOS>ATOM
     1 Fe1      3.7328   7.0640   2.8657   Fe        1 RES1   0.0000
     2 S1       3.0688   4.0165   4.1965   S.o2      1 RES1   0.0000
     3 S2       4.7131   6.3270  -0.4630   S.o2      1 RES1   0.0000
     4 F1       5.1659   2.5120   3.7882   F         1 RES1   0.0000
     5 F2       4.0296   2.0213   5.5520   F         1 RES1   0.0000
     6 F3       5.3053   3.7500   5.5238   F         1 RES1   0.0000
     7 F4       3.2208   8.3238  -1.2739   F         1 RES1   0.0000
     8 F5       2.5227   6.4145  -1.8908   F         1 RES1   0.0000
     9 F6       4.2190   7.2612  -2.8479   F         1 RES1   0.0000
    10 O1       3.7192   5.0100   3.3423   O.3       1 RES1   0.0000
    11 O2       2.2421   3.0848   3.4982   O.2       1 RES1   0.0000
    12 O3       2.5100   4.5941   5.4023   O.2       1 RES1   0.0000
    13 O4       3.9571   6.3493   0.7676   O.3       1 RES1   0.0000
    14 O5       4.9240   5.0435  -1.0262   O.2       1 RES1   0.0000
    15 O6       5.8576   7.2075  -0.4239   O.2       1 RES1   0.0000
    16 O7       3.1021   7.2859   4.8869   O.3       1 RES1   0.0000
    17 H1       2.8967   6.5352   5.2039   H         1 RES1   0.0000
    18 H2       3.4209   7.9970   5.2261   H         1 RES1   0.0000
    19 N1       4.2516   8.9115   2.0407   N.ar      1 RES1   0.0000
    20 N2       1.8105   8.0296   2.2572   N.2       1 RES1   0.0000
    21 N3       5.9021   7.2850   3.2285   N.2       1 RES1   0.0000
    22 C1       3.3303   9.6305   1.4171   C.ar      1 RES1   0.0000
    23 C2       3.6784  10.7293   0.6256   C.ar      1 RES1   0.0000
    24 H3       3.0109  11.2588   0.2054   H         1 RES1   0.0000
    25 C3       5.0189  11.0236   0.4702   C.ar      1 RES1   0.0000
    26 H4       5.2816  11.7602  -0.0693   H         1 RES1   0.0000
    27 C4       5.9829  10.2491   1.0964   C.ar      1 RES1   0.0000
    28 H5       6.9080  10.4350   0.9848   H         1 RES1   0.0000
    29 C5       5.5572   9.1935   1.8915   C.ar      1 RES1   0.0000
    30 C6       1.9350   9.1415   1.6255   C.2       1 RES1   0.0000
    31 C7       0.8415   9.9759   1.0504   C.3       1 RES1   0.0000
    32 H6      -0.0202   9.5354   1.2051   H         1 RES1   0.0000
    33 H7       0.9859  10.0843   0.0866   H         1 RES1   0.0000
    34 H8       0.8405  10.8562   1.4822   H         1 RES1   0.0000
    35 C8       0.5035   7.5185   2.5940   C.ar      1 RES1   0.0000
    36 C9      -0.3447   8.2287   3.4757   C.ar      1 RES1   0.0000
    37 C10     -1.5891   7.6833   3.7503   C.ar      1 RES1   0.0000
    38 H9      -2.1727   8.1538   4.3353   H         1 RES1   0.0000
    39 C11     -2.0220   6.4797   3.2092   C.ar      1 RES1   0.0000
    40 C12     -1.1489   5.7827   2.3931   C.ar      1 RES1   0.0000
    41 H10     -1.4229   4.9474   2.0340   H         1 RES1   0.0000
    42 C13      0.1219   6.2691   2.0813   C.ar      1 RES1   0.0000
    43 C14      0.0574   9.5389   4.1007   C.3       1 RES1   0.0000
    44 H11     -0.1095  10.2676   3.4668   H         1 RES1   0.0000
    45 H12      1.0113   9.5142   4.3254   H         1 RES1   0.0000
    46 H13     -0.4674   9.6869   4.9143   H         1 RES1   0.0000
    47 C15     -3.4056   5.9422   3.4918   C.3       1 RES1   0.0000
    48 H14     -3.4928   5.0470   3.1030   H         1 RES1   0.0000
    49 H15     -4.0747   6.5378   3.0956   H         1 RES1   0.0000
    50 H16     -3.5452   5.8920   4.4615   H         1 RES1   0.0000
    51 C16      1.0170   5.4787   1.1680   C.3       1 RES1   0.0000
    52 H17      0.5834   4.6294   0.9403   H         1 RES1   0.0000
    53 H18      1.8694   5.2999   1.6183   H         1 RES1   0.0000
    54 H19      1.1821   5.9907   0.3489   H         1 RES1   0.0000
    55 C17      6.4582   8.2921   2.6529   C.2       1 RES1   0.0000
    56 C18      7.9121   8.6243   2.7081   C.3       1 RES1   0.0000
    57 H20      8.3707   7.9829   3.2911   H         1 RES1   0.0000
    58 H21      8.0278   9.5301   3.0634   H         1 RES1   0.0000
    59 H22      8.2922   8.5767   1.8064   H         1 RES1   0.0000
    60 C19      6.7388   6.4180   4.0218   C.ar      1 RES1   0.0000
    61 C20      7.3396   5.3104   3.4108   C.ar      1 RES1   0.0000
    62 C21      8.2108   4.5386   4.1742   C.ar      1 RES1   0.0000
    63 H23      8.6399   3.7914   3.7736   H         1 RES1   0.0000
    64 C22      8.4689   4.8355   5.5070   C.ar      1 RES1   0.0000
    65 C23      7.8205   5.9202   6.0845   C.ar      1 RES1   0.0000
    66 H24      7.9712   6.1096   7.0028   H         1 RES1   0.0000
    67 C24      6.9590   6.7370   5.3637   C.ar      1 RES1   0.0000
    68 C25      7.0686   4.9897   1.9670   C.3       1 RES1   0.0000
    69 H25      6.1142   4.7994   1.8484   H         1 RES1   0.0000
    70 H26      7.5938   4.2055   1.7025   H         1 RES1   0.0000
    71 H27      7.3200   5.7545   1.4105   H         1 RES1   0.0000
    72 C26      9.4565   4.0152   6.2931   C.3       1 RES1   0.0000
    73 H28      9.2530   3.0627   6.1813   H         1 RES1   0.0000
    74 H29      9.3969   4.2522   7.2428   H         1 RES1   0.0000
    75 H30     10.3634   4.1958   5.9685   H         1 RES1   0.0000
    76 C27      6.3436   7.9485   5.9997   C.3       1 RES1   0.0000
    77 H31      6.5630   7.9635   6.9558   H         1 RES1   0.0000
    78 H32      5.3707   7.9177   5.8893   H         1 RES1   0.0000
    79 H33      6.6956   8.7574   5.5701   H         1 RES1   0.0000
    80 C28      4.4742   3.0222   4.8000   C.3       1 RES1   0.0000
    81 C29      3.6130   7.1458  -1.6690   C.3       1 RES1   0.0000
@<TRIPOS>BOND
     1     1    10    1
     2     2    10    1
     3     3    13    1
     4     4    80    1
     5     5    80    1
     6     6    80    1
     7     7    81    1
     8     8    81    1
     9     9    81    1
    10    11     2    2
    11    12     2    2
    12    13     1    1
    13    14     3    2
    14    15     3    2
    15    16     1    1
    16    17    16    1
    17    18    16    1
    18    19     1    1
    19    20     1    1
    20    21     1    1
    21    22    19   ar
    22    23    22   ar
    23    24    23    1
    24    25    23   ar
    25    26    25    1
    26    27    25   ar
    27    28    27    1
    28    29    19   ar
    29    30    20    2
    30    31    30    1
    31    32    31    1
    32    33    31    1
    33    34    31    1
    34    35    20    1
    35    36    35   ar
    36    37    36   ar
    37    38    37    1
    38    39    37   ar
    39    40    39   ar
    40    41    40    1
    41    42    35   ar
    42    43    36    1
    43    44    43    1
    44    45    43    1
    45    46    43    1
    46    47    39    1
    47    48    47    1
    48    49    47    1
    49    50    47    1
    50    51    42    1
    51    52    51    1
    52    53    51    1
    53    54    51    1
    54    55    21    2
    55    56    55    1
    56    57    56    1
    57    58    56    1
    58    59    56    1
    59    60    21    1
    60    61    60   ar
    61    62    61   ar
    62    63    62    1
    63    64    62   ar
    64    65    64   ar
    65    66    65    1
    66    67    60   ar
    67    68    61    1
    68    69    68    1
    69    70    68    1
    70    71    68    1
    71    72    64    1
    72    73    72    1
    73    74    72    1
    74    75    72    1
    75    76    67    1
    76    77    76    1
    77    78    76    1
    78    79    76    1
    79    80     2    1
    80    81     3    1
    81    22    30    1
    82    27    29   ar
    83    29    55    1
    84    40    42   ar
    85    65    67   ar
@<TRIPOS>SUBSTRUCTURE
     1 RES1        1 GROUP             0 ****  ****    0  
@<TRIPOS>CRYSIN
   15.0793    8.8111   25.3883   90.0000  102.9260   90.0000   231     1
