@<TRIPOS>MOLECULE
TIXPOH
    76    84     2     0     0
SMALL
USER_CHARGES
****
Generated from the CSD

@<TRIPOS>ATOM
     1 Fe1      7.1249   6.7467   3.6416   Fe        1 RES1   1.0000
     2 N1       8.5543   6.8707   4.8725   N.am      1 RES1   0.0000
     3 N2       5.6835   6.5196   2.4500   N.am      1 RES1   0.0000
     4 N3       7.8865   7.6719   2.0894   N.ar      1 RES1   0.0000
     5 N4       8.0086   5.0560   3.2390   N.ar      1 RES1   0.0000
     6 N5       5.9011   5.8174   4.8357   N.ar      1 RES1   0.0000
     7 N6       6.7347   8.5473   4.3548   N.ar      1 RES1   0.0000
     8 N7       9.2109   5.6488   5.1153   N.pl3     1 RES1   0.0000
     9 C1       9.0111   4.7493   4.1000   C.ar      1 RES1   0.0000
    10 C2       7.5844   8.9299   5.3179   C.ar      1 RES1   0.0000
    11 C3      10.3822   5.5858   5.9541   C.ar      1 RES1   0.0000
    12 C4      11.4057   6.5020   5.7966   C.ar      1 RES1   0.0000
    13 H1      11.3662   7.1523   5.1339   H         1 RES1   0.0000
    14 C5       5.8409   9.4422   3.9085   C.ar      1 RES1   0.0000
    15 H2       5.2396   9.1874   3.2473   H         1 RES1   0.0000
    16 C6       8.4724   7.8239   5.8254   C.2       1 RES1   0.0000
    17 C7       9.4642   2.7531   2.9009   C.ar      1 RES1   0.0000
    18 H3       9.9620   1.9777   2.7741   H         1 RES1   0.0000
    19 C8      10.4414   4.6178   6.9258   C.ar      1 RES1   0.0000
    20 H4       9.7493   4.0046   7.0173   H         1 RES1   0.0000
    21 C9       9.7615   3.5766   3.9410   C.ar      1 RES1   0.0000
    22 H5      10.4480   3.3672   4.5339   H         1 RES1   0.0000
    23 C10      7.5775  10.1777   5.8638   C.ar      1 RES1   0.0000
    24 H6       8.1615  10.3982   6.5534   H         1 RES1   0.0000
    25 C11      8.4405   3.0523   2.0415   C.ar      1 RES1   0.0000
    26 H7       8.2267   2.4752   1.3453   H         1 RES1   0.0000
    27 C12      7.7464   4.1982   2.2202   C.ar      1 RES1   0.0000
    28 H8       7.0634   4.4066   1.6237   H         1 RES1   0.0000
    29 C13      5.7874  10.7150   4.3978   C.ar      1 RES1   0.0000
    30 H9       5.1504  11.3125   4.0762   H         1 RES1   0.0000
    31 C14     12.5499   5.4561   7.6297   C.ar      1 RES1   0.0000
    32 H10     13.2838   5.4117   8.1987   H         1 RES1   0.0000
    33 C15     12.5029   6.4251   6.6617   C.ar      1 RES1   0.0000
    34 H11     13.2014   7.0337   6.5782   H         1 RES1   0.0000
    35 C16      6.6781  11.1114   5.3689   C.ar      1 RES1   0.0000
    36 H12      6.6776  11.9859   5.6875   H         1 RES1   0.0000
    37 C17     11.5413   4.5613   7.7692   C.ar      1 RES1   0.0000
    38 H13     11.5864   3.9101   8.4307   H         1 RES1   0.0000
    39 C18      7.0974   7.6377   1.0104   C.ar      1 RES1   0.0000
    40 C19      4.8365   5.2977   4.2048   C.ar      1 RES1   0.0000
    41 C20      5.8279   6.8521   1.1542   C.2       1 RES1   0.0000
    42 C21      3.8741   4.5020   4.8623   C.ar      1 RES1   0.0000
    43 H14      3.1421   4.1537   4.4071   H         1 RES1   0.0000
    44 C22      4.0619   4.2612   6.2043   C.ar      1 RES1   0.0000
    45 H15      3.4663   3.7128   6.6617   H         1 RES1   0.0000
    46 C23      9.0570   8.3269   2.0372   C.ar      1 RES1   0.0000
    47 H16      9.6140   8.3361   2.7834   H         1 RES1   0.0000
    48 C24      6.0401   5.5701   6.1699   C.ar      1 RES1   0.0000
    49 H17      6.7802   5.9175   6.6122   H         1 RES1   0.0000
    50 C25      5.1400   4.8346   6.8816   C.ar      1 RES1   0.0000
    51 H18      5.2417   4.7169   7.7998   H         1 RES1   0.0000
    52 C26      3.4104   5.5349   2.2685   C.ar      1 RES1   0.0000
    53 C27      7.4454   8.2713  -0.1726   C.ar      1 RES1   0.0000
    54 H19      6.8781   8.2518  -0.9093   H         1 RES1   0.0000
    55 C28      8.6649   8.9383  -0.2258   C.ar      1 RES1   0.0000
    56 H20      8.9449   9.3449  -1.0144   H         1 RES1   0.0000
    57 C29      9.4444   8.9892   0.8867   C.ar      1 RES1   0.0000
    58 H21     10.2394   9.4700   0.8752   H         1 RES1   0.0000
    59 C30      3.0131   4.3899   1.6051   C.ar      1 RES1   0.0000
    60 H22      3.6280   3.7146   1.4288   H         1 RES1   0.0000
    61 C31      1.2201   6.4149   2.0721   C.ar      1 RES1   0.0000
    62 H23      0.6063   7.1013   2.2051   H         1 RES1   0.0000
    63 C32      1.7079   4.2556   1.2123   C.ar      1 RES1   0.0000
    64 H24      1.4335   3.4803   0.7794   H         1 RES1   0.0000
    65 C33      0.8365   5.2255   1.4443   C.ar      1 RES1   0.0000
    66 H25     -0.0493   5.1134   1.1845   H         1 RES1   0.0000
    67 N8       4.7192   5.5905   2.8456   N.pl3     1 RES1   0.0000
    68 O1       8.9594   7.8350   6.9530   O.2       1 RES1   0.0000
    69 O2       5.1196   6.5529   0.1951   O.2       1 RES1   0.0000
    70 C34      2.5314   6.5520   2.4927   C.ar      1 RES1   0.0000
    71 H26      2.8102   7.3283   2.9257   H         1 RES1   0.0000
    72 O3       0.6603   0.2659   3.4020   O.2       2 RES2   0.0000
    73 O4       1.3491   1.8249   5.0194   O.2       2 RES2   0.0000
    74 Cl1      1.6198   0.8299   4.1866   Cl        2 RES2   0.0000
    75 O5       2.4135  -0.1408   4.8308   O.3       2 RES2  -1.0000
    76 O6       2.5250   1.4043   3.3123   O.2       2 RES2   0.0000
@<TRIPOS>BOND
     1     1     2    1
     2     2     8    1
     3     3     1    1
     4     4     1    1
     5     5     1    1
     6     6     1    1
     7     7     1    1
     8     8     9    1
     9     9     5   ar
    10    10     7   ar
    11    11     8    1
    12    12    11   ar
    13    13    12    1
    14    14     7   ar
    15    15    14    1
    16    16     2   am
    17    17    18    1
    18    19    11   ar
    19    20    19    1
    20    21     9   ar
    21    22    21    1
    22    23    10   ar
    23    24    23    1
    24    25    17   ar
    25    26    25    1
    26    27     5   ar
    27    28    27    1
    28    29    14   ar
    29    30    29    1
    30    31    32    1
    31    33    12   ar
    32    34    33    1
    33    35    23   ar
    34    36    35    1
    35    37    19   ar
    36    38    37    1
    37    39     4   ar
    38    40     6   ar
    39    41     3   am
    40    42    40   ar
    41    43    42    1
    42    44    42   ar
    43    45    44    1
    44    46     4   ar
    45    47    46    1
    46    48     6   ar
    47    49    48    1
    48    50    44   ar
    49    51    50    1
    50    52    59   ar
    51    53    39   ar
    52    54    53    1
    53    55    53   ar
    54    56    55    1
    55    57    46   ar
    56    58    57    1
    57    59    60    1
    58    61    62    1
    59    63    59   ar
    60    64    63    1
    61    65    61   ar
    62    66    65    1
    63    67     3    1
    64    68    16    2
    65    69    41    2
    66    70    52   ar
    67    71    70    1
    68    10    16    1
    69    17    21   ar
    70    25    27   ar
    71    29    35   ar
    72    31    33   ar
    73    31    37   ar
    74    39    41    1
    75    40    67    1
    76    48    50   ar
    77    52    67    1
    78    55    57   ar
    79    61    70   ar
    80    63    65   ar
    81    72    74    2
    82    73    74    2
    83    74    75    1
    84    76    74    2
@<TRIPOS>SUBSTRUCTURE
     1 RES1        1 GROUP             0 ****  ****    0  
     2 RES2       72 GROUP             0 ****  ****    0  
@<TRIPOS>CRYSIN
   11.1466    9.2634   30.9350   90.0000   91.3060   90.0000   231     1
