@<TRIPOS>MOLECULE
TIZKUL
    96   101     3     0     0
SMALL
USER_CHARGES
****
Generated from the CSD

@<TRIPOS>ATOM
     1 Fe1      3.1042   1.8679   0.8264   Fe        1 RES1   2.0000
     2 O1       6.8188  -0.9193  -1.3504   O.3       1 RES1   0.0000
     3 O2      -1.2769   6.2231  -2.3997   O.3       1 RES1   0.0000
     4 O3       6.0798   6.5916  -0.4241   O.3       1 RES1   0.0000
     5 N1       3.1696   0.6390  -0.6916   N.2       1 RES1   0.0000
     6 N2       4.0619  -1.1777  -1.5682   N.pl3     1 RES1   0.0000
     7 N3       3.9896   0.3215   1.7112   N.2       1 RES1   0.0000
     8 N4       2.1946   1.0086   3.9612   N.3       1 RES1   0.0000
     9 N5       3.3492   3.1616   2.3024   N.2       1 RES1   0.0000
    10 N6       1.2323   1.3571   1.1927   N.2       1 RES1   0.0000
    11 N7       2.1852   3.2419  -0.2388   N.2       1 RES1   0.0000
    12 N8       0.2797   3.9903  -1.0729   N.pl3     1 RES1   0.0000
    13 N9       4.8704   2.5681   0.3490   N.2       1 RES1   0.0000
    14 N10      6.4690   4.0489   0.7144   N.pl3     1 RES1   0.0000
    15 C1       2.8912   0.6241  -2.0305   C.2       1 RES1   0.0000
    16 H1       2.3945   1.2830  -2.5006   H         1 RES1   0.0000
    17 C2       3.4459  -0.4957  -2.5791   C.2       1 RES1   0.0000
    18 H2       3.4097  -0.7528  -3.4935   H         1 RES1   0.0000
    19 C3       4.9580  -2.3325  -1.7285   C.3       1 RES1   0.0000
    20 H3       4.5537  -2.9812  -2.3570   H         1 RES1   0.0000
    21 H4       5.0780  -2.7829  -0.8556   H         1 RES1   0.0000
    22 C4       6.3017  -1.8835  -2.2569   C.3       1 RES1   0.0000
    23 H5       6.9173  -2.6550  -2.3231   H         1 RES1   0.0000
    24 H6       6.1985  -1.4856  -3.1577   H         1 RES1   0.0000
    25 C5       8.0368  -0.3635  -1.8129   C.3       1 RES1   0.0000
    26 H7       7.8960   0.0503  -2.6911   H         1 RES1   0.0000
    27 H8       8.7099  -1.0718  -1.8920   H         1 RES1   0.0000
    28 H9       8.3493   0.3146  -1.1785   H         1 RES1   0.0000
    29 C6       3.8761  -0.4633  -0.4323   C.2       1 RES1   0.0000
    30 C7       4.3392  -0.6389   0.9168   C.2       1 RES1   0.0000
    31 H10      4.8529  -1.3879   1.1979   H         1 RES1   0.0000
    32 C8       4.4167   0.2615   3.1065   C.3       1 RES1   0.0000
    33 H11      4.8592   1.1134   3.3482   H         1 RES1   0.0000
    34 H12      5.0782  -0.4669   3.2142   H         1 RES1   0.0000
    35 C9       3.2363   0.0170   4.0574   C.3       1 RES1   0.0000
    36 H13      2.8482  -0.8721   3.8615   H         1 RES1   0.0000
    37 H14      3.5751  -0.0014   4.9884   H         1 RES1   0.0000
    38 C10      0.8756   0.6250   3.5371   C.3       1 RES1   0.0000
    39 H15      0.2518   1.3735   3.7146   H         1 RES1   0.0000
    40 H16      0.5787  -0.1480   4.0795   H         1 RES1   0.0000
    41 C11      0.7896   0.2501   2.0544   C.3       1 RES1   0.0000
    42 H17      1.3552  -0.5445   1.8840   H         1 RES1   0.0000
    43 H18     -0.1452   0.0144   1.8291   H         1 RES1   0.0000
    44 C12      0.3275   2.0028   0.5331   C.2       1 RES1   0.0000
    45 H19     -0.5985   1.7973   0.5779   H         1 RES1   0.0000
    46 C13      0.8646   3.0665  -0.2783   C.2       1 RES1   0.0000
    47 C14     -1.1564   4.0731  -1.3930   C.3       1 RES1   0.0000
    48 H20     -1.6568   3.4768  -0.7813   H         1 RES1   0.0000
    49 H21     -1.3000   3.7455  -2.3166   H         1 RES1   0.0000
    50 C15     -1.7089   5.4724  -1.2762   C.3       1 RES1   0.0000
    51 H22     -2.6974   5.4437  -1.2479   H         1 RES1   0.0000
    52 H23     -1.3844   5.8948  -0.4423   H         1 RES1   0.0000
    53 C16     -1.7960   7.5341  -2.3699   C.3       1 RES1   0.0000
    54 H24     -1.4558   8.0384  -3.1383   H         1 RES1   0.0000
    55 H25     -1.5200   7.9766  -1.5401   H         1 RES1   0.0000
    56 H26     -2.7752   7.4996  -2.4102   H         1 RES1   0.0000
    57 C17      1.2818   4.8015  -1.5504   C.2       1 RES1   0.0000
    58 H27      1.1822   5.5428  -2.1342   H         1 RES1   0.0000
    59 C18      2.4542   4.3284  -1.0198   C.2       1 RES1   0.0000
    60 H28      3.3165   4.6980  -1.1720   H         1 RES1   0.0000
    61 C19      2.4325   2.3368   4.4574   C.3       1 RES1   0.0000
    62 H29      3.3196   2.3576   4.8964   H         1 RES1   0.0000
    63 H30      1.7524   2.5444   5.1466   H         1 RES1   0.0000
    64 C20      2.3920   3.4267   3.3839   C.3       1 RES1   0.0000
    65 H31      1.4779   3.4797   3.0059   H         1 RES1   0.0000
    66 H32      2.6015   4.3015   3.7986   H         1 RES1   0.0000
    67 C21      4.4069   3.8964   2.2375   C.2       1 RES1   0.0000
    68 H33      4.5986   4.5888   2.8590   H         1 RES1   0.0000
    69 C22      5.2724   3.5656   1.1280   C.2       1 RES1   0.0000
    70 C23      7.1384   5.2483   1.2114   C.3       1 RES1   0.0000
    71 H34      8.0267   5.3287   0.7797   H         1 RES1   0.0000
    72 H35      7.2816   5.1621   2.1875   H         1 RES1   0.0000
    73 C24      6.3392   6.4954   0.9363   C.2       1 RES1   0.0000
    74 H36      6.0553   7.1203   1.5934   H         1 RES1   0.0000
    75 C25      4.9997   7.4910  -0.7055   C.3       1 RES1   0.0000
    76 H37      4.8576   7.5370  -1.6741   H         1 RES1   0.0000
    77 H38      5.2193   8.3832  -0.3648   H         1 RES1   0.0000
    78 H39      4.1826   7.1677  -0.2712   H         1 RES1   0.0000
    79 C26      6.8283   3.3217  -0.3892   C.2       1 RES1   0.0000
    80 H40      7.6156   3.4380  -0.9073   H         1 RES1   0.0000
    81 C27      5.8465   2.3979  -0.6062   C.2       1 RES1   0.0000
    82 H41      5.8390   1.7485  -1.2996   H         1 RES1   0.0000
    83 P1       5.5360  10.3009   2.8008   P.3       2 RES2  -1.0000
    84 F1       5.8171  10.1651   4.3662   F         2 RES2   0.0000
    85 F2       5.2748  10.4533   1.2316   F         2 RES2   0.0000
    86 F3       6.8863   9.4955   2.4935   F         2 RES2   0.0000
    87 F4       4.7218   8.9339   2.8190   F         2 RES2   0.0000
    88 F5       4.1993  11.1247   3.1070   F         2 RES2   0.0000
    89 F6       6.3722  11.6751   2.7762   F         2 RES2   0.0000
    90 P2      -1.5186  11.7823   5.2457   P.3       3 RES3  -1.0000
    91 F7      -1.7175  13.3416   4.9813   F         3 RES3   0.0000
    92 F8      -1.3467  10.2163   5.5203   F         3 RES3   0.0000
    93 F9      -0.3862  11.7235   4.1177   F         3 RES3   0.0000
    94 F10     -0.4191  12.1047   6.3517   F         3 RES3   0.0000
    95 F11     -2.6683  11.8370   6.3683   F         3 RES3   0.0000
    96 F12     -2.6336  11.4488   4.1539   F         3 RES3   0.0000
@<TRIPOS>BOND
     1     1     5    1
     2     2    22    1
     3     3    50    1
     4     4    73    1
     5     5    15    1
     6     6    17    1
     7     7     1    1
     8     8    35    1
     9     9     1    1
    10    10     1    1
    11    11     1    1
    12    12    46    1
    13    13     1    1
    14    14    69    1
    15    15    16    1
    16    17    15    2
    17    18    17    1
    18    19     6    1
    19    20    19    1
    20    21    19    1
    21    22    19    1
    22    23    22    1
    23    24    22    1
    24    25     2    1
    25    26    25    1
    26    27    25    1
    27    28    25    1
    28    29     5    2
    29    30     7    2
    30    31    30    1
    31    32     7    1
    32    33    32    1
    33    34    32    1
    34    35    32    1
    35    36    35    1
    36    37    35    1
    37    38     8    1
    38    39    38    1
    39    40    38    1
    40    41    10    1
    41    42    41    1
    42    43    41    1
    43    44    10    2
    44    45    44    1
    45    46    11    2
    46    47    12    1
    47    48    47    1
    48    49    47    1
    49    50    47    1
    50    51    50    1
    51    52    50    1
    52    53     3    1
    53    54    53    1
    54    55    53    1
    55    56    53    1
    56    57    12    1
    57    58    57    1
    58    59    11    1
    59    60    59    1
    60    61     8    1
    61    62    61    1
    62    63    61    1
    63    64     9    1
    64    65    64    1
    65    66    64    1
    66    67     9    2
    67    68    67    1
    68    69    13    2
    69    70    14    1
    70    71    70    1
    71    72    70    1
    72    73    70    1
    73    74    73    1
    74    75     4    1
    75    76    75    1
    76    77    75    1
    77    78    75    1
    78    79    14    1
    79    80    79    1
    80    81    13    1
    81    82    81    1
    82     6    29    1
    83    29    30    1
    84    38    41    1
    85    44    46    1
    86    57    59    2
    87    61    64    1
    88    67    69    1
    89    79    81    2
    90    83    84    1
    91    85    83    1
    92    86    83    1
    93    87    83    1
    94    88    83    1
    95    89    83    1
    96    90    91    1
    97    92    90    1
    98    93    90    1
    99    94    90    1
   100    95    90    1
   101    96    90    1
@<TRIPOS>SUBSTRUCTURE
     1 RES1        1 GROUP             0 ****  ****    0  
     2 RES2       83 GROUP             0 ****  ****    0  
     3 RES3       90 GROUP             0 ****  ****    0  
@<TRIPOS>CRYSIN
   15.8280   14.3671   17.4210   90.0000  112.0778   90.0000    14     1
