@<TRIPOS>MOLECULE
TOBNON
    78    83     3     0     0
SMALL
USER_CHARGES
****
Generated from the CSD

@<TRIPOS>ATOM
     1 Fe1      4.8669  -3.1698   4.7912   Fe        1 RES1   2.0000
     2 N1       3.6465  -4.7547   4.8648   N.ar      1 RES1   0.0000
     3 N2       6.3433  -4.6659   4.9661   N.3       1 RES1   0.0000
     4 N3       4.9895  -3.1994   2.7065   N.3       1 RES1   0.0000
     5 N4       3.3931  -1.8744   4.4095   N.ar      1 RES1   0.0000
     6 N5       6.3289  -1.6927   4.9272   N.3       1 RES1   0.0000
     7 N6       4.8170  -2.9183   6.7510   N.ar      1 RES1   0.0000
     8 C1       2.3289  -4.7801   5.1285   C.ar      1 RES1   0.0000
     9 C2       1.6286  -5.9508   5.3769   C.ar      1 RES1   0.0000
    10 C3       2.2981  -7.1511   5.3520   C.ar      1 RES1   0.0000
    11 C4       3.6461  -7.1426   5.0438   C.ar      1 RES1   0.0000
    12 C5       4.2714  -5.9423   4.7732   C.ar      1 RES1   0.0000
    13 C6       5.6899  -5.8536   4.3485   C.3       1 RES1   0.0000
    14 C7       6.7072  -5.1541   6.3457   C.3       1 RES1   0.0000
    15 C8       7.5804  -4.3447   4.2360   C.3       1 RES1   0.0000
    16 C9       7.4982  -3.1973   3.2062   C.3       1 RES1   0.0000
    17 C10      8.7956  -3.2100   2.4026   C.3       1 RES1   0.0000
    18 C11      6.3703  -3.4170   2.1999   C.3       1 RES1   0.0000
    19 C12      4.0540  -4.1313   1.9862   C.3       1 RES1   0.0000
    20 C13      4.5140  -1.8300   2.3165   C.3       1 RES1   0.0000
    21 C14      3.3633  -1.4454   3.1271   C.ar      1 RES1   0.0000
    22 C15      2.2844  -0.6783   2.6538   C.ar      1 RES1   0.0000
    23 C16      1.2925  -0.3275   3.4935   C.ar      1 RES1   0.0000
    24 C17      1.3313  -0.7206   4.8218   C.ar      1 RES1   0.0000
    25 C18      2.4115  -1.4792   5.2270   C.ar      1 RES1   0.0000
    26 C19      7.4001  -1.8195   3.8877   C.3       1 RES1   0.0000
    27 C20      5.8587  -0.2832   4.9411   C.3       1 RES1   0.0000
    28 C21      6.9316  -1.8934   6.2736   C.3       1 RES1   0.0000
    29 C22      5.9118  -2.2844   7.2562   C.ar      1 RES1   0.0000
    30 C23      6.0528  -2.0836   8.6303   C.ar      1 RES1   0.0000
    31 C24      5.0835  -2.5126   9.4867   C.ar      1 RES1   0.0000
    32 C25      3.9629  -3.1423   8.9718   C.ar      1 RES1   0.0000
    33 C26      3.8950  -3.3367   7.6157   C.ar      1 RES1   0.0000
    34 H1       1.8828  -3.9939   5.2326   H         1 RES1   0.0000
    35 H2       0.7065  -5.8536   5.6629   H         1 RES1   0.0000
    36 H3       1.8848  -7.9668   5.6212   H         1 RES1   0.0000
    37 H4       4.0763  -7.9456   4.9550   H         1 RES1   0.0000
    38 H5       6.2363  -6.6777   4.5247   H         1 RES1   0.0000
    39 H6       5.8431  -5.8113   3.4005   H         1 RES1   0.0000
    40 H7       5.8005  -5.4521   6.8843   H         1 RES1   0.0000
    41 H8       7.3727  -5.9381   6.2319   H         1 RES1   0.0000
    42 H9       7.9043  -5.1562   3.7752   H         1 RES1   0.0000
    43 H10      8.2481  -4.1419   4.8717   H         1 RES1   0.0000
    44 H11      8.8534  -4.0996   1.9293   H         1 RES1   0.0000
    45 H12      8.7343  -2.3879   1.8737   H         1 RES1   0.0000
    46 H13      9.3673  -3.2332   2.8592   H         1 RES1   0.0000
    47 H14      6.5730  -2.8528   1.4712   H         1 RES1   0.0000
    48 H15      6.5331  -4.3955   1.8876   H         1 RES1   0.0000
    49 H16      4.3410  -5.1351   2.1375   H         1 RES1   0.0000
    50 H17      3.1538  -3.9728   2.1513   H         1 RES1   0.0000
    51 H18      4.1951  -4.0573   0.9299   H         1 RES1   0.0000
    52 H19      5.1974  -1.1411   2.4706   H         1 RES1   0.0000
    53 H20      4.3995  -1.7751   1.5406   H         1 RES1   0.0000
    54 H21      2.3988  -0.4226   1.8182   H         1 RES1   0.0000
    55 H22      0.6663   0.1902   3.2895   H         1 RES1   0.0000
    56 H23      0.6034  -0.4860   5.4824   H         1 RES1   0.0000
    57 H24      2.3994  -1.7962   6.1070   H         1 RES1   0.0000
    58 H25      7.4052  -1.0989   3.1784   H         1 RES1   0.0000
    59 H26      8.3283  -1.5638   4.2471   H         1 RES1   0.0000
    60 H27      5.1659  -0.2113   5.7184   H         1 RES1   0.0000
    61 H28      6.5765   0.3170   5.0522   H         1 RES1   0.0000
    62 H29      5.5961  -0.0423   4.1222   H         1 RES1   0.0000
    63 H30      7.5261  -2.5781   6.2042   H         1 RES1   0.0000
    64 H31      7.4008  -1.1623   6.4956   H         1 RES1   0.0000
    65 H32      6.9556  -1.7117   8.8413   H         1 RES1   0.0000
    66 H33      5.1037  -2.3457  10.4791   H         1 RES1   0.0000
    67 H34      3.2138  -3.4234   9.4797   H         1 RES1   0.0000
    68 H35      3.1177  -3.8249   7.2174   H         1 RES1   0.0000
    69 Cl1      0.0416  -2.8507   7.8059   Cl        2 RES2   0.0000
    70 O1      -0.2201  -3.1275   6.4096   O.3       2 RES2  -1.0000
    71 O2      -1.1593  -2.9564   8.5623   O.2       2 RES2   0.0000
    72 O3       0.9879  -3.8207   8.2764   O.2       2 RES2   0.0000
    73 O4       0.5857  -1.5321   7.9225   O.2       2 RES2   0.0000
    74 Cl2      7.2971   1.4370   1.3616   Cl        3 RES3   0.0000
    75 O5       8.0378   2.0244   0.3650   O.3       3 RES3  -1.0000
    76 O6       6.1527   2.2632   1.5670   O.2       3 RES3   0.0000
    77 O7       7.0315   0.0845   0.8869   O.2       3 RES3   0.0000
    78 O8       7.9908   1.3588   2.5872   O.2       3 RES3   0.0000
@<TRIPOS>BOND
     1     1     2    1
     2     2     8   ar
     3     3     1    1
     4     4     1    1
     5     5     1    1
     6     6     1    1
     7     7     1    1
     8     8     9   ar
     9     9    10   ar
    10    10    11   ar
    11    11    12   ar
    12    12     2   ar
    13    13     3    1
    14    14     3    1
    15    15     3    1
    16    16    15    1
    17    17    16    1
    18    18     4    1
    19    19     4    1
    20    20     4    1
    21    21     5   ar
    22    22    21   ar
    23    23    22   ar
    24    24    23   ar
    25    25     5   ar
    26    26     6    1
    27    27     6    1
    28    28     6    1
    29    29     7   ar
    30    30    29   ar
    31    31    30   ar
    32    32    31   ar
    33    33     7   ar
    34    34     8    1
    35    35     9    1
    36    36    10    1
    37    37    11    1
    38    38    13    1
    39    39    13    1
    40    40    14    1
    41    41    14    1
    42    42    15    1
    43    43    15    1
    44    44    17    1
    45    45    17    1
    46    46    17    1
    47    47    18    1
    48    48    18    1
    49    49    19    1
    50    50    19    1
    51    51    19    1
    52    52    20    1
    53    53    20    1
    54    54    22    1
    55    55    23    1
    56    56    24    1
    57    57    25    1
    58    58    26    1
    59    59    26    1
    60    60    27    1
    61    61    27    1
    62    62    27    1
    63    63    28    1
    64    64    28    1
    65    65    30    1
    66    66    31    1
    67    67    32    1
    68    68    33    1
    69    12    13    1
    70    16    18    1
    71    16    26    1
    72    20    21    1
    73    24    25   ar
    74    28    29    1
    75    32    33   ar
    76    69    70    1
    77    71    69    2
    78    72    69    2
    79    73    69    2
    80    74    75    1
    81    76    74    2
    82    77    74    2
    83    78    74    2
@<TRIPOS>SUBSTRUCTURE
     1 RES1        1 GROUP             0 ****  ****    0  
     2 RES2       69 GROUP             0 ****  ****    0  
     3 RES3       74 GROUP             0 ****  ****    0  
@<TRIPOS>CRYSIN
   10.1410   21.1320   13.8950   90.0000   92.7000   90.0000   231     1
