@<TRIPOS>MOLECULE
TOCGEA
    85    90     1     0     0
SMALL
NO_CHARGES
****
Generated from the CSD

@<TRIPOS>ATOM
     1 Fe1      2.5650   0.5704  14.2130   Fe        1 RES1   0.0000
     2 P1       3.8445   2.0567  15.3443   P.3       1 RES1   0.0000
     3 P2       1.0980   0.3625  15.9089   P.3       1 RES1   0.0000
     4 P3       3.4720  -1.4757  14.6050   P.3       1 RES1   0.0000
     5 P4       3.7464   0.8668  12.3127   P.3       1 RES1   0.0000
     6 N1       0.4789   2.1140  12.9540   N.2       1 RES1   0.0000
     7 C1       1.0961  -0.2161  13.0669   C.ar      1 RES1   0.0000
     8 C2       0.2000   0.7839  12.6055   C.ar      1 RES1   0.0000
     9 C3      -0.9304   0.4941  11.8320   C.ar      1 RES1   0.0000
    10 H1      -1.5030   1.1976  11.5463   H         1 RES1   0.0000
    11 C4      -1.2150  -0.8196  11.4792   C.ar      1 RES1   0.0000
    12 H2      -1.9819  -1.0265  10.9576   H         1 RES1   0.0000
    13 C5      -0.3612  -1.8206  11.9040   C.ar      1 RES1   0.0000
    14 H3      -0.5406  -2.7232  11.6690   H         1 RES1   0.0000
    15 C6       0.7589  -1.5193  12.6715   C.ar      1 RES1   0.0000
    16 H4       1.3247  -2.2330  12.9422   H         1 RES1   0.0000
    17 C7       1.5567   2.1772  13.6866   C.2       1 RES1   0.0000
    18 C8       1.9727   3.5527  14.0797   C.ar      1 RES1   0.0000
    19 C9       3.0883   3.6677  14.9047   C.ar      1 RES1   0.0000
    20 C10      3.5569   4.9387  15.2816   C.ar      1 RES1   0.0000
    21 H5       4.3101   5.0162  15.8567   H         1 RES1   0.0000
    22 C11      2.9214   6.0752  14.8162   C.ar      1 RES1   0.0000
    23 H6       3.2426   6.9338  15.0651   H         1 RES1   0.0000
    24 C12      1.8116   5.9584  13.9829   C.ar      1 RES1   0.0000
    25 H7       1.3830   6.7410  13.6558   H         1 RES1   0.0000
    26 C13      1.3304   4.7136  13.6279   C.ar      1 RES1   0.0000
    27 H8       0.5601   4.6434  13.0760   H         1 RES1   0.0000
    28 C14      5.6417   2.3874  14.9609   C.ar      1 RES1   0.0000
    29 C15      6.6360   1.5001  15.3755   C.ar      1 RES1   0.0000
    30 H9       6.3983   0.7609  15.9236   H         1 RES1   0.0000
    31 C16      7.9641   1.6687  15.0075   C.ar      1 RES1   0.0000
    32 H10      8.6156   1.0443  15.3037   H         1 RES1   0.0000
    33 C17      8.3493   2.7334  14.2164   C.ar      1 RES1   0.0000
    34 H11      9.2568   2.8458  13.9590   H         1 RES1   0.0000
    35 C18      7.3847   3.6284  13.8092   C.ar      1 RES1   0.0000
    36 H12      7.6350   4.3715  13.2722   H         1 RES1   0.0000
    37 C19      6.0497   3.4663  14.1695   C.ar      1 RES1   0.0000
    38 H13      5.4051   4.0982  13.8721   H         1 RES1   0.0000
    39 C20      3.9124   2.2063  17.2026   C.ar      1 RES1   0.0000
    40 C21      4.6633   1.3227  17.9831   C.ar      1 RES1   0.0000
    41 H14      5.1490   0.6243  17.5581   H         1 RES1   0.0000
    42 C22      4.7136   1.4427  19.3665   C.ar      1 RES1   0.0000
    43 H15      5.2393   0.8388  19.8772   H         1 RES1   0.0000
    44 C23      4.0004   2.4411  20.0000   C.ar      1 RES1   0.0000
    45 H16      4.0449   2.5304  20.9453   H         1 RES1   0.0000
    46 C24      3.2254   3.3028  19.2630   C.ar      1 RES1   0.0000
    47 H17      2.7191   3.9782  19.7010   H         1 RES1   0.0000
    48 C25      3.1820   3.1892  17.8729   C.ar      1 RES1   0.0000
    49 H18      2.6448   3.7931  17.3730   H         1 RES1   0.0000
    50 C26     -0.3452  -0.7533  15.6787   C.3       1 RES1   0.0000
    51 H19     -0.8652  -0.4583  14.9023   H         1 RES1   0.0000
    52 H20     -0.9098  -0.7252  16.4788   H         1 RES1   0.0000
    53 H21     -0.0297  -1.6687  15.5333   H         1 RES1   0.0000
    54 C27      1.6516  -0.1634  17.5915   C.3       1 RES1   0.0000
    55 H22      2.4551  -0.7175  17.5135   H         1 RES1   0.0000
    56 H23      0.9384  -0.6805  18.0219   H         1 RES1   0.0000
    57 H24      1.8527   0.6294  18.1312   H         1 RES1   0.0000
    58 C28      0.1566   1.8614  16.3847   C.3       1 RES1   0.0000
    59 H25      0.7784   2.5560  16.6862   H         1 RES1   0.0000
    60 H26     -0.4640   1.6406  17.1099   H         1 RES1   0.0000
    61 H27     -0.3486   2.1883  15.6114   H         1 RES1   0.0000
    62 C29      4.0609  -2.5126  13.1946   C.3       1 RES1   0.0000
    63 H28      3.3352  -2.6236  12.5453   H         1 RES1   0.0000
    64 H29      4.3375  -3.3909  13.5287   H         1 RES1   0.0000
    65 H30      4.8221  -2.0734  12.7616   H         1 RES1   0.0000
    66 C30      2.4654  -2.7832  15.4319   C.3       1 RES1   0.0000
    67 H31      2.2048  -2.4781  16.3250   H         1 RES1   0.0000
    68 H32      2.9957  -3.6042  15.5088   H         1 RES1   0.0000
    69 H33      1.6619  -2.9620  14.9001   H         1 RES1   0.0000
    70 C31      4.9627  -1.6559  15.6475   C.3       1 RES1   0.0000
    71 H34      5.7068  -1.1644  15.2412   H         1 RES1   0.0000
    72 H35      5.1982  -2.6045  15.7207   H         1 RES1   0.0000
    73 H36      4.7821  -1.2946  16.5412   H         1 RES1   0.0000
    74 C32      3.1923  -0.0536  10.8229   C.3       1 RES1   0.0000
    75 H37      2.2505   0.1494  10.6454   H         1 RES1   0.0000
    76 H38      3.2963  -1.0163  10.9755   H         1 RES1   0.0000
    77 H39      3.7363   0.2145  10.0523   H         1 RES1   0.0000
    78 C33      5.5582   0.5107  12.2423   C.3       1 RES1   0.0000
    79 H40      5.7811   0.1226  11.3702   H         1 RES1   0.0000
    80 H41      5.7948  -0.1213  12.9534   H         1 RES1   0.0000
    81 H42      6.0588   1.3444  12.3647   H         1 RES1   0.0000
    82 C34      3.7466   2.5419  11.5807   C.3       1 RES1   0.0000
    83 H43      4.3032   2.5458  10.7748   H         1 RES1   0.0000
    84 H44      4.1078   3.1816  12.2287   H         1 RES1   0.0000
    85 H45      2.8300   2.7973  11.3456   H         1 RES1   0.0000
@<TRIPOS>BOND
     1     1     2    1
     2     2    19    1
     3     3     1    1
     4     4     1    1
     5     5     1    1
     6     6     8    1
     7     7     1    1
     8     8     7   ar
     9     9     8   ar
    10    10     9    1
    11    11     9   ar
    12    12    11    1
    13    13    11   ar
    14    14    13    1
    15    15     7   ar
    16    16    15    1
    17    17     1    1
    18    18    17    1
    19    19    18   ar
    20    20    19   ar
    21    21    20    1
    22    22    20   ar
    23    23    22    1
    24    24    22   ar
    25    25    24    1
    26    26    18   ar
    27    27    26    1
    28    28     2    1
    29    29    28   ar
    30    30    29    1
    31    31    29   ar
    32    32    31    1
    33    33    31   ar
    34    34    33    1
    35    35    33   ar
    36    36    35    1
    37    37    28   ar
    38    38    37    1
    39    39     2    1
    40    40    39   ar
    41    41    40    1
    42    42    40   ar
    43    43    42    1
    44    44    42   ar
    45    45    44    1
    46    46    44   ar
    47    47    46    1
    48    48    39   ar
    49    49    48    1
    50    50     3    1
    51    51    50    1
    52    52    50    1
    53    53    50    1
    54    54     3    1
    55    55    54    1
    56    56    54    1
    57    57    54    1
    58    58     3    1
    59    59    58    1
    60    60    58    1
    61    61    58    1
    62    62     4    1
    63    63    62    1
    64    64    62    1
    65    65    62    1
    66    66     4    1
    67    67    66    1
    68    68    66    1
    69    69    66    1
    70    70     4    1
    71    71    70    1
    72    72    70    1
    73    73    70    1
    74    74     5    1
    75    75    74    1
    76    76    74    1
    77    77    74    1
    78    78     5    1
    79    79    78    1
    80    80    78    1
    81    81    78    1
    82    82     5    1
    83    83    82    1
    84    84    82    1
    85    85    82    1
    86     6    17    2
    87    13    15   ar
    88    24    26   ar
    89    35    37   ar
    90    46    48   ar
@<TRIPOS>SUBSTRUCTURE
     1 RES1        1 GROUP             0 ****  ****    0  
@<TRIPOS>CRYSIN
   11.4296   12.7671   22.2988   90.0000   90.0000   90.0000    19     1
