@<TRIPOS>MOLECULE
TODSAJ
    94    97     5     0     0
SMALL
USER_CHARGES
****
Generated from the CSD

@<TRIPOS>ATOM
     1 C1       8.7335   8.4162   5.8733   C.3       1 RES1   0.0000
     2 H1       7.9255   8.6828   6.3794   H         1 RES1   0.0000
     3 H2       9.4520   9.0657   6.0782   H         1 RES1   0.0000
     4 C2       9.1672   7.0289   6.3081   C.3       1 RES1   0.0000
     5 H3       9.4339   7.0520   7.2612   H         1 RES1   0.0000
     6 H4       8.4052   6.4035   6.2186   H         1 RES1   0.0000
     7 C3       7.0510   8.0940   4.1038   C.3       1 RES1   0.0000
     8 H5       6.4567   8.8589   4.3089   H         1 RES1   0.0000
     9 H6       6.7678   7.3251   4.6592   H         1 RES1   0.0000
    10 C4       6.9329   7.7363   2.6397   C.ar      1 RES1   0.0000
    11 C5       5.7298   7.8166   1.9655   C.ar      1 RES1   0.0000
    12 H7       4.9515   8.1433   2.4030   H         1 RES1   0.0000
    13 C6       5.6787   7.4130   0.6480   C.ar      1 RES1   0.0000
    14 H8       4.8578   7.4451   0.1710   H         1 RES1   0.0000
    15 C7       6.8222   6.9647   0.0272   C.ar      1 RES1   0.0000
    16 H9       6.8016   6.6874  -0.8819   H         1 RES1   0.0000
    17 C8       7.9870   6.9258   0.7367   C.ar      1 RES1   0.0000
    18 H10      8.7780   6.6235   0.3061   H         1 RES1   0.0000
    19 C9       8.7763   9.7793   3.8623   C.3       1 RES1   0.0000
    20 H11      8.5333  10.4803   4.5171   H         1 RES1   0.0000
    21 H12      8.2481   9.9328   3.0392   H         1 RES1   0.0000
    22 C10     10.2449   9.8836   3.5398   C.ar      1 RES1   0.0000
    23 C11     10.9411  11.0645   3.6554   C.ar      1 RES1   0.0000
    24 H13     10.5221  11.8387   4.0112   H         1 RES1   0.0000
    25 C12     12.2583  11.1058   3.2460   C.ar      1 RES1   0.0000
    26 H14     12.7586  11.9101   3.3123   H         1 RES1   0.0000
    27 C13     12.8354   9.9639   2.7416   C.ar      1 RES1   0.0000
    28 H15     13.7381   9.9764   2.4441   H         1 RES1   0.0000
    29 C14     12.0952   8.7979   2.6676   C.ar      1 RES1   0.0000
    30 H16     12.5021   8.0102   2.3271   H         1 RES1   0.0000
    31 C15     10.4147   5.0674   5.5933   C.3       1 RES1   0.0000
    32 H17     10.4417   4.8091   6.5486   H         1 RES1   0.0000
    33 H18     11.2622   4.7737   5.1744   H         1 RES1   0.0000
    34 C16      9.2663   4.3715   4.9255   C.ar      1 RES1   0.0000
    35 C17      8.9199   3.0610   5.2969   C.ar      1 RES1   0.0000
    36 H19      9.3857   2.6059   5.9887   H         1 RES1   0.0000
    37 C18      7.8736   2.4569   4.6178   C.ar      1 RES1   0.0000
    38 H20      7.6206   1.5675   4.8372   H         1 RES1   0.0000
    39 C19      7.2020   3.1310   3.6360   C.ar      1 RES1   0.0000
    40 H21      6.4791   2.7230   3.1737   H         1 RES1   0.0000
    41 C20      7.6027   4.4265   3.3299   C.ar      1 RES1   0.0000
    42 H22      7.1341   4.9019   2.6538   H         1 RES1   0.0000
    43 C21     11.5955   7.1986   5.8442   C.3       1 RES1   0.0000
    44 H23     11.4940   8.1743   5.7082   H         1 RES1   0.0000
    45 H24     12.2901   6.8825   5.2139   H         1 RES1   0.0000
    46 C22     12.0863   6.9659   7.2435   C.ar      1 RES1   0.0000
    47 C23     11.8252   7.8773   8.2565   C.ar      1 RES1   0.0000
    48 H25     11.3159   8.6587   8.0746   H         1 RES1   0.0000
    49 C24     12.3121   7.6446   9.5441   C.ar      1 RES1   0.0000
    50 H26     12.1615   8.2679  10.2435   H         1 RES1   0.0000
    51 C25     13.0412   6.4477   9.7750   C.ar      1 RES1   0.0000
    52 H27     13.3969   6.2868  10.6415   H         1 RES1   0.0000
    53 C26     13.2485   5.5053   8.7796   C.ar      1 RES1   0.0000
    54 C27     12.8058   5.7931   7.5165   C.ar      1 RES1   0.0000
    55 H28     12.9902   5.1855   6.8090   H         1 RES1   0.0000
    56 C28     13.9182   4.1720   9.0183   C.3       1 RES1   0.0000
    57 H29     13.6704   3.8388   9.9160   H         1 RES1   0.0000
    58 H30     13.5911   3.5187   8.3494   H         1 RES1   0.0000
    59 C29     16.0388   2.9407   8.9232   C.3       1 RES1   0.0000
    60 H31     15.8295   2.4621   8.0821   H         1 RES1   0.0000
    61 H32     15.7046   2.3912   9.6767   H         1 RES1   0.0000
    62 C30     17.5654   3.1035   9.0512   C.3       1 RES1   0.0000
    63 H33     17.9035   3.6254   8.2927   H         1 RES1   0.0000
    64 H34     17.9901   2.2194   9.0522   H         1 RES1   0.0000
    65 H35     17.7772   3.5680   9.8871   H         1 RES1   0.0000
    66 N1       8.4390   8.4483   4.4205   N.3       1 RES1   0.0000
    67 N2      10.3052   6.5394   5.4899   N.3       1 RES1   0.0000
    68 N3       8.0516   7.3041   2.0408   N.ar      1 RES1   0.0000
    69 N4      10.8098   8.7552   3.0683   N.ar      1 RES1   0.0000
    70 N5       8.6337   5.0375   3.9573   N.ar      1 RES1   0.0000
    71 N6      15.3336   4.2637   8.9271   N.3       1 RES1   0.0000
    72 H36     15.6337   4.7470   9.6379   H         1 RES1   0.0000
    73 O1      11.0812   5.9078   2.5014   O.3       1 RES1   0.0000
    74 H37     10.6250   6.1909   1.8452   H         1 RES1   0.0000
    75 H38     11.1734   4.9573   2.5243   H         1 RES1   0.0000
    76 Fe1      9.6892   6.9117   3.3692   Fe        1 RES1   2.0000
    77 F1      17.0436   5.7117  13.6516   F         2 RES2   0.0000
    78 F2      15.4957   6.6713  12.3594   F         2 RES2   0.0000
    79 B1      16.5145   5.7541  12.3807   B         2 RES2  -1.0000
    80 F3      17.5314   6.0510  11.4785   F         2 RES2   0.0000
    81 F4      16.0833   4.3244  12.0897   F         2 RES2   0.0000
    82 F5       8.8792  12.3921   8.7777   F         3 RES3   0.0000
    83 B2       8.9802  11.2559   8.0307   B         3 RES3  -1.0000
    84 F6       9.1131  10.1232   8.6108   F         3 RES3   0.0000
    85 F7       9.0512  11.5059   6.8840   F         3 RES3   0.0000
    86 F8       7.9020  11.0461   8.0869   F         3 RES3   0.0000
    87 O2      11.8197  12.2098   7.8599   O.3       4 RES4   0.0000
    88 H39     11.1850  11.6136   7.4311   H         4 RES4   0.0000
    89 H40     11.6720  13.0582   7.4311   H         4 RES4   0.0000
    90 F9      13.6320   2.6942   3.4536   F         5 RES5   0.0000
    91 F10     14.7430   2.2941   4.5072   F         5 RES5   0.0000
    92 B3      13.6792   2.9923   4.8506   B         5 RES5  -1.0000
    93 F9A     13.7265   2.6942   6.2476   F         5 RES5   0.0000
    94 F10A    12.6155   2.2941   5.1940   F         5 RES5   0.0000
@<TRIPOS>BOND
     1     1     2    1
     2     3     1    1
     3     4     1    1
     4     5     4    1
     5     6     4    1
     6     7     8    1
     7     9     7    1
     8    10     7    1
     9    11    10   ar
    10    12    11    1
    11    13    11   ar
    12    14    13    1
    13    15    13   ar
    14    16    15    1
    15    17    15   ar
    16    18    17    1
    17    19    20    1
    18    21    19    1
    19    22    19    1
    20    23    22   ar
    21    24    23    1
    22    25    23   ar
    23    26    25    1
    24    27    25   ar
    25    28    27    1
    26    29    27   ar
    27    30    29    1
    28    31    32    1
    29    33    31    1
    30    34    31    1
    31    35    34   ar
    32    36    35    1
    33    37    35   ar
    34    38    37    1
    35    39    37   ar
    36    40    39    1
    37    41    39   ar
    38    42    41    1
    39    43    44    1
    40    45    43    1
    41    46    43    1
    42    47    46   ar
    43    48    47    1
    44    49    47   ar
    45    50    49    1
    46    51    49   ar
    47    52    51    1
    48    53    51   ar
    49    54    46   ar
    50    55    54    1
    51    56    53    1
    52    57    56    1
    53    58    56    1
    54    59    60    1
    55    61    59    1
    56    62    59    1
    57    63    62    1
    58    64    62    1
    59    65    62    1
    60    66     1    1
    61    67     4    1
    62    68    10   ar
    63    69    22   ar
    64    70    34   ar
    65    71    56    1
    66    72    71    1
    67    73    74    1
    68    75    73    1
    69    76    66    1
    70     7    66    1
    71    17    68   ar
    72    19    66    1
    73    29    69   ar
    74    31    67    1
    75    41    70   ar
    76    43    67    1
    77    53    54   ar
    78    59    71    1
    79    67    76    1
    80    68    76    1
    81    69    76    1
    82    70    76    1
    83    73    76    1
    84    77    79    1
    85    78    79    1
    86    79    80    1
    87    81    79    1
    88    82    83    1
    89    83    84    1
    90    85    83    1
    91    86    83    1
    92    87    88    1
    93    89    87    1
    94    90    92    1
    95    91    92    1
    96    92    93    1
    97    94    92    1
@<TRIPOS>SUBSTRUCTURE
     1 RES1        1 GROUP             0 ****  ****    0  
     2 RES2       77 GROUP             0 ****  ****    0  
     3 RES3       82 GROUP             0 ****  ****    0  
     4 RES4       87 GROUP             0 ****  ****    0  
     5 RES5       90 GROUP             0 ****  ****    0  
@<TRIPOS>CRYSIN
   32.4636   11.4646   21.9250   90.0000  117.7550   90.0000    15     1
