@<TRIPOS>MOLECULE
TONLUH
   190   207    10     0     0
SMALL
USER_CHARGES
****
Generated from the CSD

@<TRIPOS>ATOM
     1 Fe1      4.3139   5.0395   8.8426   Fe        1 RES1  -3.0000
     2 O1       3.2693   6.1713   7.5668   O.co2     1 RES1   0.0000
     3 O2       4.0395   6.6698   9.9803   O.co2     1 RES1   0.0000
     4 O3       2.2780   8.1365   7.3777   O.co2     1 RES1   0.0000
     5 O4       3.1374   8.6719   9.9315   O.co2     1 RES1   0.0000
     6 O5       6.0420   5.6570   8.0649   O.co2     1 RES1   0.0000
     7 O6       5.5804   4.1808  10.1574   O.co2     1 RES1   0.0000
     8 O7       8.1691   5.8620   8.6230   O.co2     1 RES1   0.0000
     9 O8       7.7645   3.7910  10.4581   O.co2     1 RES1   0.0000
    10 O9       4.1412   3.4513   7.6664   O.co2     1 RES1   0.0000
    11 O10      2.7432   4.1699   9.7365   O.co2     1 RES1   0.0000
    12 O11      2.9940   1.5611   7.4896   O.co2     1 RES1   0.0000
    13 O12      1.5101   2.3531   9.6537   O.co2     1 RES1   0.0000
    14 C1       2.9198   7.3166   7.9962   C.2       1 RES1   0.0000
    15 C2       3.3717   7.5972   9.4225   C.2       1 RES1   0.0000
    16 C3       7.0511   5.3696   8.7574   C.2       1 RES1   0.0000
    17 C4       6.8029   4.3541   9.8943   C.2       1 RES1   0.0000
    18 C5       3.2068   2.6375   8.0323   C.2       1 RES1   0.0000
    19 C6       2.4121   3.0432   9.2240   C.2       1 RES1   0.0000
    20 S1       5.1721   5.6893  -5.6917   S.3       2 RES2   0.0000
    21 S2       4.6851   2.2417  -5.5546   S.3       2 RES2   0.0000
    22 S3       4.7764   5.5673  -2.7583   S.3       2 RES2   0.0000
    23 S4       4.3625   2.6779  -2.6738   S.3       2 RES2   0.0000
    24 S5       4.0045   5.8103   0.3305   S.3       2 RES2   1.0000
    25 S6       3.6627   2.9086   0.5041   S.3       2 RES2   0.0000
    26 S7       3.0262   6.3311   3.0702   S.3       2 RES2   0.0000
    27 S8       2.5948   2.8939   3.2133   S.3       2 RES2   0.0000
    28 C7       4.3142   4.6684  -6.9094   C.3       2 RES2   0.0000
    29 C8       4.9082   3.2955  -7.0097   C.3       2 RES2   0.0000
    30 C9       4.8759   4.7220  -4.2777   C.2       2 RES2   0.0000
    31 C10      4.6758   3.3861  -4.2387   C.2       2 RES2   0.0000
    32 C11      4.3738   4.1817  -1.8182   C.2       2 RES2   0.0000
    33 C12      4.0525   4.2880  -0.4880   C.2       2 RES2   0.0000
    34 C13      3.3490   5.1832   1.8126   C.2       2 RES2   0.0000
    35 C14      3.1960   3.8411   1.8982   C.2       2 RES2   0.0000
    36 C15      3.3068   5.2590   4.4832   C.3       2 RES2   0.0000
    37 C16      2.4248   4.0721   4.5653   C.3       2 RES2   0.0000
    38 H1       3.3796   4.5946  -6.6624   H         2 RES2   0.0000
    39 H2       4.3607   5.1001  -7.7769   H         2 RES2   0.0000
    40 H3       5.8587   3.3845  -7.1805   H         2 RES2   0.0000
    41 H4       4.5154   2.8476  -7.7755   H         2 RES2   0.0000
    42 H5       4.2277   4.9561   4.4601   H         2 RES2   0.0000
    43 H6       3.1924   5.7823   5.2922   H         2 RES2   0.0000
    44 H7       1.5040   4.3751   4.5951   H         2 RES2   0.0000
    45 H8       2.6072   3.6114   5.3992   H         2 RES2   0.0000
    46 S9       8.6055   3.6410  -5.1561   S.3       3 RES3   0.0000
    47 S10      8.2373   0.1468  -5.0129   S.3       3 RES3   0.0000
    48 S11      8.2162   3.4978  -2.2413   S.3       3 RES3   0.0000
    49 S12      7.8759   0.5974  -2.1416   S.3       3 RES3   0.0000
    50 S13      7.5396   3.7087   0.8907   S.3       3 RES3   1.0000
    51 S14      7.1173   0.8090   1.0064   S.3       3 RES3   0.0000
    52 S15      6.9143   4.2047   3.7059   S.3       3 RES3   0.0000
    53 S16      6.3366   0.7432   3.8269   S.3       3 RES3   0.0000
    54 C17      9.1698   2.4118  -6.3327   C.3       3 RES3   0.0000
    55 C18      8.2864   1.2236  -6.4446   C.3       3 RES3   0.0000
    56 C19      8.3265   2.6421  -3.7581   C.2       3 RES3   0.0000
    57 C20      8.1745   1.2995  -3.7139   C.2       3 RES3   0.0000
    58 C21      7.8344   2.0994  -1.2885   C.2       3 RES3   0.0000
    59 C22      7.5360   2.2014   0.0431   C.2       3 RES3   0.0000
    60 C23      7.0537   3.0398   2.4325   C.2       3 RES3   0.0000
    61 C24      6.8513   1.6995   2.4774   C.2       3 RES3   0.0000
    62 C25      6.7613   3.1485   5.1501   C.3       3 RES3   0.0000
    63 C26      5.8028   2.0111   4.9796   C.3       3 RES3   0.0000
    64 H9       9.2433   2.8273  -7.2058   H         3 RES3   0.0000
    65 H10     10.0560   2.1158  -6.0724   H         3 RES3   0.0000
    66 H11      8.5740   0.7014  -7.2093   H         3 RES3   0.0000
    67 H12      7.3844   1.5313  -6.6256   H         3 RES3   0.0000
    68 H13      7.6359   2.7891   5.3666   H         3 RES3   0.0000
    69 H14      6.4720   3.6894   5.9015   H         3 RES3   0.0000
    70 H15      4.9535   2.3668   4.6765   H         3 RES3   0.0000
    71 H16      5.6562   1.5997   5.8454   H         3 RES3   0.0000
    72 S17     12.3466   1.3434  -4.5057   S.3       4 RES4   0.0000
    73 S18     11.9210  -2.1480  -4.2580   S.3       4 RES4   0.0000
    74 S19     11.6618   1.3050  -1.6540   S.3       4 RES4   0.0000
    75 S20     11.3294  -1.5888  -1.4586   S.3       4 RES4   0.0000
    76 C27     12.7263   0.0613  -5.7146   C.3       4 RES4   0.0000
    77 C28     11.7942  -1.1090  -5.7244   C.3       4 RES4   0.0000
    78 C29     11.9200   0.3976  -3.1204   C.2       4 RES4   0.0000
    79 C30     11.7653  -0.9544  -3.0232   C.2       4 RES4   0.0000
    80 C31     11.2885  -0.0646  -0.6599   C.2       4 RES4   0.0000
    81 H17     12.7239   0.4628  -6.5979   H         4 RES4   0.0000
    82 H18     13.6247  -0.2632  -5.5451   H         4 RES4   0.0000
    83 H19     11.9786  -1.6503  -6.5081   H         4 RES4   0.0000
    84 H20     10.8833  -0.7836  -5.7991   H         4 RES4   0.0000
    85 S17A     9.9000  -1.3434   4.5057   S.3       4 RES4   0.0000
    86 S18A    10.3256   2.1480   4.2580   S.3       4 RES4   0.0000
    87 S19A    10.5848  -1.3050   1.6540   S.3       4 RES4   1.0000
    88 S20A    10.9172   1.5888   1.4586   S.3       4 RES4   0.0000
    89 C27A     9.5203  -0.0613   5.7146   C.3       4 RES4   0.0000
    90 C28A    10.4524   1.1090   5.7244   C.3       4 RES4   0.0000
    91 C29A    10.3266  -0.3976   3.1204   C.2       4 RES4   0.0000
    92 C30A    10.4813   0.9544   3.0232   C.2       4 RES4   0.0000
    93 C31A    10.9581   0.0646   0.6599   C.2       4 RES4   0.0000
    94 H17A     9.5227  -0.4628   6.5979   H         4 RES4   0.0000
    95 H18A     8.6219   0.2632   5.5451   H         4 RES4   0.0000
    96 H19A    10.2680   1.6503   6.5081   H         4 RES4   0.0000
    97 H20A    11.3633   0.7836   5.7991   H         4 RES4   0.0000
    98 S21      4.4909   6.2534  14.1541   S.3       5 RES5   0.0000
    99 S22      3.2387   2.9914  14.2443   S.3       5 RES5   0.0000
   100 S23      5.2886   5.7211  16.9219   S.3       5 RES5   0.0000
   101 S24      4.3788   2.9480  16.9384   S.3       5 RES5   0.0000
   102 S25      6.4652   5.3301  19.9087   S.3       5 RES5   0.0000
   103 S26      5.5221   2.5699  19.9164   S.3       5 RES5   0.0000
   104 S27      7.7052   5.1542  22.6116   S.3       5 RES5   0.0000
   105 S28      6.5778   1.9705  22.6291   S.3       5 RES5   0.0000
   106 C32      3.5025   5.4421  12.9758   C.3       5 RES5   0.0000
   107 C33      3.5064   4.0191  12.8197   C.3       5 RES5   0.0000
   108 C34      4.5243   5.1300  15.4784   C.2       5 RES5   0.0000
   109 C35      4.0860   3.8476  15.4938   C.2       5 RES5   0.0000
   110 C36      5.1921   4.2136  17.7747   C.2       5 RES5   0.0000
   111 C37      5.6810   4.0529  19.0503   C.2       5 RES5   0.0000
   112 C38      6.8265   4.3712  21.3322   C.2       5 RES5   0.0000
   113 C39      6.3931   3.1022  21.3192   C.2       5 RES5   0.0000
   114 C40      6.9797   4.3497  24.0541   C.3       5 RES5   0.0000
   115 C41      6.6043   3.0454  24.0088   C.3       5 RES5   0.0000
   116 H21      2.5847   5.7006  13.1557   H         5 RES5   0.0000
   117 H22      3.7320   5.8187  12.1118   H         5 RES5   0.0000
   118 H23      4.3620   3.7705  12.4363   H         5 RES5   0.0000
   119 H24      2.8263   3.7954  12.1654   H         5 RES5   0.0000
   120 H25      7.6155   4.4383  24.7809   H         5 RES5   0.0000
   121 H26      6.1953   4.8633  24.3032   H         5 RES5   0.0000
   122 H27      5.7013   3.0278  24.3617   H         5 RES5   0.0000
   123 H28      7.1574   2.5984  24.6683   H         5 RES5   0.0000
   124 S29      7.7143   3.7889  14.9368   S.3       6 RES6   0.0000
   125 S30      7.3492   0.2914  14.7372   S.3       6 RES6   0.0000
   126 S31      8.8587   3.2082  17.5860   S.3       6 RES6   0.0000
   127 S32      8.5939   0.2944  17.3710   S.3       6 RES6   0.0000
   128 S33      9.9460   2.8525  20.6187   S.3       6 RES6   0.0000
   129 S34      9.7837  -0.0507  20.3356   S.3       6 RES6   0.0000
   130 S35     10.7349   2.8326  23.4332   S.3       6 RES6   0.0000
   131 S36     10.3940  -0.6622  23.1445   S.3       6 RES6   0.0000
   132 C42      7.5658   2.7628  13.4630   C.3       6 RES6   0.0000
   133 C43      6.6680   1.5654  13.6591   C.3       6 RES6   0.0000
   134 C44      8.1538   2.5850  16.1172   C.2       6 RES6   0.0000
   135 C45      8.0254   1.2445  16.0306   C.2       6 RES6   0.0000
   136 C46      9.0462   1.6600  18.3399   C.2       6 RES6   0.0000
   137 C47      9.5298   1.5120  19.6305   C.2       6 RES6   0.0000
   138 C48     10.2955   1.9010  22.0419   C.2       6 RES6   0.0000
   139 C49     10.1952   0.5513  21.9177   C.2       6 RES6   0.0000
   140 C50     11.1278   1.5565  24.6045   C.3       6 RES6   0.0000
   141 C51     10.4061   0.3448  24.6059   C.3       6 RES6   0.0000
   142 H29      7.2166   3.3025  12.7372   H         6 RES6   0.0000
   143 H30      8.4485   2.4543  13.2042   H         6 RES6   0.0000
   144 H31      6.4816   1.1717  12.7927   H         6 RES6   0.0000
   145 H32      5.8244   1.8680  14.0310   H         6 RES6   0.0000
   146 H33     12.0640   1.3332  24.4835   H         6 RES6   0.0000
   147 H34     11.0428   1.9426  25.4903   H         6 RES6   0.0000
   148 H35      9.4842   0.5542  24.8227   H         6 RES6   0.0000
   149 H36     10.7510  -0.1994  25.3313   H         6 RES6   0.0000
   150 S37     11.2264   2.0213  13.4294   S.3       7 RES7   0.0000
   151 S38     10.8206  -1.4455  13.0779   S.3       7 RES7   0.0000
   152 S39     12.0065   1.3714  16.1702   S.3       7 RES7   0.0000
   153 S40     11.6908  -1.5258  15.9109   S.3       7 RES7   0.0000
   154 C52     10.7989   1.0842  11.9514   C.3       7 RES7   0.0000
   155 C53      9.9566  -0.1326  12.2075   C.3       7 RES7   0.0000
   156 C54     11.4993   0.7707  14.6144   C.2       7 RES7   0.0000
   157 C55     11.3452  -0.5691  14.4814   C.2       7 RES7   0.0000
   158 C56     12.1829  -0.1943  16.8981   C.2       7 RES7   0.0000
   159 H37     10.3219   1.6686  11.3410   H         7 RES7   0.0000
   160 H38     11.6178   0.8074  11.5119   H         7 RES7   0.0000
   161 H39      9.7225  -0.3277  11.3923   H         7 RES7   0.0000
   162 H40      9.2620   0.2407  12.5762   H         7 RES7   0.0000
   163 S37A    13.6145  -2.5643  21.6507   S.3       7 RES7   0.0000
   164 S38A    14.0203   0.9025  22.0022   S.3       7 RES7   0.0000
   165 S39A    12.8344  -1.9144  18.9099   S.3       7 RES7   1.0000
   166 S40A    13.1501   0.9828  19.1692   S.3       7 RES7   0.0000
   167 C52A    14.0420  -1.6272  23.1287   C.3       7 RES7   0.0000
   168 C53A    14.8843  -0.4105  22.8726   C.3       7 RES7   0.0000
   169 C54A    13.3416  -1.3137  20.4657   C.2       7 RES7   0.0000
   170 C55A    13.4957   0.0261  20.5987   C.2       7 RES7   0.0000
   171 C56A    12.6580  -0.3487  18.1820   C.2       7 RES7   0.0000
   172 H37A    14.5190  -2.2116  23.7391   H         7 RES7   0.0000
   173 H38A    13.2231  -1.3504  23.5682   H         7 RES7   0.0000
   174 H39A    15.1184  -0.2153  23.6878   H         7 RES7   0.0000
   175 H40A    15.5789  -0.7837  22.5039   H         7 RES7   0.0000
   176 O13      0.3417   0.0055   8.5420   O.3       8 RES8   0.0000
   177 H41      0.7790   0.2574   7.8800   H         8 RES8   0.0000
   178 H42     -0.3503   0.4767   8.7167   H         8 RES8   0.0000
   179 O14      9.9315   3.1305   8.4894   O.3       9 RES9   0.0000
   180 H43      9.2511   2.7050   8.7455   H         9 RES9   0.0000
   181 H44     10.3132   3.3923   9.1934   H         9 RES9   0.0000
   182 O15      6.3220   0.6747   8.3421   O.3      10 RES10   0.0000
   183 C57      7.2332   0.5021   9.4716   C.3      10 RES10   0.0000
   184 C58      7.8935  -0.7726   9.2647   C.3      10 RES10   0.0000
   185 H45      6.1425   1.4696   8.2540   H        10 RES10   0.0000
   186 H46      7.8777   1.2234   9.4997   H        10 RES10   0.0000
   187 H47      6.7360   0.4958  10.3069   H        10 RES10   0.0000
   188 H48      8.8277  -0.6205   9.0970   H        10 RES10   0.0000
   189 H49      7.5017  -1.2179   8.5118   H        10 RES10   0.0000
   190 H50      7.7939  -1.3153  10.0487   H        10 RES10   0.0000
@<TRIPOS>BOND
     1     1     2    1
     2     2    14    1
     3     3     1    1
     4     4    14    2
     5     5    15    2
     6     6     1    1
     7     7     1    1
     8     8    16    2
     9     9    17    2
    10    10     1    1
    11    11     1    1
    12    12    18    2
    13    13    19    2
    14    14    15    1
    15    15     3    1
    16    16     6    1
    17    17     7    1
    18    18    10    1
    19    19    11    1
    20    16    17    1
    21    18    19    1
    22    20    28    1
    23    21    29    1
    24    22    30    1
    25    23    31    1
    26    24    33    1
    27    25    33    1
    28    26    34    1
    29    27    35    1
    30    28    29    1
    31    29    40    1
    32    30    20    1
    33    31    21    1
    34    32    22    1
    35    33    32    2
    36    34    24    1
    37    35    25    1
    38    36    26    1
    39    37    27    1
    40    38    28    1
    41    39    28    1
    42    41    29    1
    43    42    36    1
    44    43    36    1
    45    44    37    1
    46    45    37    1
    47    23    32    1
    48    30    31    2
    49    34    35    2
    50    36    37    1
    51    46    54    1
    52    47    55    1
    53    48    56    1
    54    49    57    1
    55    50    59    1
    56    51    59    1
    57    52    60    1
    58    53    61    1
    59    54    55    1
    60    55    66    1
    61    56    46    1
    62    57    47    1
    63    58    48    1
    64    59    58    2
    65    60    50    1
    66    61    51    1
    67    62    52    1
    68    63    53    1
    69    64    54    1
    70    65    54    1
    71    67    55    1
    72    68    62    1
    73    69    62    1
    74    70    63    1
    75    71    63    1
    76    49    58    1
    77    56    57    2
    78    60    61    2
    79    62    63    1
    80    72    76    1
    81    73    77    1
    82    74    78    1
    83    75    79    1
    84    76    77    1
    85    77    83    1
    86    78    72    1
    87    79    73    1
    88    80    74    1
    89    81    76    1
    90    82    76    1
    91    84    77    1
    92    85    89    1
    93    86    90    1
    94    87    91    1
    95    88    92    1
    96    89    90    1
    97    90    96    1
    98    91    85    1
    99    92    86    1
   100    93    80    2
   101    94    89    1
   102    95    89    1
   103    97    90    1
   104    75    80    1
   105    78    79    2
   106    87    93    1
   107    88    93    1
   108    91    92    2
   109    98   106    1
   110    99   107    1
   111   100   108    1
   112   101   109    1
   113   102   111    1
   114   103   111    1
   115   104   112    1
   116   105   113    1
   117   106   107    1
   118   107   118    1
   119   108    98    1
   120   109    99    1
   121   110   100    1
   122   111   110    2
   123   112   102    1
   124   113   103    1
   125   114   104    1
   126   115   105    1
   127   116   106    1
   128   117   106    1
   129   119   107    1
   130   120   114    1
   131   121   114    1
   132   122   115    1
   133   123   115    1
   134   101   110    1
   135   108   109    2
   136   112   113    2
   137   114   115    1
   138   124   132    1
   139   125   133    1
   140   126   134    1
   141   127   135    1
   142   128   137    1
   143   129   137    1
   144   130   138    1
   145   131   139    1
   146   132   133    1
   147   133   144    1
   148   134   124    1
   149   135   125    1
   150   136   126    1
   151   137   136    2
   152   138   128    1
   153   139   129    1
   154   140   130    1
   155   141   131    1
   156   142   132    1
   157   143   132    1
   158   145   133    1
   159   146   140    1
   160   147   140    1
   161   148   141    1
   162   149   141    1
   163   127   136    1
   164   134   135    2
   165   138   139    2
   166   140   141    1
   167   150   154    1
   168   151   155    1
   169   152   156    1
   170   153   157    1
   171   154   155    1
   172   155   161    1
   173   156   150    1
   174   157   151    1
   175   158   152    1
   176   159   154    1
   177   160   154    1
   178   162   155    1
   179   163   167    1
   180   164   168    1
   181   165   169    1
   182   166   170    1
   183   167   168    1
   184   168   174    1
   185   169   163    1
   186   170   164    1
   187   171   158    2
   188   172   167    1
   189   173   167    1
   190   175   168    1
   191   153   158    1
   192   156   157    2
   193   165   171    1
   194   166   171    1
   195   169   170    2
   196   176   177    1
   197   178   176    1
   198   179   180    1
   199   181   179    1
   200   182   183    1
   201   183   184    1
   202   184   188    1
   203   185   182    1
   204   186   183    1
   205   187   183    1
   206   189   184    1
   207   190   184    1
@<TRIPOS>SUBSTRUCTURE
     1 RES1        1 GROUP             0 ****  ****    0  
     2 RES2       20 GROUP             0 ****  ****    0  
     3 RES3       46 GROUP             0 ****  ****    0  
     4 RES4       72 GROUP             0 ****  ****    0  
     5 RES5       98 GROUP             0 ****  ****    0  
     6 RES6      124 GROUP             0 ****  ****    0  
     7 RES7      150 GROUP             0 ****  ****    0  
     8 RES8      176 GROUP             0 ****  ****    0  
     9 RES9      179 GROUP             0 ****  ****    0  
    10 RES10     182 GROUP             0 ****  ****    0  
@<TRIPOS>CRYSIN
   11.1233   11.5487   35.1801   89.3810   85.7710   69.9340     2     1
