@<TRIPOS>MOLECULE
TONNIX
    86    93     5     0     0
SMALL
USER_CHARGES
****
Generated from the CSD

@<TRIPOS>ATOM
     1 S1       7.4598   9.5591  13.2984   S.3       1 RES1   0.0000
     2 S2      10.2968  11.3308  14.3926   S.3       1 RES1   0.0000
     3 S3       6.4217  10.1631  16.0092   S.3       1 RES1   0.0000
     4 S4       8.7816  11.6931  16.8717   S.3       1 RES1   0.0000
     5 S5       4.9815  10.7935  18.8393   S.3       1 RES1   1.0000
     6 S6       7.3709  12.2840  19.6947   S.3       1 RES1   0.0000
     7 S7       3.4417  11.4289  21.3120   S.3       1 RES1   0.0000
     8 S8       6.2404  13.1417  22.2905   S.3       1 RES1   0.0000
     9 C1       9.0922   9.6529  12.5288   C.3       1 RES1   0.0000
    10 H1       9.6669   8.9447  12.9148   H         1 RES1   0.0000
    11 H2       8.9979   9.4660  11.5604   H         1 RES1   0.0000
    12 C2       9.7659  10.9508  12.6941   C.3       1 RES1   0.0000
    13 H3       9.1511  11.6652  12.3915   H         1 RES1   0.0000
    14 H4      10.5606  10.9713  12.1054   H         1 RES1   0.0000
    15 C3       7.7337  10.3118  14.8502   C.2       1 RES1   0.0000
    16 C4       8.8189  10.9866  15.2512   C.2       1 RES1   0.0000
    17 C5       7.1811  11.1140  17.2385   C.2       1 RES1   0.0000
    18 C6       6.5626  11.3768  18.4309   C.2       1 RES1   0.0000
    19 C7       4.8917  11.6276  20.3654   C.2       1 RES1   0.0000
    20 C8       6.0014  12.3064  20.7805   C.2       1 RES1   0.0000
    21 C9       4.2572  11.2355  22.9366   C.3       1 RES1   0.0000
    22 H5       3.5772  10.9912  23.6151   H         1 RES1   0.0000
    23 H6       4.9137  10.4968  22.8864   H         1 RES1   0.0000
    24 C10      4.9576  12.4856  23.3728   C.3       1 RES1   0.0000
    25 H7       5.3650  12.3137  24.2600   H         1 RES1   0.0000
    26 H8       4.2735  13.1909  23.4989   H         1 RES1   0.0000
    27 S9       3.1826  12.1440  13.7518   S.3       2 RES2   0.0000
    28 S10      6.1456  13.7505  14.8042   S.3       2 RES2   0.0000
    29 S11      2.2300  12.7981  16.4703   S.3       2 RES2   0.0000
    30 S12      4.6851  14.1906  17.3061   S.3       2 RES2   0.0000
    31 S13      0.8712  13.4322  19.2986   S.3       2 RES2   0.0000
    32 S14      3.2848  14.8563  20.1671   S.3       2 RES2   0.0000
    33 S15     -0.6127  13.8544  21.8118   S.3       2 RES2   0.0000
    34 S16      2.3528  15.4095  22.8842   S.3       2 RES2   0.0000
    35 C11      4.8448  12.0297  13.0247   C.3       2 RES2   0.0000
    36 H9       5.3463  11.3132  13.4868   H         2 RES2   0.0000
    37 H10      4.7574  11.7675  12.0725   H         2 RES2   0.0000
    38 C12      5.6398  13.2978  13.0986   C.3       2 RES2   0.0000
    39 H11      5.1000  14.0364  12.7201   H         2 RES2   0.0000
    40 H12      6.4510  13.2008  12.5409   H         2 RES2   0.0000
    41 C13      3.5285  12.8658  15.3005   C.2       2 RES2   0.0000
    42 C14      4.6557  13.5068  15.6733   C.2       2 RES2   0.0000
    43 C15      3.0579  13.6840  17.7028   C.2       2 RES2   0.0000
    44 C16      2.4819  13.9687  18.9022   C.2       2 RES2   0.0000
    45 C17      0.8554  14.1239  20.9036   C.2       2 RES2   0.0000
    46 C18      1.9726  14.7689  21.3151   C.2       2 RES2   0.0000
    47 C19      0.0752  13.8851  23.4783   C.3       2 RES2   0.0000
    48 H13     -0.6564  13.7543  24.1327   H         2 RES2   0.0000
    49 H14      0.7109  13.1336  23.5801   H         2 RES2   0.0000
    50 C20      0.7926  15.1890  23.7913   C.3       2 RES2   0.0000
    51 H15      0.9816  15.2243  24.7619   H         2 RES2   0.0000
    52 H16      0.1902  15.9444  23.5746   H         2 RES2   0.0000
    53 C21      3.2302  17.4723  26.3801   C.ar      3 RES3   0.0000
    54 H17      3.2302  18.4218  26.3801   H         3 RES3   0.0000
    55 C22      4.2412  16.8054  25.7153   C.ar      3 RES3   0.0000
    56 H18      4.9239  17.2833  25.2577   H         3 RES3   0.0000
    57 C23      4.2279  15.4079  25.7294   C.ar      3 RES3   0.0000
    58 H19      4.9194  14.9328  25.2862   H         3 RES3   0.0000
    59 C24      3.2302  14.7032  26.3801   C.ar      3 RES3   0.0000
    60 C25      3.2302  13.1724  26.3801   C.3       3 RES3   0.0000
    61 C22A     2.2192  16.8054  27.0449   C.ar      3 RES3   0.0000
    62 H18A     1.5364  17.2833  27.5026   H         3 RES3   0.0000
    63 C23A     2.2325  15.4079  27.0308   C.ar      3 RES3   0.0000
    64 H19A     1.5410  14.9328  27.4740   H         3 RES3   0.0000
    65 Fe1      3.2302   8.3342  26.3801   Fe        4 RES4  -3.0000
    66 O1       2.4322   4.5487  25.2194   O.co2     4 RES4   0.0000
    67 O2       2.5793   6.7942  25.2679   O.co2     4 RES4   0.0000
    68 O3       4.1985   9.6648  27.5517   O.co2     4 RES4   0.0000
    69 O4       5.9607  11.0045  27.5721   O.co2     4 RES4   0.0000
    70 O5       4.8557   8.6316  25.2345   O.co2     4 RES4   0.0000
    71 O6       6.5746  10.0749  25.0154   O.co2     4 RES4   0.0000
    72 C26      5.2525  10.1625  27.0449   C.2       4 RES4   0.0000
    73 C27      5.5971   9.5673  25.6274   C.2       4 RES4   0.0000
    74 C28      2.8037   5.5978  25.7259   C.2       4 RES4   0.0000
    75 O1A      4.0282   4.5487  27.5408   O.co2     4 RES4   0.0000
    76 O2A      3.8810   6.7942  27.4923   O.co2     4 RES4   0.0000
    77 C28A     3.6567   5.5978  27.0343   C.2       4 RES4   0.0000
    78 O3A      2.2618   9.6648  25.2085   O.co2     4 RES4   0.0000
    79 O4A      0.4996  11.0045  25.1881   O.co2     4 RES4   0.0000
    80 O5A      1.6046   8.6316  27.5257   O.co2     4 RES4   0.0000
    81 O6A     -0.1143  10.0749  27.7448   O.co2     4 RES4   0.0000
    82 C26A     1.2078  10.1625  25.7153   C.2       4 RES4   0.0000
    83 C27A     0.8632   9.5673  27.1328   C.2       4 RES4   0.0000
    84 O7       8.3541  11.9859  26.3801   O.3       5 RES5   1.0000
    85 H20      8.4188  12.3102  25.5758   H         5 RES5   0.0000
    86 H20A     8.2893  12.3102  27.1844   H         5 RES5   0.0000
@<TRIPOS>BOND
     1     1     9    1
     2     2    12    1
     3     3    15    1
     4     4    16    1
     5     5    18    1
     6     6    18    1
     7     7    19    1
     8     8    20    1
     9     9    10    1
    10    11     9    1
    11    12     9    1
    12    13    12    1
    13    14    12    1
    14    15     1    1
    15    16     2    1
    16    17     3    1
    17    18    17    2
    18    19     5    1
    19    20     6    1
    20    21     7    1
    21    22    21    1
    22    23    21    1
    23    24     8    1
    24    25    24    1
    25    26    24    1
    26     4    17    1
    27    15    16    2
    28    19    20    2
    29    21    24    1
    30    27    35    1
    31    28    38    1
    32    29    41    1
    33    30    42    1
    34    31    44    1
    35    32    44    1
    36    33    45    1
    37    34    46    1
    38    35    36    1
    39    37    35    1
    40    38    35    1
    41    39    38    1
    42    40    38    1
    43    41    27    1
    44    42    28    1
    45    43    29    1
    46    44    43    2
    47    45    31    1
    48    46    32    1
    49    47    33    1
    50    48    47    1
    51    49    47    1
    52    50    34    1
    53    51    50    1
    54    52    50    1
    55    30    43    1
    56    41    42    2
    57    45    46    2
    58    47    50    1
    59    53    54    1
    60    55    53   ar
    61    56    55    1
    62    57    55   ar
    63    58    57    1
    64    59    57   ar
    65    60    59    1
    66    61    53   ar
    67    62    61    1
    68    63    59   ar
    69    64    63    1
    70    61    63   ar
    71    65    67    1
    72    66    74    2
    73    67    74    1
    74    68    65    1
    75    69    72    2
    76    70    65    1
    77    71    73    2
    78    72    68    1
    79    73    70    1
    80    74    77    1
    81    75    77    2
    82    76    65    1
    83    77    76    1
    84    78    65    1
    85    79    82    2
    86    80    65    1
    87    81    83    2
    88    82    78    1
    89    83    80    1
    90    72    73    1
    91    82    83    1
    92    84    85    1
    93    86    84    1
@<TRIPOS>SUBSTRUCTURE
     1 RES1        1 GROUP             0 ****  ****    0  
     2 RES2       27 GROUP             0 ****  ****    0  
     3 RES3       53 GROUP             0 ****  ****    0  
     4 RES4       65 GROUP             0 ****  ****    0  
     5 RES5       84 GROUP             0 ****  ****    0  
@<TRIPOS>CRYSIN
   10.2478   19.9069   35.2640   90.0000   94.1060   90.0000    15     1
