@<TRIPOS>MOLECULE
TOQLUH
    94    98     1     0     0
SMALL
NO_CHARGES
****
Generated from the CSD

@<TRIPOS>ATOM
     1 Fe1      2.9417   3.4235   5.9395   Fe        1 RES1   0.0000
     2 P1       4.5379   3.8315   4.4411   P.3       1 RES1   0.0000
     3 P2       2.6033   1.2620   5.3500   P.3       1 RES1   0.0000
     4 P3       1.1044   4.1124   4.7733   P.3       1 RES1   0.0000
     5 P4       3.4583   5.2379   7.2387   P.3       1 RES1   0.0000
     6 C1       4.4691   2.6493   7.0190   C.ar      1 RES1   0.0000
     7 C2       5.8237   2.9118   6.6170   C.ar      1 RES1   0.0000
     8 C3       6.0791   3.6148   5.4076   C.ar      1 RES1   0.0000
     9 C4       7.3506   3.9588   5.0407   C.ar      1 RES1   0.0000
    10 H1       7.4990   4.4386   4.2571   H         1 RES1   0.0000
    11 C5       8.4462   3.5786   5.8667   C.ar      1 RES1   0.0000
    12 H2       9.3123   3.8080   5.6196   H         1 RES1   0.0000
    13 C6       8.2338   2.8861   7.0005   C.ar      1 RES1   0.0000
    14 H3       8.9663   2.6448   7.5205   H         1 RES1   0.0000
    15 C7       6.9548   2.5165   7.4283   C.ar      1 RES1   0.0000
    16 C8       6.6858   1.7591   8.5732   C.ar      1 RES1   0.0000
    17 H4       7.3927   1.4619   9.0987   H         1 RES1   0.0000
    18 C9       5.4115   1.4484   8.9290   C.ar      1 RES1   0.0000
    19 H5       5.2585   0.9158   9.6757   H         1 RES1   0.0000
    20 C10      4.3338   1.9191   8.1860   C.ar      1 RES1   0.0000
    21 H6       3.4753   1.7320   8.4884   H         1 RES1   0.0000
    22 C11      4.9546   2.7458   3.0015   C.ar      1 RES1   0.0000
    23 C12      5.8334   1.7018   3.0808   C.ar      1 RES1   0.0000
    24 H7       6.2718   1.5479   3.8865   H         1 RES1   0.0000
    25 C13      6.0914   0.8720   2.0225   C.ar      1 RES1   0.0000
    26 H8       6.6934   0.1705   2.1239   H         1 RES1   0.0000
    27 C14      5.4705   1.0682   0.8112   C.ar      1 RES1   0.0000
    28 H9       5.6386   0.4994   0.0940   H         1 RES1   0.0000
    29 C15      4.6159   2.0971   0.6803   C.ar      1 RES1   0.0000
    30 H10      4.2037   2.2389  -0.1401   H         1 RES1   0.0000
    31 C16      4.3243   2.9601   1.7405   C.ar      1 RES1   0.0000
    32 H11      3.7274   3.6631   1.6243   H         1 RES1   0.0000
    33 C17      4.6774   5.4540   3.5934   C.ar      1 RES1   0.0000
    34 C18      5.6741   5.7376   2.6420   C.ar      1 RES1   0.0000
    35 H12      6.2789   5.0722   2.4060   H         1 RES1   0.0000
    36 C19      5.7736   6.9974   2.0484   C.ar      1 RES1   0.0000
    37 H13      6.4567   7.1814   1.4473   H         1 RES1   0.0000
    38 C20      4.8578   7.9463   2.3636   C.ar      1 RES1   0.0000
    39 H14      4.9095   8.7761   1.9451   H         1 RES1   0.0000
    40 C21      3.8696   7.7276   3.2670   C.ar      1 RES1   0.0000
    41 H15      3.2644   8.4020   3.4809   H         1 RES1   0.0000
    42 C22      3.7743   6.4784   3.8718   C.ar      1 RES1   0.0000
    43 H16      3.0867   6.3215   4.4783   H         1 RES1   0.0000
    44 C23      3.9700   0.0573   5.5551   C.3       1 RES1   0.0000
    45 H17      4.1589  -0.0573   6.4880   H         1 RES1   0.0000
    46 H18      4.7554   0.3847   5.1070   H         1 RES1   0.0000
    47 H19      3.7146  -0.7860   5.1734   H         1 RES1   0.0000
    48 C24      2.1040   0.7755   3.6579   C.3       1 RES1   0.0000
    49 H20      1.9181  -0.1660   3.6376   H         1 RES1   0.0000
    50 H21      2.8153   0.9761   3.0439   H         1 RES1   0.0000
    51 H22      1.3166   1.2628   3.4035   H         1 RES1   0.0000
    52 C25      1.3480   0.3681   6.3313   C.3       1 RES1   0.0000
    53 H23      1.3679  -0.5643   6.1026   H         1 RES1   0.0000
    54 H24      0.4784   0.7272   6.1395   H         1 RES1   0.0000
    55 H25      1.5389   0.4722   7.2660   H         1 RES1   0.0000
    56 C26      1.1717   4.2636   2.9223   C.3       1 RES1   0.0000
    57 H26      0.3143   4.5442   2.5941   H         1 RES1   0.0000
    58 H27      1.3982   3.4127   2.5406   H         1 RES1   0.0000
    59 H28      1.8357   4.9123   2.6789   H         1 RES1   0.0000
    60 C27     -0.4041   3.0627   4.9208   C.3       1 RES1   0.0000
    61 H29     -0.6869   3.0355   5.8390   H         1 RES1   0.0000
    62 H30     -0.2071   2.1725   4.6222   H         1 RES1   0.0000
    63 H31     -1.1066   3.4338   4.3825   H         1 RES1   0.0000
    64 C28      0.2565   5.6953   5.1329   C.3       1 RES1   0.0000
    65 H32     -0.4820   5.8055   4.5300   H         1 RES1   0.0000
    66 H33      0.8740   6.4210   5.0186   H         1 RES1   0.0000
    67 H34     -0.0661   5.6878   6.0363   H         1 RES1   0.0000
    68 C29      4.9780   6.2475   6.9710   C.3       1 RES1   0.0000
    69 H35      4.9284   6.6805   6.1174   H         1 RES1   0.0000
    70 H36      5.7503   5.6757   6.9950   H         1 RES1   0.0000
    71 H37      5.0485   6.9083   7.6624   H         1 RES1   0.0000
    72 C30      3.7952   4.8625   9.0138   C.3       1 RES1   0.0000
    73 H38      3.8091   5.6803   9.5153   H         1 RES1   0.0000
    74 H39      4.6457   4.4250   9.0913   H         1 RES1   0.0000
    75 H40      3.1071   4.2877   9.3549   H         1 RES1   0.0000
    76 C31      2.2665   6.5885   7.4983   C.3       1 RES1   0.0000
    77 H41      1.3943   6.2204   7.6550   H         1 RES1   0.0000
    78 H42      2.2420   7.1482   6.7184   H         1 RES1   0.0000
    79 H43      2.5357   7.1105   8.2579   H         1 RES1   0.0000
    80 C32      1.6327   3.2331   7.3859   C.1       1 RES1   0.0000
    81 C33      0.8056   3.2075   8.2542   C.1       1 RES1   0.0000
    82 C34     -0.2091   3.1441   9.3088   C.3       1 RES1   0.0000
    83 C35      0.4283   2.9676  10.6732   C.3       1 RES1   0.0000
    84 H44     -0.2336   3.1004  11.3553   H         1 RES1   0.0000
    85 H45      1.1340   3.6088  10.7838   H         1 RES1   0.0000
    86 H46      0.7887   2.0805  10.7469   H         1 RES1   0.0000
    87 C36     -0.8034   4.4627   9.5762   C.3       1 RES1   0.0000
    88 H47     -1.3405   4.7298   8.8276   H         1 RES1   0.0000
    89 H48     -0.1064   5.1054   9.7163   H         1 RES1   0.0000
    90 H49     -1.3539   4.4114  10.3616   H         1 RES1   0.0000
    91 C37     -1.1174   2.0322   9.0913   C.3       1 RES1   0.0000
    92 H50     -0.9011   1.3201   9.6960   H         1 RES1   0.0000
    93 H51     -1.0318   1.7214   8.1860   H         1 RES1   0.0000
    94 H52     -2.0194   2.3219   9.2462   H         1 RES1   0.0000
@<TRIPOS>BOND
     1     1     2    1
     2     2     8    1
     3     3     1    1
     4     4     1    1
     5     5     1    1
     6     6     1    1
     7     7     6   ar
     8     8     7   ar
     9     9     8   ar
    10    10     9    1
    11    11     9   ar
    12    12    11    1
    13    13    11   ar
    14    14    13    1
    15    15     7   ar
    16    16    15   ar
    17    17    16    1
    18    18    16   ar
    19    19    18    1
    20    20     6   ar
    21    21    20    1
    22    22     2    1
    23    23    22   ar
    24    24    23    1
    25    25    23   ar
    26    26    25    1
    27    27    25   ar
    28    28    27    1
    29    29    27   ar
    30    30    29    1
    31    31    22   ar
    32    32    31    1
    33    33     2    1
    34    34    33   ar
    35    35    34    1
    36    36    34   ar
    37    37    36    1
    38    38    36   ar
    39    39    38    1
    40    40    38   ar
    41    41    40    1
    42    42    33   ar
    43    43    42    1
    44    44     3    1
    45    45    44    1
    46    46    44    1
    47    47    44    1
    48    48     3    1
    49    49    48    1
    50    50    48    1
    51    51    48    1
    52    52     3    1
    53    53    52    1
    54    54    52    1
    55    55    52    1
    56    56     4    1
    57    57    56    1
    58    58    56    1
    59    59    56    1
    60    60     4    1
    61    61    60    1
    62    62    60    1
    63    63    60    1
    64    64     4    1
    65    65    64    1
    66    66    64    1
    67    67    64    1
    68    68     5    1
    69    69    68    1
    70    70    68    1
    71    71    68    1
    72    72     5    1
    73    73    72    1
    74    74    72    1
    75    75    72    1
    76    76     5    1
    77    77    76    1
    78    78    76    1
    79    79    76    1
    80    80     1    1
    81    81    80    3
    82    82    81    1
    83    83    82    1
    84    84    83    1
    85    85    83    1
    86    86    83    1
    87    87    82    1
    88    88    87    1
    89    89    87    1
    90    90    87    1
    91    91    82    1
    92    92    91    1
    93    93    91    1
    94    94    91    1
    95    13    15   ar
    96    18    20   ar
    97    29    31   ar
    98    40    42   ar
@<TRIPOS>SUBSTRUCTURE
     1 RES1        1 GROUP             0 ****  ****    0  
@<TRIPOS>CRYSIN
   13.2060   15.0870   19.4800   90.0000  108.8340   90.0000     9     1
