@<TRIPOS>MOLECULE
TOQMAO
    94    98     1     0     0
SMALL
NO_CHARGES
****
Generated from the CSD

@<TRIPOS>ATOM
     1 Fe1      3.1863   0.4161   1.0833   Fe        1 RES1   0.0000
     2 Si1     -0.2086   0.4656  -2.4754   Si        1 RES1   0.0000
     3 P1       4.7700   0.0314   2.6194   P.3       1 RES1   0.0000
     4 P2       2.8876   2.6048   1.5833   P.3       1 RES1   0.0000
     5 P3       1.3280  -0.1821   2.2654   P.3       1 RES1   0.0000
     6 P4       3.6863  -1.4661  -0.1380   P.3       1 RES1   0.0000
     7 C1       4.7176   1.0971  -0.0187   C.ar      1 RES1   0.0000
     8 C2       4.6000   1.7801  -1.2213   C.ar      1 RES1   0.0000
     9 H1       3.7501   1.9886  -1.5356   H         1 RES1   0.0000
    10 C3       5.7139   2.1663  -1.9844   C.ar      1 RES1   0.0000
    11 H2       5.5806   2.6407  -2.7737   H         1 RES1   0.0000
    12 C4       6.9755   1.8667  -1.6029   C.ar      1 RES1   0.0000
    13 H3       7.6959   2.1135  -2.1378   H         1 RES1   0.0000
    14 C5       7.1966   1.1823  -0.3946   C.ar      1 RES1   0.0000
    15 C6       8.4836   0.8313   0.0486   C.ar      1 RES1   0.0000
    16 H4       9.2175   1.0325  -0.4863   H         1 RES1   0.0000
    17 C7       8.6857   0.2056   1.2419   C.ar      1 RES1   0.0000
    18 H5       9.5449  -0.0235   1.5150   H         1 RES1   0.0000
    19 C8       7.5850  -0.0911   2.0555   C.ar      1 RES1   0.0000
    20 H6       7.7198  -0.5082   2.8747   H         1 RES1   0.0000
    21 C9       6.3159   0.2247   1.6609   C.ar      1 RES1   0.0000
    22 C10      6.0748   0.8533   0.4021   C.ar      1 RES1   0.0000
    23 C11      5.1437   1.1294   4.0605   C.ar      1 RES1   0.0000
    24 C12      4.5229   0.9649   5.2819   C.ar      1 RES1   0.0000
    25 H7       3.9468   0.2453   5.4072   H         1 RES1   0.0000
    26 C13      4.7389   1.8491   6.3255   C.ar      1 RES1   0.0000
    27 H8       4.3077   1.7257   7.1391   H         1 RES1   0.0000
    28 C14      5.5900   2.9066   6.1535   C.ar      1 RES1   0.0000
    29 H9       5.7261   3.5058   6.8511   H         1 RES1   0.0000
    30 C15      6.2387   3.0872   4.9677   C.ar      1 RES1   0.0000
    31 H10      6.8244   3.8010   4.8573   H         1 RES1   0.0000
    32 C16      6.0200   2.1987   3.9315   C.ar      1 RES1   0.0000
    33 H11      6.4709   2.3206   3.1272   H         1 RES1   0.0000
    34 C17      4.8933  -1.5906   3.4826   C.ar      1 RES1   0.0000
    35 C18      3.9390  -2.5688   3.2488   C.ar      1 RES1   0.0000
    36 H12      3.2422  -2.3911   2.6596   H         1 RES1   0.0000
    37 C19      4.0016  -3.8010   3.8679   C.ar      1 RES1   0.0000
    38 H13      3.3507  -4.4428   3.6977   H         1 RES1   0.0000
    39 C20      5.0145  -4.0727   4.7283   C.ar      1 RES1   0.0000
    40 H14      5.0603  -4.9070   5.1360   H         1 RES1   0.0000
    41 C21      5.9644  -3.1357   5.0051   C.ar      1 RES1   0.0000
    42 H15      6.6571  -3.3310   5.5942   H         1 RES1   0.0000
    43 C22      5.8931  -1.8917   4.4028   C.ar      1 RES1   0.0000
    44 H16      6.5254  -1.2455   4.6179   H         1 RES1   0.0000
    45 C23      4.2770   3.7614   1.3541   C.3       1 RES1   0.0000
    46 H17      4.5175   3.7937   0.4264   H         1 RES1   0.0000
    47 H18      5.0295   3.4647   1.8704   H         1 RES1   0.0000
    48 H19      4.0144   4.6382   1.6478   H         1 RES1   0.0000
    49 C24      2.3985   3.1563   3.2600   C.3       1 RES1   0.0000
    50 H20      3.1009   2.9521   3.8829   H         1 RES1   0.0000
    51 H21      1.5953   2.7024   3.5256   H         1 RES1   0.0000
    52 H22      2.2442   4.1036   3.2525   H         1 RES1   0.0000
    53 C25      1.6591   3.4897   0.5798   C.3       1 RES1   0.0000
    54 H23      1.7009   4.4282   0.7781   H         1 RES1   0.0000
    55 H24      0.7812   3.1577   0.7855   H         1 RES1   0.0000
    56 H25      1.8448   3.3487  -0.3498   H         1 RES1   0.0000
    57 C26      1.3783  -0.2673   4.0905   C.3       1 RES1   0.0000
    58 H26      0.4985  -0.4597   4.4271   H         1 RES1   0.0000
    59 H27      1.6767   0.5757   4.4421   H         1 RES1   0.0000
    60 H28      1.9839  -0.9605   4.3617   H         1 RES1   0.0000
    61 C27     -0.1449   0.8856   2.0630   C.3       1 RES1   0.0000
    62 H29     -0.3643   0.9561   1.1316   H         1 RES1   0.0000
    63 H30      0.0425   1.7580   2.4146   H         1 RES1   0.0000
    64 H31     -0.8859   0.5008   2.5381   H         1 RES1   0.0000
    65 C28      0.4510  -1.7639   1.9695   C.3       1 RES1   0.0000
    66 H32     -0.3151  -1.8183   2.5456   H         1 RES1   0.0000
    67 H33      1.0432  -2.4968   2.1528   H         1 RES1   0.0000
    68 H34      0.1667  -1.8050   1.0530   H         1 RES1   0.0000
    69 C29      5.1997  -2.4454   0.1814   C.3       1 RES1   0.0000
    70 H35      5.1551  -2.8229   1.0642   H         1 RES1   0.0000
    71 H36      5.9682  -1.8770   0.1160   H         1 RES1   0.0000
    72 H37      5.2654  -3.1519  -0.4638   H         1 RES1   0.0000
    73 C30      3.9864  -1.1764  -1.9265   C.3       1 RES1   0.0000
    74 H38      4.0262  -2.0195  -2.3847   H         1 RES1   0.0000
    75 H39      4.8162  -0.7094  -2.0387   H         1 RES1   0.0000
    76 H40      3.2700  -0.6492  -2.2893   H         1 RES1   0.0000
    77 C31      2.4936  -2.8390  -0.3067   C.3       1 RES1   0.0000
    78 H41      2.8401  -3.4897  -0.9240   H         1 RES1   0.0000
    79 H42      1.6591  -2.4983  -0.6378   H         1 RES1   0.0000
    80 H43      2.3548  -3.2503   0.5480   H         1 RES1   0.0000
    81 C32      1.9212   0.5669  -0.3554   C.1       1 RES1   0.0000
    82 C33      1.0887   0.5625  -1.2326   C.1       1 RES1   0.0000
    83 C34      0.4707   0.6360  -4.1896   C.3       1 RES1   0.0000
    84 H44      0.8271   1.5186  -4.3056   H         1 RES1   0.0000
    85 H45     -0.2304   0.4876  -4.8274   H         1 RES1   0.0000
    86 H46      1.1672  -0.0117  -4.3224   H         1 RES1   0.0000
    87 C35     -1.0986  -1.1485  -2.3697   C.3       1 RES1   0.0000
    88 H47     -0.4660  -1.8682  -2.4333   H         1 RES1   0.0000
    89 H48     -1.7293  -1.2132  -3.0917   H         1 RES1   0.0000
    90 H49     -1.5642  -1.2029  -1.5318   H         1 RES1   0.0000
    91 C36     -1.4149   1.8462  -2.2295   C.3       1 RES1   0.0000
    92 H50     -1.7076   1.8564  -1.3149   H         1 RES1   0.0000
    93 H51     -2.1718   1.7155  -2.8055   H         1 RES1   0.0000
    94 H52     -0.9922   2.6819  -2.4408   H         1 RES1   0.0000
@<TRIPOS>BOND
     1     1     3    1
     2     2    82    1
     3     3    21    1
     4     4     1    1
     5     5     1    1
     6     6     1    1
     7     7     1    1
     8     8     7   ar
     9     9     8    1
    10    10     8   ar
    11    11    10    1
    12    12    10   ar
    13    13    12    1
    14    14    12   ar
    15    15    14   ar
    16    16    15    1
    17    17    15   ar
    18    18    17    1
    19    19    17   ar
    20    20    19    1
    21    21    19   ar
    22    22     7   ar
    23    23     3    1
    24    24    23   ar
    25    25    24    1
    26    26    24   ar
    27    27    26    1
    28    28    26   ar
    29    29    28    1
    30    30    28   ar
    31    31    30    1
    32    32    23   ar
    33    33    32    1
    34    34     3    1
    35    35    34   ar
    36    36    35    1
    37    37    35   ar
    38    38    37    1
    39    39    37   ar
    40    40    39    1
    41    41    39   ar
    42    42    41    1
    43    43    34   ar
    44    44    43    1
    45    45     4    1
    46    46    45    1
    47    47    45    1
    48    48    45    1
    49    49     4    1
    50    50    49    1
    51    51    49    1
    52    52    49    1
    53    53     4    1
    54    54    53    1
    55    55    53    1
    56    56    53    1
    57    57     5    1
    58    58    57    1
    59    59    57    1
    60    60    57    1
    61    61     5    1
    62    62    61    1
    63    63    61    1
    64    64    61    1
    65    65     5    1
    66    66    65    1
    67    67    65    1
    68    68    65    1
    69    69     6    1
    70    70    69    1
    71    71    69    1
    72    72    69    1
    73    73     6    1
    74    74    73    1
    75    75    73    1
    76    76    73    1
    77    77     6    1
    78    78    77    1
    79    79    77    1
    80    80    77    1
    81    81     1    1
    82    82    81    3
    83    83     2    1
    84    84    83    1
    85    85    83    1
    86    86    83    1
    87    87     2    1
    88    88    87    1
    89    89    87    1
    90    90    87    1
    91    91     2    1
    92    92    91    1
    93    93    91    1
    94    94    91    1
    95    14    22   ar
    96    21    22   ar
    97    30    32   ar
    98    41    43   ar
@<TRIPOS>SUBSTRUCTURE
     1 RES1        1 GROUP             0 ****  ****    0  
@<TRIPOS>CRYSIN
   13.5257   14.6871   19.8500   90.0000  109.5680   90.0000     9     1
