@<TRIPOS>MOLECULE
TOQPOG
   121   126     1     0     0
SMALL
NO_CHARGES
****
Generated from the CSD

@<TRIPOS>ATOM
     1 C1       3.7185   0.8176  -0.2655   C.ar      1 RES1   0.0000
     2 C2       4.4209  -0.2402  -0.8515   C.ar      1 RES1   0.0000
     3 H1       5.2124  -0.0666  -1.3478   H         1 RES1   0.0000
     4 C3       3.9664  -1.5385  -0.7099   C.ar      1 RES1   0.0000
     5 H2       4.4479  -2.2555  -1.1055   H         1 RES1   0.0000
     6 C4       2.8128  -1.7923   0.0056   C.ar      1 RES1   0.0000
     7 H3       2.4973  -2.6845   0.0846   H         1 RES1   0.0000
     8 C5       2.1114  -0.7671   0.6077   C.ar      1 RES1   0.0000
     9 H4       1.3228  -0.9566   1.1012   H         1 RES1   0.0000
    10 C6       2.5641   0.5468   0.4886   C.ar      1 RES1   0.0000
    11 C7       0.8648   1.6115   1.7735   C.2       1 RES1   0.0000
    12 H5       0.4706   0.7503   1.8453   H         1 RES1   0.0000
    13 C8       0.2016   2.6770   2.4467   C.2       1 RES1   0.0000
    14 C9       0.6570   4.0332   2.3625   C.2       1 RES1   0.0000
    15 C10     -0.0108   5.1532   3.1078   C.3       1 RES1   0.0000
    16 H6       0.4493   5.9955   2.9121   H         1 RES1   0.0000
    17 H7       0.0298   4.9745   4.0706   H         1 RES1   0.0000
    18 H8      -0.9469   5.2192   2.8275   H         1 RES1   0.0000
    19 C11     -0.9704   2.3218   3.2361   C.2       1 RES1   0.0000
    20 C12     -1.4355   0.8809   3.2836   C.3       1 RES1   0.0000
    21 H9      -2.2339   0.8133   3.8484   H         1 RES1   0.0000
    22 H10     -0.7231   0.3205   3.6562   H         1 RES1   0.0000
    23 H11     -1.6495   0.5762   2.3773   H         1 RES1   0.0000
    24 C13      5.0799   2.6101  -1.0405   C.2       1 RES1   0.0000
    25 H12      5.6153   1.9388  -1.4467   H         1 RES1   0.0000
    26 C14      5.5006   3.9623  -1.2212   C.2       1 RES1   0.0000
    27 C15      4.7867   5.0639  -0.6541   C.2       1 RES1   0.0000
    28 C16      5.2020   6.4914  -0.8583   C.3       1 RES1   0.0000
    29 H13      4.4727   7.0856  -0.5836   H         1 RES1   0.0000
    30 H14      5.4062   6.6401  -1.8052   H         1 RES1   0.0000
    31 H15      5.9980   6.6799  -0.3197   H         1 RES1   0.0000
    32 C17      6.7049   4.1681  -2.0108   C.2       1 RES1   0.0000
    33 C18      7.2603   3.0321  -2.8458   C.3       1 RES1   0.0000
    34 H16      7.9347   3.3812  -3.4655   H         1 RES1   0.0000
    35 H17      6.5339   2.6152  -3.3551   H         1 RES1   0.0000
    36 H18      7.6720   2.3654  -2.2568   H         1 RES1   0.0000
    37 C19      0.6107   4.3610  -1.1118   C.2       1 RES1   0.0000
    38 H19      0.4363   5.0861  -0.5233   H         1 RES1   0.0000
    39 C20      1.4795   2.6138  -2.0029   C.2       1 RES1   0.0000
    40 H20      2.0475   1.8684  -2.1593   H         1 RES1   0.0000
    41 C21      0.4474   2.9815  -2.7954   C.2       1 RES1   0.0000
    42 H21      0.1582   2.5499  -3.5903   H         1 RES1   0.0000
    43 C22     -1.2633   4.8874  -2.6758   C.3       1 RES1   0.0000
    44 H22     -1.0840   5.8489  -2.5221   H         1 RES1   0.0000
    45 H23     -2.0524   4.6362  -2.1321   H         1 RES1   0.0000
    46 C23     -1.5868   4.6753  -4.1380   C.3       1 RES1   0.0000
    47 H24     -2.4542   5.1116  -4.3301   H         1 RES1   0.0000
    48 H25     -1.7035   3.7045  -4.2914   H         1 RES1   0.0000
    49 C24     -0.5600   5.1958  -5.1395   C.3       1 RES1   0.0000
    50 H26      0.3344   4.8548  -4.8850   H         1 RES1   0.0000
    51 H27     -0.7757   4.8321  -6.0349   H         1 RES1   0.0000
    52 C25     -0.4975   6.7130  -5.2296   C.3       1 RES1   0.0000
    53 H28     -0.1842   7.0752  -4.3631   H         1 RES1   0.0000
    54 H29     -1.4082   7.0651  -5.3940   H         1 RES1   0.0000
    55 C26      0.4295   7.1971  -6.3352   C.3       1 RES1   0.0000
    56 H30      0.0897   6.8688  -7.2049   H         1 RES1   0.0000
    57 H31      1.3284   6.8059  -6.1955   H         1 RES1   0.0000
    58 C27      0.5564   8.7168  -6.3960   C.3       1 RES1   0.0000
    59 H32     -0.3493   9.1136  -6.3561   H         1 RES1   0.0000
    60 H33      1.0553   9.0261  -5.5991   H         1 RES1   0.0000
    61 C28      1.2604   9.2298  -7.6438   C.3       1 RES1   0.0000
    62 H34      1.1460  10.2129  -7.6881   H         1 RES1   0.0000
    63 H35      0.8151   8.8416  -8.4380   H         1 RES1   0.0000
    64 C29      2.7473   8.9127  -7.7188   C.3       1 RES1   0.0000
    65 H36      3.1893   9.2607  -6.9038   H         1 RES1   0.0000
    66 H37      2.8641   7.9301  -7.7283   H         1 RES1   0.0000
    67 C30      3.4321   9.4970  -8.9325   C.3       1 RES1   0.0000
    68 H38      3.2697  10.4738  -8.9542   H         1 RES1   0.0000
    69 H39      3.0285   9.1066  -9.7471   H         1 RES1   0.0000
    70 C31      4.9287   9.2475  -8.9568   C.3       1 RES1   0.0000
    71 H40      5.3446   9.6819  -8.1842   H         1 RES1   0.0000
    72 H41      5.3082   9.6163  -9.7815   H         1 RES1   0.0000
    73 H42      5.1003   8.2838  -8.9198   H         1 RES1   0.0000
    74 C32      5.2029   3.8253   2.4203   C.2       1 RES1   0.0000
    75 H43      5.5214   4.5386   1.8797   H         1 RES1   0.0000
    76 C33      7.0949   3.8984   4.0593   C.3       1 RES1   0.0000
    77 H44      7.4114   4.6370   3.4813   H         1 RES1   0.0000
    78 H45      7.7760   3.1802   4.0362   H         1 RES1   0.0000
    79 C34      4.0094   2.2257   3.2056   C.2       1 RES1   0.0000
    80 H46      3.3119   1.5907   3.3150   H         1 RES1   0.0000
    81 C35      5.0705   2.3582   4.0323   C.2       1 RES1   0.0000
    82 H47      5.2535   1.8451   4.8105   H         1 RES1   0.0000
    83 C36     10.3259  12.3131   6.1581   C.3       1 RES1   0.0000
    84 H48     10.1710  11.7238   6.9268   H         1 RES1   0.0000
    85 H49      9.8623  13.1647   6.3016   H         1 RES1   0.0000
    86 H50     11.2864  12.4760   6.0593   H         1 RES1   0.0000
    87 C37      6.9566   4.4042   5.4766   C.3       1 RES1   0.0000
    88 H51      6.6263   3.6693   6.0521   H         1 RES1   0.0000
    89 H52      6.2843   5.1309   5.4973   H         1 RES1   0.0000
    90 C38      8.2734   4.9251   6.0379   C.3       1 RES1   0.0000
    91 H53      8.1519   5.1285   6.9985   H         1 RES1   0.0000
    92 H54      8.9551   4.2107   5.9661   H         1 RES1   0.0000
    93 C39      8.7929   6.1657   5.3387   C.3       1 RES1   0.0000
    94 H55      8.1203   6.8867   5.4241   H         1 RES1   0.0000
    95 H56      8.9023   5.9679   4.3746   H         1 RES1   0.0000
    96 C40     10.1187   6.6610   5.8936   C.3       1 RES1   0.0000
    97 H57     10.7736   5.9193   5.8686   H         1 RES1   0.0000
    98 H58      9.9920   6.9190   6.8407   H         1 RES1   0.0000
    99 C41     10.6909   7.8473   5.1326   C.3       1 RES1   0.0000
   100 H59     10.5567   7.6991   4.1624   H         1 RES1   0.0000
   101 H60     11.6657   7.8929   5.2980   H         1 RES1   0.0000
   102 C42     10.0642   9.1830   5.5169   C.3       1 RES1   0.0000
   103 H61      9.0791   9.0902   5.5073   H         1 RES1   0.0000
   104 H62     10.3370   9.4125   6.4407   H         1 RES1   0.0000
   105 C43     10.4604  10.3171   4.5904   C.3       1 RES1   0.0000
   106 H63     10.2319  10.0607   3.6620   H         1 RES1   0.0000
   107 H64     11.4425  10.4346   4.6355   H         1 RES1   0.0000
   108 C44      9.7946  11.6550   4.9052   C.3       1 RES1   0.0000
   109 H65      9.9306  12.2684   4.1394   H         1 RES1   0.0000
   110 H66      8.8204  11.5115   5.0069   H         1 RES1   0.0000
   111 N1       4.0322   2.2017  -0.3739   N.2       1 RES1   0.0000
   112 N2       1.9605   1.6992   1.0668   N.2       1 RES1   0.0000
   113 N3       4.0843   3.1456   2.1781   N.2       1 RES1   0.0000
   114 N4       5.8289   3.3784   3.5265   N.pl3     1 RES1   0.0000
   115 N5       1.5874   3.4765  -0.9360   N.2       1 RES1   0.0000
   116 N6      -0.0997   4.1046  -2.2218   N.pl3     1 RES1   0.0000
   117 O1       3.7469   4.9286   0.0618   O.2       1 RES1   0.0000
   118 O2       1.6549   4.3924   1.6672   O.2       1 RES1   0.0000
   119 O3       7.3235   5.2424  -2.0564   O.2       1 RES1   0.0000
   120 O4      -1.6339   3.1235   3.8855   O.2       1 RES1   0.0000
   121 Fe1      2.8475   3.3057   0.6056   Fe        1 RES1   0.0000
@<TRIPOS>BOND
     1     1     2   ar
     2     2     3    1
     3     4     2   ar
     4     5     4    1
     5     6     4   ar
     6     7     6    1
     7     8     6   ar
     8     9     8    1
     9    10     1   ar
    10    11    12    1
    11    13    11    2
    12    14    13    1
    13    15    14    1
    14    16    15    1
    15    17    15    1
    16    18    15    1
    17    19    13    1
    18    20    19    1
    19    21    20    1
    20    22    20    1
    21    23    20    1
    22    24    25    1
    23    26    24    2
    24    27    26    1
    25    28    27    1
    26    29    28    1
    27    30    28    1
    28    31    28    1
    29    32    26    1
    30    33    32    1
    31    34    33    1
    32    35    33    1
    33    36    33    1
    34    37    38    1
    35    39    40    1
    36    41    39    2
    37    42    41    1
    38    43    44    1
    39    45    43    1
    40    46    43    1
    41    47    46    1
    42    48    46    1
    43    49    46    1
    44    50    49    1
    45    51    49    1
    46    52    49    1
    47    53    52    1
    48    54    52    1
    49    55    52    1
    50    56    55    1
    51    57    55    1
    52    58    55    1
    53    59    58    1
    54    60    58    1
    55    61    58    1
    56    62    61    1
    57    63    61    1
    58    64    61    1
    59    65    64    1
    60    66    64    1
    61    67    64    1
    62    68    67    1
    63    69    67    1
    64    70    67    1
    65    71    70    1
    66    72    70    1
    67    73    70    1
    68    74    75    1
    69    76    77    1
    70    78    76    1
    71    79    80    1
    72    81    79    2
    73    82    81    1
    74    83    84    1
    75    85    83    1
    76    86    83    1
    77    87    76    1
    78    88    87    1
    79    89    87    1
    80    90    87    1
    81    91    90    1
    82    92    90    1
    83    93    90    1
    84    94    93    1
    85    95    93    1
    86    96    93    1
    87    97    96    1
    88    98    96    1
    89    99    96    1
    90   100    99    1
    91   101    99    1
    92   102    99    1
    93   103   102    1
    94   104   102    1
    95   105   102    1
    96   106   105    1
    97   107   105    1
    98   108    83    1
    99   109   108    1
   100   110   108    1
   101   111     1    1
   102   112    10    1
   103   113    74    2
   104   114    74    1
   105   115    37    2
   106   116    37    1
   107   117    27    2
   108   118    14    2
   109   119    32    2
   110   120    19    2
   111   121   111    1
   112     8    10   ar
   113    11   112    1
   114    24   111    1
   115    39   115    1
   116    41   116    1
   117    43   116    1
   118    76   114    1
   119    79   113    1
   120    81   114    1
   121   105   108    1
   122   112   121    1
   123   113   121    1
   124   115   121    1
   125   117   121    1
   126   118   121    1
@<TRIPOS>SUBSTRUCTURE
     1 RES1        1 GROUP             0 ****  ****    0  
@<TRIPOS>CRYSIN
   12.0310   12.1620   14.4750   82.3410   86.6750   78.6810     2     1
