@<TRIPOS>MOLECULE
TORCIO
   121   128     3     0     0
SMALL
USER_CHARGES
****
Generated from the CSD

@<TRIPOS>ATOM
     1 Fe1      3.2181   3.9269   4.8115   Fe        1 RES1   2.0000
     2 C1      -1.8462   6.6228   3.4186   C.ar      1 RES1   0.0000
     3 H1      -2.5595   6.7665   2.8393   H         1 RES1   0.0000
     4 C2      -1.8235   5.5239   4.2506   C.ar      1 RES1   0.0000
     5 H2      -2.5283   4.9162   4.2248   H         1 RES1   0.0000
     6 C3      -0.7912   7.5052   3.4666   C.ar      1 RES1   0.0000
     7 H3      -0.7884   8.2457   2.9020   H         1 RES1   0.0000
     8 C4       3.3124   4.5432  -0.8357   C.ar      1 RES1   0.0000
     9 H4       2.8828   4.8798  -1.5885   H         1 RES1   0.0000
    10 C5       3.6272   5.2346   9.9200   C.ar      1 RES1   0.0000
    11 H5       3.1408   5.8750  10.3868   H         1 RES1   0.0000
    12 C6       5.7797   0.5276   4.1510   C.3       1 RES1   0.0000
    13 H6       5.2862  -0.2474   3.8724   H         1 RES1   0.0000
    14 H7       6.3185   0.3057   4.9148   H         1 RES1   0.0000
    15 H8       6.3469   0.8206   3.4334   H         1 RES1   0.0000
    16 C7      -2.3141   1.7412   5.5310   C.ar      1 RES1   0.0000
    17 H9      -2.6545   1.8340   6.3907   H         1 RES1   0.0000
    18 C8      -2.6162   1.2281   3.1972   C.ar      1 RES1   0.0000
    19 H10     -3.1734   0.9734   2.4980   H         1 RES1   0.0000
    20 C9       3.8016   3.9846  10.4237   C.ar      1 RES1   0.0000
    21 H11      3.4202   3.7772  11.2465   H         1 RES1   0.0000
    22 C10     -0.9742   1.8940   5.2930   C.ar      1 RES1   0.0000
    23 H12     -0.4126   2.0996   6.0051   H         1 RES1   0.0000
    24 C11     -0.7742   5.3073   5.1178   C.ar      1 RES1   0.0000
    25 H13     -0.7756   4.5577   5.6657   H         1 RES1   0.0000
    26 C12      4.2426   5.2910  -0.1845   C.ar      1 RES1   0.0000
    27 H14      4.4468   6.1406  -0.5018   H         1 RES1   0.0000
    28 C13      4.8906   4.8070   0.9409   C.ar      1 RES1   0.0000
    29 H15      5.5245   5.3383   1.3689   H         1 RES1   0.0000
    30 C14      1.1060   6.7478   7.4643   C.3       1 RES1   0.0000
    31 H16      0.2212   6.5118   7.7523   H         1 RES1   0.0000
    32 H17      1.1585   7.6981   7.3390   H         1 RES1   0.0000
    33 H18      1.7427   6.4772   8.1305   H         1 RES1   0.0000
    34 C15      1.6378   0.8428   2.8688   C.3       1 RES1   0.0000
    35 H19      1.3088  -0.0364   3.0718   H         1 RES1   0.0000
    36 H20      2.5963   0.8460   2.9223   H         1 RES1   0.0000
    37 H21      1.3669   1.0880   1.9814   H         1 RES1   0.0000
    38 C16      4.9176   4.5868   7.9714   C.ar      1 RES1   0.0000
    39 C17      5.0735   3.3296   8.5530   C.ar      1 RES1   0.0000
    40 H22      5.5656   2.6746   8.1120   H         1 RES1   0.0000
    41 C18      4.4950   3.0476   9.7909   C.ar      1 RES1   0.0000
    42 H23      4.5957   2.2052  10.1709   H         1 RES1   0.0000
    43 C19      6.6844   3.6353   2.8854   C.3       1 RES1   0.0000
    44 H24      7.2118   3.6898   2.0847   H         1 RES1   0.0000
    45 H25      7.1721   3.1549   3.5588   H         1 RES1   0.0000
    46 H26      6.4915   4.5213   3.2027   H         1 RES1   0.0000
    47 C20      5.6010   4.9926   6.6905   C.3       1 RES1   0.0000
    48 H27      5.9924   5.8750   6.8575   H         1 RES1   0.0000
    49 C21      0.2595   3.7863   1.6903   C.3       1 RES1   0.0000
    50 H28      0.2581   2.8656   1.4187   H         1 RES1   0.0000
    51 H29      0.4183   4.3448   0.9261   H         1 RES1   0.0000
    52 H30     -0.5927   4.0064   2.0755   H         1 RES1   0.0000
    53 C22      5.3727   2.9148   2.5869   C.3       1 RES1   0.0000
    54 H31      5.6251   2.0160   2.2877   H         1 RES1   0.0000
    55 C23     -1.3102   1.3901   2.9998   C.ar      1 RES1   0.0000
    56 H32     -0.9685   1.2591   2.1438   H         1 RES1   0.0000
    57 C24      3.0118   3.2677  -0.3616   C.ar      1 RES1   0.0000
    58 H33      2.3737   2.7474  -0.7952   H         1 RES1   0.0000
    59 C25      1.0720   1.8406   3.8706   C.3       1 RES1   0.0000
    60 H34      1.4237   1.5429   4.7359   H         1 RES1   0.0000
    61 C26      0.6140   3.8918   8.2351   C.3       1 RES1   0.0000
    62 H35      1.0479   4.2102   9.0289   H         1 RES1   0.0000
    63 H36      0.2212   3.0330   8.4072   H         1 RES1   0.0000
    64 H37     -0.0737   4.5122   7.9755   H         1 RES1   0.0000
    65 C27      4.2057   5.5348   8.6637   C.ar      1 RES1   0.0000
    66 H38      4.1022   6.3863   8.3021   H         1 RES1   0.0000
    67 C28      5.8407   7.3397   5.0144   C.3       1 RES1   0.0000
    68 H39      5.4819   7.9965   5.6159   H         1 RES1   0.0000
    69 H40      6.0335   7.7509   4.1695   H         1 RES1   0.0000
    70 H41      6.6475   6.9740   5.3834   H         1 RES1   0.0000
    71 C29      6.7822   4.0737   6.3096   C.3       1 RES1   0.0000
    72 H42      6.4419   3.2113   6.0605   H         1 RES1   0.0000
    73 H43      7.3721   3.9791   7.0604   H         1 RES1   0.0000
    74 H44      7.2629   4.4540   5.5698   H         1 RES1   0.0000
    75 C30     -0.4254   1.7539   4.0291   C.ar      1 RES1   0.0000
    76 C31      3.8782   6.3935   3.6974   C.ar      1 RES1   0.0000
    77 C32     -3.1408   1.4501   4.4923   C.ar      1 RES1   0.0000
    78 H45     -4.0583   1.3973   4.6325   H         1 RES1   0.0000
    79 C33      0.2708   6.1927   5.1766   C.ar      1 RES1   0.0000
    80 C34      3.7321   7.4601   2.8321   C.ar      1 RES1   0.0000
    81 H46      4.2823   8.2057   2.9113   H         1 RES1   0.0000
    82 C35      3.1479   0.3653   7.6764   C.ar      1 RES1   0.0000
    83 H47      3.1252  -0.3621   8.2559   H         1 RES1   0.0000
    84 C36      4.0001   0.3512   6.5951   C.ar      1 RES1   0.0000
    85 H48      4.5489  -0.3821   6.4350   H         1 RES1   0.0000
    86 C37      2.7792   7.4148   1.8670   C.ar      1 RES1   0.0000
    87 H49      2.6913   8.1238   1.2711   H         1 RES1   0.0000
    88 C38      1.9384   6.3184   1.7641   C.ar      1 RES1   0.0000
    89 H50      1.2719   6.2953   1.1162   H         1 RES1   0.0000
    90 C39      3.6669   2.7783   0.7584   C.ar      1 RES1   0.0000
    91 H51      3.4712   1.9213   1.0590   H         1 RES1   0.0000
    92 C40      0.2637   7.3113   4.3355   C.ar      1 RES1   0.0000
    93 H52      0.9642   7.9219   4.3632   H         1 RES1   0.0000
    94 C41      1.6278   3.7723   7.1256   C.2       1 RES1   0.0000
    95 C42      1.4194   6.0318   6.1415   C.3       1 RES1   0.0000
    96 H53      2.1525   6.5464   5.7450   H         1 RES1   0.0000
    97 C43      2.3312   1.4428   7.9072   C.ar      1 RES1   0.0000
    98 H54      1.7470   1.4446   8.6304   H         1 RES1   0.0000
    99 C44      4.8098   6.2336   4.8189   C.2       1 RES1   0.0000
   100 C45      4.6084   3.5356   1.4438   C.ar      1 RES1   0.0000
   101 C46      4.0242   1.4425   5.7537   C.ar      1 RES1   0.0000
   102 C47      2.3865   2.5274   7.0512   C.ar      1 RES1   0.0000
   103 C48      2.1014   5.2555   2.6397   C.ar      1 RES1   0.0000
   104 C49      4.7984   1.6248   4.5154   C.2       1 RES1   0.0000
   105 C50      1.3528   4.0095   2.7094   C.2       1 RES1   0.0000
   106 N1       3.0633   5.3139   3.5911   N.ar      1 RES1   0.0000
   107 N2       1.6890   3.2161   3.6719   N.2       1 RES1   0.0000
   108 N3       4.6812   5.1578   5.5306   N.2       1 RES1   0.0000
   109 N4       3.2528   2.5145   6.0075   N.ar      1 RES1   0.0000
   110 N5       1.9256   4.6203   6.1933   N.2       1 RES1   0.0000
   111 N6       4.5747   2.7255   3.8636   N.2       1 RES1   0.0000
   112 Cl1      6.8314   8.7335   1.1363   Cl        2 RES2   0.0000
   113 O1       7.1792   7.5980   1.8873   O.3       2 RES2  -1.0000
   114 O2       6.5440   9.7068   2.0681   O.2       2 RES2   0.0000
   115 O3       7.8981   9.1318   0.3265   O.2       2 RES2   0.0000
   116 O4       5.7244   8.4131   0.3542   O.2       2 RES2   0.0000
   117 Cl2      6.5609   8.9872   8.5718   Cl        3 RES3   0.0000
   118 O5       5.5415   9.4029   7.7818   O.2       3 RES3   0.0000
   119 O6       6.1526   8.3858   9.7890   O.3       3 RES3  -1.0000
   120 O7       7.3721   8.0602   7.8733   O.2       3 RES3   0.0000
   121 O8       7.3069  10.1052   8.9533   O.2       3 RES3   0.0000
@<TRIPOS>BOND
     1     1   106    1
     2     2     3    1
     3     4     2   ar
     4     5     4    1
     5     6     2   ar
     6     7     6    1
     7     8     9    1
     8    10    11    1
     9    12    13    1
    10    14    12    1
    11    15    12    1
    12    16    17    1
    13    18    19    1
    14    20    10   ar
    15    21    20    1
    16    22    16   ar
    17    23    22    1
    18    24     4   ar
    19    25    24    1
    20    26     8   ar
    21    27    26    1
    22    28    26   ar
    23    29    28    1
    24    30    31    1
    25    32    30    1
    26    33    30    1
    27    34    35    1
    28    36    34    1
    29    37    34    1
    30    38    39   ar
    31    39    40    1
    32    41    20   ar
    33    42    41    1
    34    43    44    1
    35    45    43    1
    36    46    43    1
    37    47    38    1
    38    48    47    1
    39    49    50    1
    40    51    49    1
    41    52    49    1
    42    53    43    1
    43    54    53    1
    44    55    18   ar
    45    56    55    1
    46    57     8   ar
    47    58    57    1
    48    59    34    1
    49    60    59    1
    50    61    62    1
    51    63    61    1
    52    64    61    1
    53    65    10   ar
    54    66    65    1
    55    67    68    1
    56    69    67    1
    57    70    67    1
    58    71    47    1
    59    72    71    1
    60    73    71    1
    61    74    71    1
    62    75    22   ar
    63    76    80   ar
    64    77    16   ar
    65    78    77    1
    66    79    24   ar
    67    80    81    1
    68    82    83    1
    69    84    82   ar
    70    85    84    1
    71    86    80   ar
    72    87    86    1
    73    88    86   ar
    74    89    88    1
    75    90    57   ar
    76    91    90    1
    77    92     6   ar
    78    93    92    1
    79    94    61    1
    80    95    30    1
    81    96    95    1
    82    97    82   ar
    83    98    97    1
    84    99    67    1
    85   100    28   ar
    86   101    84   ar
    87   102    94    1
    88   103    88   ar
    89   104    12    1
    90   105    49    1
    91   106    76   ar
    92   107     1    1
    93   108     1    1
    94   109     1    1
    95   110     1    1
    96   111     1    1
    97    18    77   ar
    98    38    65   ar
    99    39    41   ar
   100    47   108    1
   101    53   100    1
   102    53   111    1
   103    55    75   ar
   104    59    75    1
   105    59   107    1
   106    76    99    1
   107    79    92   ar
   108    79    95    1
   109    90   100   ar
   110    94   110    2
   111    95   110    1
   112    97   102   ar
   113    99   108    2
   114   101   104    1
   115   101   109   ar
   116   102   109   ar
   117   103   105    1
   118   103   106   ar
   119   104   111    2
   120   105   107    2
   121   112   113    1
   122   114   112    2
   123   115   112    2
   124   116   112    2
   125   117   118    2
   126   119   117    1
   127   120   117    2
   128   121   117    2
@<TRIPOS>SUBSTRUCTURE
     1 RES1        1 GROUP             0 ****  ****    0  
     2 RES2      112 GROUP             0 ****  ****    0  
     3 RES3      117 GROUP             0 ****  ****    0  
@<TRIPOS>CRYSIN
   14.1798   18.1945   18.4490   90.0000   90.0000   90.0000    19     1
