@<TRIPOS>MOLECULE
TORGUF
   106   108     4     0     0
SMALL
USER_CHARGES
****
Generated from the CSD

@<TRIPOS>ATOM
     1 Fe1      3.5421   2.7571   0.1300   Fe        1 RES1   0.0000
     2 Cl1      7.5541   5.1133   2.0202   Cl        1 RES1   0.0000
     3 Cl2      7.2418   0.1598  -1.9856   Cl        1 RES1   0.0000
     4 Cl3      3.5394   5.3468  -4.1586   Cl        1 RES1   0.0000
     5 Cl4      3.1233  -0.0402   4.3120   Cl        1 RES1   0.0000
     6 Cl5      0.5613   5.6288   2.9501   Cl        1 RES1   0.0000
     7 Cl6      0.2909   0.1004  -2.6003   Cl        1 RES1   0.0000
     8 O1       9.8333   3.5246   0.8631   O.2       1 RES1   0.0000
     9 O2       5.0095   1.6522  -0.6579   O.3       1 RES1  -1.0000
    10 O3       1.7663   3.6602  -5.9246   O.2       1 RES1   0.0000
    11 O4       5.1204   3.7342   0.8756   O.3       1 RES1  -1.0000
    12 O5       2.2929   3.8823   1.2252   O.3       1 RES1  -1.0000
    13 O6       3.3106   1.5657   1.7414   O.3       1 RES1   0.0000
    14 O7       3.4033   3.9116  -1.5078   O.3       1 RES1   0.0000
    15 O8       9.7066   1.5500  -0.9495   O.2       1 RES1   0.0000
    16 C1       6.2687   3.2544   0.5323   C.2       1 RES1   0.0000
    17 O9       2.1595   1.7388  -0.9100   O.3       1 RES1   0.0000
    18 O10      0.2723   4.0221   5.4619   O.2       1 RES1   0.0000
    19 C2       7.4851   3.7301   0.9614   C.2       1 RES1   0.0000
    20 O11      1.3210   1.6491   6.0147   O.2       1 RES1   0.0000
    21 C3       8.7098   3.1595   0.4953   C.2       1 RES1   0.0000
    22 C4       6.2027   2.0486  -0.3973   C.2       1 RES1   0.0000
    23 O12      0.4834   1.4102  -5.2969   O.2       1 RES1   0.0000
    24 C5       2.6712   3.8907  -3.7502   C.2       1 RES1   0.0000
    25 C6       8.6414   1.9954  -0.5350   C.2       1 RES1   0.0000
    26 C7       1.9865   2.1425  -2.1135   C.2       1 RES1   0.0000
    27 C8       2.0032   3.4286   2.3889   C.2       1 RES1   0.0000
    28 C9       7.3499   1.5114  -0.8978   C.2       1 RES1   0.0000
    29 C10      0.9664   3.4985   4.5792   C.2       1 RES1   0.0000
    30 C11      1.2469   4.0680   3.3318   C.2       1 RES1   0.0000
    31 C12      2.7516   3.4015  -2.4843   C.2       1 RES1   0.0000
    32 C13      2.3940   1.4906   3.9197   C.2       1 RES1   0.0000
    33 C14      2.6132   2.0538   2.6961   C.2       1 RES1   0.0000
    34 C15      1.1140   1.9704  -4.3753   C.2       1 RES1   0.0000
    35 C16      1.5805   2.1008   4.9155   C.2       1 RES1   0.0000
    36 C17      1.8876   3.2721  -4.7619   C.2       1 RES1   0.0000
    37 C18      1.1994   1.5229  -3.0484   C.2       1 RES1   0.0000
    38 N1       3.6160   7.9650   0.1165   N.4       2 RES2   1.0000
    39 H1       4.5866   7.7504   0.0025   H         2 RES2   0.0000
    40 C19      2.8606   6.8103  -0.4635   C.3       2 RES2   0.0000
    41 H2       3.0344   6.0077   0.0907   H         2 RES2   0.0000
    42 H3       3.2066   6.6282  -1.3720   H         2 RES2   0.0000
    43 C20      3.9174   6.9344   2.3836   C.3       2 RES2   0.0000
    44 H4       4.8568   6.7805   2.1545   H         2 RES2   0.0000
    45 H5       3.3922   6.1356   2.1678   H         2 RES2   0.0000
    46 H6       3.8421   7.1238   3.3435   H         2 RES2   0.0000
    47 C21      1.3753   7.0283  -0.5456   C.3       2 RES2   0.0000
    48 H7       1.1877   7.7719  -1.1545   H         2 RES2   0.0000
    49 H8       1.0264   7.2397   0.3461   H         2 RES2   0.0000
    50 H9       0.9442   6.2143  -0.8797   H         2 RES2   0.0000
    51 C22      3.6934   9.1645  -2.0737   C.3       2 RES2   0.0000
    52 H10      3.0254   8.5933  -2.5078   H         2 RES2   0.0000
    53 H11      4.5850   8.7791  -2.2009   H         2 RES2   0.0000
    54 H12      3.6644  10.0601  -2.4705   H         2 RES2   0.0000
    55 C23      3.3892   8.1172   1.5917   C.3       2 RES2   0.0000
    56 H13      2.4184   8.2142   1.7630   H         2 RES2   0.0000
    57 H14      3.8361   8.9429   1.9062   H         2 RES2   0.0000
    58 C24      3.3895   9.2594  -0.5853   C.3       2 RES2   0.0000
    59 H15      3.9642   9.9550  -0.1795   H         2 RES2   0.0000
    60 H16      2.4459   9.5344  -0.4630   H         2 RES2   0.0000
    61 N2       7.2573   2.5733  -5.7736   N.4       3 RES3   1.0000
    62 H17      7.9231   2.3314  -6.4799   H         3 RES3   0.0000
    63 C25      6.5752   3.7843  -6.2795   C.3       3 RES3   0.0000
    64 H18      7.2444   4.5057  -6.3914   H         3 RES3   0.0000
    65 H19      5.9152   4.0854  -5.6078   H         3 RES3   0.0000
    66 C26      8.0816   2.8413  -4.5236   C.3       3 RES3   0.0000
    67 H20      8.4210   3.7715  -4.5584   H         3 RES3   0.0000
    68 H21      7.4951   2.7647  -3.7307   H         3 RES3   0.0000
    69 C27      9.2466   1.9078  -4.3567   C.3       3 RES3   0.0000
    70 H22      9.8496   1.9982  -5.1250   H         3 RES3   0.0000
    71 H23      8.9201   0.9853  -4.3057   H         3 RES3   0.0000
    72 H24      9.7291   2.1308  -3.5347   H         3 RES3   0.0000
    73 C28      5.1360   1.5990  -4.7884   C.3       3 RES3   0.0000
    74 H25      4.5281   2.2062  -5.2602   H         3 RES3   0.0000
    75 H26      5.4007   1.9994  -3.9347   H         3 RES3   0.0000
    76 H27      4.6811   0.7464  -4.6226   H         3 RES3   0.0000
    77 C29      6.3649   1.3570  -5.6359   C.3       3 RES3   0.0000
    78 H28      6.0796   1.0673  -6.5383   H         3 RES3   0.0000
    79 H29      6.8898   0.6199  -5.2349   H         3 RES3   0.0000
    80 C30      5.8723   3.5652  -7.5931   C.3       3 RES3   0.0000
    81 H30      6.4994   3.1822  -8.2405   H         3 RES3   0.0000
    82 H31      5.5360   4.4217  -7.9300   H         3 RES3   0.0000
    83 H32      5.1211   2.9488  -7.4616   H         3 RES3   0.0000
    84 N3       7.0953   2.6630   5.6809   N.4       4 RES4   1.0000
    85 H33      7.6926   2.8336   6.4651   H         4 RES4   0.0000
    86 C31      9.2622   3.1428   4.4547   C.3       4 RES4   0.0000
    87 H34      9.8181   2.8356   3.7078   H         4 RES4   0.0000
    88 H35      9.7635   3.0561   5.2919   H         4 RES4   0.0000
    89 H36      9.0177   4.0812   4.3152   H         4 RES4   0.0000
    90 C32      8.0260   2.3125   4.5262   C.3       4 RES4   0.0000
    91 H37      8.2875   1.3610   4.6100   H         4 RES4   0.0000
    92 H38      7.5269   2.4121   3.6778   H         4 RES4   0.0000
    93 C33      6.2368   1.5125   6.0756   C.3       4 RES4   0.0000
    94 H39      6.8183   0.7408   6.2923   H         4 RES4   0.0000
    95 H40      5.6726   1.2566   5.3040   H         4 RES4   0.0000
    96 C34      6.3263   3.9449   5.4691   C.3       4 RES4   0.0000
    97 H41      5.9748   4.2526   6.3422   H         4 RES4   0.0000
    98 H42      6.9499   4.6380   5.1359   H         4 RES4   0.0000
    99 C35      5.3520   1.7941   7.2488   C.3       4 RES4   0.0000
   100 H43      4.6902   2.4749   7.0044   H         4 RES4   0.0000
   101 H44      5.8941   2.1213   7.9977   H         4 RES4   0.0000
   102 H45      4.8902   0.9718   7.5161   H         4 RES4   0.0000
   103 C36      5.1865   3.8187   4.5077   C.3       4 RES4   0.0000
   104 H46      5.5180   3.4764   3.6512   H         4 RES4   0.0000
   105 H47      4.7757   4.6978   4.3710   H         4 RES4   0.0000
   106 H48      4.5196   3.1993   4.8709   H         4 RES4   0.0000
@<TRIPOS>BOND
     1     1     9    1
     2     2    19    1
     3     3    28    1
     4     4    24    1
     5     5    32    1
     6     6    30    1
     7     7    37    1
     8     8    21    2
     9     9    22    1
    10    10    36    2
    11    11     1    1
    12    12     1    1
    13    13     1    1
    14    14     1    1
    15    15    25    2
    16    16    11    1
    17    17     1    1
    18    18    29    2
    19    19    16    2
    20    20    35    2
    21    21    19    1
    22    22    16    1
    23    23    34    2
    24    24    31    2
    25    25    21    1
    26    26    17    1
    27    27    12    1
    28    28    22    2
    29    29    30    1
    30    30    27    2
    31    31    14    1
    32    32    33    2
    33    33    13    1
    34    34    36    1
    35    35    29    1
    36    36    24    1
    37    37    26    2
    38    25    28    1
    39    26    31    1
    40    27    33    1
    41    32    35    1
    42    34    37    1
    43    38    39    1
    44    40    38    1
    45    41    40    1
    46    42    40    1
    47    43    44    1
    48    45    43    1
    49    46    43    1
    50    47    40    1
    51    48    47    1
    52    49    47    1
    53    50    47    1
    54    51    52    1
    55    53    51    1
    56    54    51    1
    57    55    38    1
    58    56    55    1
    59    57    55    1
    60    58    38    1
    61    59    58    1
    62    60    58    1
    63    43    55    1
    64    51    58    1
    65    61    62    1
    66    63    61    1
    67    64    63    1
    68    65    63    1
    69    66    61    1
    70    67    66    1
    71    68    66    1
    72    69    66    1
    73    70    69    1
    74    71    69    1
    75    72    69    1
    76    73    74    1
    77    75    73    1
    78    76    73    1
    79    77    61    1
    80    78    77    1
    81    79    77    1
    82    80    63    1
    83    81    80    1
    84    82    80    1
    85    83    80    1
    86    73    77    1
    87    84    85    1
    88    86    87    1
    89    88    86    1
    90    89    86    1
    91    90    84    1
    92    91    90    1
    93    92    90    1
    94    93    84    1
    95    94    93    1
    96    95    93    1
    97    96    84    1
    98    97    96    1
    99    98    96    1
   100    99    93    1
   101   100    99    1
   102   101    99    1
   103   102    99    1
   104   103    96    1
   105   104   103    1
   106   105   103    1
   107   106   103    1
   108    86    90    1
@<TRIPOS>SUBSTRUCTURE
     1 RES1        1 GROUP             0 ****  ****    0  
     2 RES2       38 GROUP             0 ****  ****    0  
     3 RES3       61 GROUP             0 ****  ****    0  
     4 RES4       84 GROUP             0 ****  ****    0  
@<TRIPOS>CRYSIN
   15.9910   10.4308   26.4920   90.0000   91.3540   90.0000   231     1
