@<TRIPOS>MOLECULE
TOSRAU01
   194   207     6     0     0
SMALL
USER_CHARGES
****
Generated from the CSD

@<TRIPOS>ATOM
     1 Fe1      3.8387  12.3874   5.9017   Fe        1 RES1  -3.0000
     2 S1       4.1571  13.4112   7.9322   S.3       1 RES1   0.0000
     3 S2       2.9084  14.5063   5.6952   S.3       1 RES1   0.0000
     4 S3       2.8495  16.0940   8.2784   S.2       1 RES1   0.0000
     5 S4       1.8477  11.3621   6.5037   S.3       1 RES1   0.0000
     6 S5       2.9765  11.4475   3.9722   S.3       1 RES1   0.0000
     7 S6       0.4693   9.7957   4.3453   S.2       1 RES1   0.0000
     8 S7       5.1407  10.6031   6.4890   S.3       1 RES1   0.0000
     9 S8       5.8830  12.7662   4.8875   S.3       1 RES1   0.0000
    10 S9       7.8555  10.4308   5.2623   S.2       1 RES1   0.0000
    11 C1       3.2603  14.7683   7.3572   C.2       1 RES1   0.0000
    12 C2       1.6740  10.8082   4.9090   C.2       1 RES1   0.0000
    13 C3       6.4414  11.1884   5.5316   C.2       1 RES1   0.0000
    14 P1      -1.6130   8.9328  10.5163   P.3       2 RES2   1.0000
    15 C4      -0.0923  11.0901   9.7276   C.ar      2 RES2   0.0000
    16 H1      -0.8279  11.3023   9.1660   H         2 RES2   0.0000
    17 C5       1.0489  11.8833   9.7057   C.ar      2 RES2   0.0000
    18 H2       1.0946  12.6366   9.1281   H         2 RES2   0.0000
    19 C6       2.1285  11.5728  10.5268   C.ar      2 RES2   0.0000
    20 H3       2.9074  12.1154  10.5121   H         2 RES2   0.0000
    21 C7       2.0646  10.4692  11.3702   C.ar      2 RES2   0.0000
    22 H4       2.8006  10.2571  11.9297   H         2 RES2   0.0000
    23 C8       0.9234   9.6761  11.3921   C.ar      2 RES2   0.0000
    24 H5       0.8781   8.9228  11.9675   H         2 RES2   0.0000
    25 C9      -0.1561   9.9865  10.5705   C.ar      2 RES2   0.0000
    26 C10     -0.6519   6.8694  12.0218   C.ar      2 RES2   0.0000
    27 H6      -0.1362   6.6629  11.2503   H         2 RES2   0.0000
    28 C11     -0.4681   6.1446  13.1937   C.ar      2 RES2   0.0000
    29 H7       0.1727   5.4425  13.2253   H         2 RES2   0.0000
    30 C12     -1.2215   6.4464  14.3223   C.ar      2 RES2   0.0000
    31 H8      -1.0960   5.9509  15.1232   H         2 RES2   0.0000
    32 C13     -2.1585   7.4717  14.2790   C.ar      2 RES2   0.0000
    33 H9      -2.6719   7.6782  15.0505   H         2 RES2   0.0000
    34 C14     -2.3422   8.1965  13.1071   C.ar      2 RES2   0.0000
    35 H10     -2.9812   8.8986  13.0780   H         2 RES2   0.0000
    36 C15     -1.5889   7.8947  11.9785   C.ar      2 RES2   0.0000
    37 C9F     -3.0698   9.9865  10.4620   C.ar      2 RES2   0.0000
    38 C4F     -3.1337  11.0901  11.3050   C.ar      2 RES2   0.0000
    39 H1F     -2.3980  11.3023  11.8666   H         2 RES2   0.0000
    40 C5F     -4.2748  11.8833  11.3269   C.ar      2 RES2   0.0000
    41 H2F     -4.3205  12.6366  11.9044   H         2 RES2   0.0000
    42 C6F     -5.3545  11.5728  10.5058   C.ar      2 RES2   0.0000
    43 H3F     -6.1333  12.1154  10.5205   H         2 RES2   0.0000
    44 C7F     -5.2906  10.4692   9.6623   C.ar      2 RES2   0.0000
    45 H4F     -6.0265  10.2571   9.1029   H         2 RES2   0.0000
    46 C8F     -4.1494   9.6761   9.6405   C.ar      2 RES2   0.0000
    47 H5F     -4.1040   8.9228   9.0650   H         2 RES2   0.0000
    48 C15F    -1.6370   7.8947   9.0541   C.ar      2 RES2   0.0000
    49 C10F    -2.5741   6.8694   9.0108   C.ar      2 RES2   0.0000
    50 H6F     -3.0897   6.6629   9.7822   H         2 RES2   0.0000
    51 C11F    -2.7578   6.1446   7.8388   C.ar      2 RES2   0.0000
    52 H7F     -3.3986   5.4425   7.8073   H         2 RES2   0.0000
    53 C12F    -2.0045   6.4464   6.7102   C.ar      2 RES2   0.0000
    54 H8F     -2.1300   5.9509   5.9093   H         2 RES2   0.0000
    55 C13F    -1.0675   7.4717   6.7535   C.ar      2 RES2   0.0000
    56 H9F     -0.5540   7.6782   5.9821   H         2 RES2   0.0000
    57 C14F    -0.8837   8.1965   7.9255   C.ar      2 RES2   0.0000
    58 H10F    -0.2448   8.8986   7.9545   H         2 RES2   0.0000
    59 P2       9.6750  23.5715  10.5163   P.3       3 RES3   1.0000
    60 C16     10.6962  21.4739  11.9536   C.ar      3 RES3   0.0000
    61 H11     11.4244  21.4981  11.3424   H         3 RES3   0.0000
    62 C17     10.6035  20.4429  12.8824   C.ar      3 RES3   0.0000
    63 H12     11.2659  19.7637  12.9056   H         3 RES3   0.0000
    64 C18      9.5407  20.4088  13.7763   C.ar      3 RES3   0.0000
    65 H13      9.4749  19.7039  14.4115   H         3 RES3   0.0000
    66 C19      8.5685  21.4027  13.7418   C.ar      3 RES3   0.0000
    67 H14      7.8427  21.3785  14.3526   H         3 RES3   0.0000
    68 C20      8.6635  22.4323  12.8130   C.ar      3 RES3   0.0000
    69 H15      7.9992  23.1129  12.7878   H         3 RES3   0.0000
    70 C21      9.7263  22.4679  11.9191   C.ar      3 RES3   0.0000
    71 C22      8.2175  25.5067  11.7172   C.ar      3 RES3   0.0000
    72 H16      8.9430  25.5309  12.3301   H         3 RES3   0.0000
    73 C23      7.1297  26.3568  11.8918   C.ar      3 RES3   0.0000
    74 H17      7.1144  26.9606  12.6246   H         3 RES3   0.0000
    75 C24      6.0685  26.3212  10.9946   C.ar      3 RES3   0.0000
    76 H18      5.3278  26.9022  11.1136   H         3 RES3   0.0000
    77 C25      6.0952  25.4369   9.9227   C.ar      3 RES3   0.0000
    78 H19      5.3698  25.4127   9.3090   H         3 RES3   0.0000
    79 C26      7.1809  24.5868   9.7477   C.ar      3 RES3   0.0000
    80 H20      7.1984  23.9830   9.0150   H         3 RES3   0.0000
    81 C27      8.2420  24.6224  10.6450   C.ar      3 RES3   0.0000
    82 C21F     9.6238  22.4679   9.1134   C.ar      3 RES3   0.0000
    83 C16F     8.6538  21.4739   9.0789   C.ar      3 RES3   0.0000
    84 H11F     7.9257  21.4981   9.6901   H         3 RES3   0.0000
    85 C17F     8.7466  20.4429   8.1501   C.ar      3 RES3   0.0000
    86 H12F     8.0842  19.7637   8.1270   H         3 RES3   0.0000
    87 C18F     9.8093  20.4088   7.2562   C.ar      3 RES3   0.0000
    88 H13F     9.8751  19.7039   6.6210   H         3 RES3   0.0000
    89 C19F    10.7816  21.4027   7.2907   C.ar      3 RES3   0.0000
    90 H14F    11.5074  21.3785   6.6799   H         3 RES3   0.0000
    91 C20F    10.6865  22.4323   8.2195   C.ar      3 RES3   0.0000
    92 H15F    11.3509  23.1129   8.2448   H         3 RES3   0.0000
    93 C27F    11.1080  24.6224  10.3876   C.ar      3 RES3   0.0000
    94 C22F    11.1325  25.5067   9.3153   C.ar      3 RES3   0.0000
    95 H16F    10.4070  25.5309   8.7024   H         3 RES3   0.0000
    96 C23F    12.2204  26.3568   9.1407   C.ar      3 RES3   0.0000
    97 H17F    12.2357  26.9606   8.4080   H         3 RES3   0.0000
    98 C24F    13.2815  26.3212  10.0380   C.ar      3 RES3   0.0000
    99 H18F    14.0222  26.9022   9.9189   H         3 RES3   0.0000
   100 C25F    13.2548  25.4369  11.1098   C.ar      3 RES3   0.0000
   101 H19F    13.9802  25.4127  11.7235   H         3 RES3   0.0000
   102 C26F    12.1692  24.5868  11.2848   C.ar      3 RES3   0.0000
   103 H20F    12.1516  23.9830  12.0176   H         3 RES3   0.0000
   104 P3       4.1352  20.0670   5.1875   P.3       4 RES4   1.0000
   105 C28      1.7723  20.1282   3.7678   C.ar      4 RES4   0.0000
   106 H21      2.2009  20.7790   3.2251   H         4 RES4   0.0000
   107 C29      0.4510  19.7794   3.5213   C.ar      4 RES4   0.0000
   108 H22     -0.0246  20.1937   2.8099   H         4 RES4   0.0000
   109 C30     -0.1766  18.8267   4.3159   C.ar      4 RES4   0.0000
   110 H23     -1.0809  18.5889   4.1476   H         4 RES4   0.0000
   111 C31      0.5174  18.2229   5.3549   C.ar      4 RES4   0.0000
   112 H24      0.0888  17.5707   5.8975   H         4 RES4   0.0000
   113 C32      1.8408  18.5704   5.6026   C.ar      4 RES4   0.0000
   114 H25      2.3164  18.1574   6.3140   H         4 RES4   0.0000
   115 C33      2.4683  19.5245   4.8085   C.ar      4 RES4   0.0000
   116 C34      4.9746  17.4326   5.6742   C.ar      4 RES4   0.0000
   117 H26      4.0551  17.1962   5.7377   H         4 RES4   0.0000
   118 C35      5.9549  16.4686   5.8769   C.ar      4 RES4   0.0000
   119 H27      5.7073  15.5743   6.0784   H         4 RES4   0.0000
   120 C36      7.2989  16.8146   5.7844   C.ar      4 RES4   0.0000
   121 H28      7.9685  16.1553   5.9228   H         4 RES4   0.0000
   122 C37      7.6601  18.1232   5.4895   C.ar      4 RES4   0.0000
   123 H29      8.5774  18.3596   5.4264   H         4 RES4   0.0000
   124 C38      6.6776  19.0873   5.2867   C.ar      4 RES4   0.0000
   125 H30      6.9252  19.9816   5.0857   H         4 RES4   0.0000
   126 C39      5.3359  18.7413   5.3793   C.ar      4 RES4   0.0000
   127 C40      5.0082  20.8701   7.6924   C.ar      4 RES4   0.0000
   128 H31      5.7331  20.2706   7.5587   H         4 RES4   0.0000
   129 C41      4.9072  21.5836   8.8808   C.ar      4 RES4   0.0000
   130 H32      5.5617  21.4725   9.5593   H         4 RES4   0.0000
   131 C42      3.8454  22.4593   9.0768   C.ar      4 RES4   0.0000
   132 H33      3.7750  22.9478   9.8891   H         4 RES4   0.0000
   133 C43      2.8846  22.6231   8.0845   C.ar      4 RES4   0.0000
   134 H34      2.1596  23.2212   8.2195   H         4 RES4   0.0000
   135 C44      2.9879  21.9082   6.8961   C.ar      4 RES4   0.0000
   136 H35      2.3312  22.0193   6.2176   H         4 RES4   0.0000
   137 C45      4.0474  21.0325   6.7001   C.ar      4 RES4   0.0000
   138 C46      4.9610  22.4052   3.9087   C.ar      4 RES4   0.0000
   139 H36      4.8508  22.8424   4.7449   H         4 RES4   0.0000
   140 C47      5.3819  23.1272   2.7977   C.ar      4 RES4   0.0000
   141 H37      5.5600  24.0571   2.8730   H         4 RES4   0.0000
   142 C48      5.5447  22.4878   1.5745   C.ar      4 RES4   0.0000
   143 H38      5.8328  22.9805   0.8152   H         4 RES4   0.0000
   144 C49      5.2866  21.1265   1.4618   C.ar      4 RES4   0.0000
   145 H39      5.3968  20.6893   0.6255   H         4 RES4   0.0000
   146 C50      4.8657  20.4045   2.5723   C.ar      4 RES4   0.0000
   147 H40      4.6880  19.4746   2.4945   H         4 RES4   0.0000
   148 C51      4.7028  21.0439   3.7960   C.ar      4 RES4   0.0000
   149 P4      -1.9075  11.3592  20.3982   P.3       5 RES5   1.0000
   150 C52     -1.5943   8.6565  20.6981   C.ar      5 RES5   0.0000
   151 H41     -2.0960   8.7747  21.4961   H         5 RES5   0.0000
   152 C53     -1.1257   7.3934  20.3511   C.ar      5 RES5   0.0000
   153 H42     -1.3086   6.6487  20.9106   H         5 RES5   0.0000
   154 C54     -0.3916   7.2211  19.1859   C.ar      5 RES5   0.0000
   155 H43     -0.0726   6.3582  18.9461   H         5 RES5   0.0000
   156 C55     -0.1255   8.3105  18.3635   C.ar      5 RES5   0.0000
   157 H44      0.3760   8.1937  17.5664   H         5 RES5   0.0000
   158 C56     -0.5941   9.5736  18.7101   C.ar      5 RES5   0.0000
   159 H45     -0.4106  10.3183  18.1469   H         5 RES5   0.0000
   160 C57     -1.3285   9.7459  19.8774   C.ar      5 RES5   0.0000
   161 C58     -3.0267  12.8559  18.3353   C.ar      5 RES5   0.0000
   162 H46     -3.8488  12.4173  18.5284   H         5 RES5   0.0000
   163 C59     -2.9688  13.8085  17.3245   C.ar      5 RES5   0.0000
   164 H47     -3.7502  14.0207  16.8260   H         5 RES5   0.0000
   165 C60     -1.7673  14.4493  17.0418   C.ar      5 RES5   0.0000
   166 H48     -1.7290  15.1001  16.3507   H         5 RES5   0.0000
   167 C61     -0.6261  14.1375  17.7708   C.ar      5 RES5   0.0000
   168 H49      0.1935  14.5761  17.5790   H         5 RES5   0.0000
   169 C62     -0.6841  13.1848  18.7816   C.ar      5 RES5   0.0000
   170 H50      0.0954  12.9726  19.2784   H         5 RES5   0.0000
   171 C63     -1.8855  12.5440  19.0639   C.ar      5 RES5   0.0000
   172 C64      0.3139  11.2838  22.0631   C.ar      5 RES5   0.0000
   173 H51      0.4688  10.4066  21.7308   H         5 RES5   0.0000
   174 C65      1.1989  11.8477  22.9759   C.ar      5 RES5   0.0000
   175 H52      1.9610  11.3578  23.2620   H         5 RES5   0.0000
   176 C66      0.9707  13.1293  23.4626   C.ar      5 RES5   0.0000
   177 H53      1.5771  13.5152  24.0865   H         5 RES5   0.0000
   178 C67     -0.1428  13.8456  23.0390   C.ar      5 RES5   0.0000
   179 H54     -0.2976  14.7227  23.3714   H         5 RES5   0.0000
   180 C68     -1.0284  13.2816  22.1304   C.ar      5 RES5   0.0000
   181 H55     -1.7876  13.7715  21.8402   H         5 RES5   0.0000
   182 C69     -0.7999  12.0000  21.6416   C.ar      5 RES5   0.0000
   183 C70     -3.9424  11.5173  22.3033   C.ar      5 RES5   0.0000
   184 H56     -3.3175  11.9388  22.8809   H         5 RES5   0.0000
   185 C71     -5.2435  11.2937  22.7349   C.ar      5 RES5   0.0000
   186 H57     -5.5082  11.5615  23.6073   H         5 RES5   0.0000
   187 C72     -6.1615  10.6772  21.8907   C.ar      5 RES5   0.0000
   188 H58     -7.0510  10.5248  22.1851   H         5 RES5   0.0000
   189 C73     -5.7738  10.2856  20.6140   C.ar      5 RES5   0.0000
   190 H59     -6.4007   9.8640  20.0356   H         5 RES5   0.0000
   191 C74     -4.4727  10.5091  20.1824   C.ar      5 RES5   0.0000
   192 H60     -4.2079  10.2414  19.3100   H         5 RES5   0.0000
   193 C75     -3.5570  11.1257  21.0271   C.ar      5 RES5   0.0000
   194 O1       5.3801  12.1567   1.6910   O.3       6 RES6   0.0000
@<TRIPOS>BOND
     1     1     2    1
     2     2    11    1
     3     3     1    1
     4     4    11    2
     5     5     1    1
     6     6     1    1
     7     7    12    2
     8     8     1    1
     9     9     1    1
    10    10    13    2
    11    11     3    1
    12    12     5    1
    13    13     8    1
    14     6    12    1
    15     9    13    1
    16    14    25    1
    17    15    16    1
    18    17    15   ar
    19    18    17    1
    20    19    17   ar
    21    20    19    1
    22    21    19   ar
    23    22    21    1
    24    23    21   ar
    25    24    23    1
    26    25    15   ar
    27    26    27    1
    28    28    26   ar
    29    29    28    1
    30    30    28   ar
    31    31    30    1
    32    32    30   ar
    33    33    32    1
    34    34    32   ar
    35    35    34    1
    36    36    14    1
    37    37    14    1
    38    38    37   ar
    39    39    38    1
    40    40    38   ar
    41    41    40    1
    42    42    40   ar
    43    43    42    1
    44    44    42   ar
    45    45    44    1
    46    46    37   ar
    47    47    46    1
    48    48    14    1
    49    49    48   ar
    50    50    49    1
    51    51    49   ar
    52    52    51    1
    53    53    51   ar
    54    54    53    1
    55    55    53   ar
    56    56    55    1
    57    57    48   ar
    58    58    57    1
    59    23    25   ar
    60    26    36   ar
    61    34    36   ar
    62    44    46   ar
    63    55    57   ar
    64    59    70    1
    65    60    61    1
    66    62    60   ar
    67    63    62    1
    68    64    62   ar
    69    65    64    1
    70    66    64   ar
    71    67    66    1
    72    68    66   ar
    73    69    68    1
    74    70    60   ar
    75    71    72    1
    76    73    71   ar
    77    74    73    1
    78    75    73   ar
    79    76    75    1
    80    77    75   ar
    81    78    77    1
    82    79    77   ar
    83    80    79    1
    84    81    59    1
    85    82    59    1
    86    83    82   ar
    87    84    83    1
    88    85    83   ar
    89    86    85    1
    90    87    85   ar
    91    88    87    1
    92    89    87   ar
    93    90    89    1
    94    91    82   ar
    95    92    91    1
    96    93    59    1
    97    94    93   ar
    98    95    94    1
    99    96    94   ar
   100    97    96    1
   101    98    96   ar
   102    99    98    1
   103   100    98   ar
   104   101   100    1
   105   102    93   ar
   106   103   102    1
   107    68    70   ar
   108    71    81   ar
   109    79    81   ar
   110    89    91   ar
   111   100   102   ar
   112   104   115    1
   113   105   106    1
   114   107   105   ar
   115   108   107    1
   116   109   107   ar
   117   110   109    1
   118   111   109   ar
   119   112   111    1
   120   113   111   ar
   121   114   113    1
   122   115   105   ar
   123   116   117    1
   124   118   116   ar
   125   119   118    1
   126   120   118   ar
   127   121   120    1
   128   122   120   ar
   129   123   122    1
   130   124   122   ar
   131   125   124    1
   132   126   104    1
   133   127   128    1
   134   129   127   ar
   135   130   129    1
   136   131   129   ar
   137   132   131    1
   138   133   131   ar
   139   134   133    1
   140   135   133   ar
   141   136   135    1
   142   137   104    1
   143   138   139    1
   144   140   138   ar
   145   141   140    1
   146   142   140   ar
   147   143   142    1
   148   144   142   ar
   149   145   144    1
   150   146   144   ar
   151   147   146    1
   152   148   104    1
   153   113   115   ar
   154   116   126   ar
   155   124   126   ar
   156   127   137   ar
   157   135   137   ar
   158   138   148   ar
   159   146   148   ar
   160   149   160    1
   161   150   151    1
   162   152   150   ar
   163   153   152    1
   164   154   152   ar
   165   155   154    1
   166   156   154   ar
   167   157   156    1
   168   158   156   ar
   169   159   158    1
   170   160   150   ar
   171   161   162    1
   172   163   161   ar
   173   164   163    1
   174   165   163   ar
   175   166   165    1
   176   167   165   ar
   177   168   167    1
   178   169   167   ar
   179   170   169    1
   180   171   149    1
   181   172   173    1
   182   174   172   ar
   183   175   174    1
   184   176   174   ar
   185   177   176    1
   186   178   176   ar
   187   179   178    1
   188   180   178   ar
   189   181   180    1
   190   182   149    1
   191   183   184    1
   192   185   183   ar
   193   186   185    1
   194   187   185   ar
   195   188   187    1
   196   189   187   ar
   197   190   189    1
   198   191   189   ar
   199   192   191    1
   200   193   149    1
   201   158   160   ar
   202   161   171   ar
   203   169   171   ar
   204   172   182   ar
   205   180   182   ar
   206   183   193   ar
   207   191   193   ar
@<TRIPOS>SUBSTRUCTURE
     1 RES1        1 GROUP             0 ****  ****    0  
     2 RES2       14 GROUP             0 ****  ****    0  
     3 RES3       59 GROUP             0 ****  ****    0  
     4 RES4      104 GROUP             0 ****  ****    0  
     5 RES5      149 GROUP             0 ****  ****    0  
     6 RES6      194 GROUP             0 ****  ****    0  
@<TRIPOS>CRYSIN
   22.5760   14.2400   42.5570   90.0000   98.7200   90.0000    15     1
