@<TRIPOS>MOLECULE
TOWRAA
    89    97     3     0     0
SMALL
USER_CHARGES
****
Generated from the CSD

@<TRIPOS>ATOM
     1 Sb1      6.7149   9.9538   2.6914   Sb        1 RES1  -1.0000
     2 F1       7.3768   9.2528   4.2979   F         1 RES1   0.0000
     3 F2       6.8478  11.6961   3.3638   F         1 RES1   0.0000
     4 F3       8.4656  10.0693   2.0291   F         1 RES1   0.0000
     5 F4       6.6011   8.2368   1.9669   F         1 RES1   0.0000
     6 F5       4.9878   9.8038   3.3780   F         1 RES1   0.0000
     7 F6       6.0611  10.6581   1.0850   F         1 RES1   0.0000
     8 Sb2      5.7378   7.1017   9.4189   Sb        2 RES2  -1.0000
     9 F7       6.0801   6.5214  11.1664   F         2 RES2   0.0000
    10 F8       5.2540   8.7787  10.0913   F         2 RES2   0.0000
    11 F9       7.5160   7.6581   9.2368   F         2 RES2   0.0000
    12 F10      6.1938   5.4077   8.7566   F         2 RES2   0.0000
    13 F11      3.9650   6.5009   9.6217   F         2 RES2   0.0000
    14 F12      5.3495   7.6541   7.6749   F         2 RES2   0.0000
    15 Fe1      3.1729   2.1369   6.1752   Fe        3 RES3   2.0000
    16 S1       6.6013   5.4746   0.4804   S.3       3 RES3   0.0000
    17 S2       5.4811   3.1755  -0.9069   S.3       3 RES3   0.0000
    18 S3       8.1439   6.4366  -1.9226   S.3       3 RES3   0.0000
    19 S4       6.8225   3.8348  -3.5242   S.3       3 RES3   0.0000
    20 N1       4.1585   3.9862   5.2866   N.ar      3 RES3   0.0000
    21 N2       3.0836   1.6021   4.0266   N.ar      3 RES3   0.0000
    22 N3       1.2274   3.0915   6.2460   N.ar      3 RES3   0.0000
    23 N4       5.1085   1.6632   7.0511   N.ar      3 RES3   0.0000
    24 N5       2.6146   0.2213   7.0317   N.ar      3 RES3   0.0000
    25 N6       2.8929   2.7069   8.3202   N.3       3 RES3   0.0000
    26 C1       4.6541   5.1743   5.6732   C.ar      3 RES3   0.0000
    27 H1       4.5437   5.4410   6.5786   H         3 RES3   0.0000
    28 C2       5.3231   6.0318   4.8006   C.ar      3 RES3   0.0000
    29 H2       5.6397   6.8691   5.1196   H         3 RES3   0.0000
    30 C3       5.5348   5.6788   3.4665   C.ar      3 RES3   0.0000
    31 H3       6.0068   6.2528   2.8749   H         3 RES3   0.0000
    32 C4       5.0278   4.4505   3.0336   C.ar      3 RES3   0.0000
    33 C5       4.3501   3.6878   4.0005   C.ar      3 RES3   0.0000
    34 C6       3.8114   2.5102   3.3733   C.ar      3 RES3   0.0000
    35 C7       4.1387   2.5285   2.0064   C.ar      3 RES3   0.0000
    36 C8       3.6163   1.4887   1.2320   C.ar      3 RES3   0.0000
    37 H4       3.8029   1.4229   0.3022   H         3 RES3   0.0000
    38 C9       2.8113   0.5524   1.8786   C.ar      3 RES3   0.0000
    39 H5       2.4207  -0.1527   1.3749   H         3 RES3   0.0000
    40 C10      2.5693   0.6300   3.2487   C.ar      3 RES3   0.0000
    41 H6       2.0180  -0.0305   3.6519   H         3 RES3   0.0000
    42 C11      4.9550   3.7199   1.7556   C.2       3 RES3   0.0000
    43 C12      5.5850   4.0626   0.5847   C.2       3 RES3   0.0000
    44 C13      7.0569   5.2847  -1.1895   C.2       3 RES3   0.0000
    45 C14      6.5309   4.2243  -1.8417   C.2       3 RES3   0.0000
    46 C15      8.7250   7.3724  -0.4925   C.3       3 RES3   0.0000
    47 H7       9.4810   7.9370  -0.7576   H         3 RES3   0.0000
    48 H8       9.0112   6.7513   0.2094   H         3 RES3   0.0000
    49 H9       7.9987   7.9361  -0.1532   H         3 RES3   0.0000
    50 C16      8.4876   3.1377  -3.4287   C.3       3 RES3   0.0000
    51 H10      8.7786   2.8633  -4.3232   H         3 RES3   0.0000
    52 H11      8.4819   2.3590  -2.8339   H         3 RES3   0.0000
    53 H12      9.1046   3.8124  -3.0778   H         3 RES3   0.0000
    54 C17      0.2716   2.9939   5.3089   C.ar      3 RES3   0.0000
    55 H13      0.4223   2.4272   4.5606   H         3 RES3   0.0000
    56 C18     -0.9275   3.6870   5.3879   C.ar      3 RES3   0.0000
    57 H14     -1.5774   3.6147   4.6987   H         3 RES3   0.0000
    58 C19     -1.1561   4.4876   6.4960   C.ar      3 RES3   0.0000
    59 H15     -1.9679   4.9749   6.5765   H         3 RES3   0.0000
    60 C20     -0.1872   4.5712   7.4879   C.ar      3 RES3   0.0000
    61 H16     -0.3340   5.0977   8.2643   H         3 RES3   0.0000
    62 C21      0.9963   3.8729   7.3228   C.ar      3 RES3   0.0000
    63 C22      2.1165   3.9646   8.3273   C.3       3 RES3   0.0000
    64 H17      2.7084   4.7245   8.1003   H         3 RES3   0.0000
    65 H18      1.7433   4.1228   9.2312   H         3 RES3   0.0000
    66 C23      6.0626   0.9258   6.4588   C.ar      3 RES3   0.0000
    67 H19      5.9503   0.6827   5.5469   H         3 RES3   0.0000
    68 C24      7.2045   0.5038   7.1232   C.ar      3 RES3   0.0000
    69 H20      7.8636  -0.0131   6.6758   H         3 RES3   0.0000
    70 C25      7.3635   0.8521   8.4516   C.ar      3 RES3   0.0000
    71 H21      8.1346   0.5746   8.9334   H         3 RES3   0.0000
    72 C26      6.3833   1.6110   9.0726   C.ar      3 RES3   0.0000
    73 H22      6.4746   1.8614   9.9845   H         3 RES3   0.0000
    74 C27      5.2692   1.9992   8.3459   C.ar      3 RES3   0.0000
    75 C28      4.2130   2.8889   8.9506   C.3       3 RES3   0.0000
    76 H23      4.1400   2.6925   9.9176   H         3 RES3   0.0000
    77 H24      4.4913   3.8342   8.8535   H         3 RES3   0.0000
    78 C29      2.7324  -0.9885   6.4468   C.ar      3 RES3   0.0000
    79 H25      3.0372  -1.0321   5.5469   H         3 RES3   0.0000
    80 C30      2.4291  -2.1669   7.0997   C.ar      3 RES3   0.0000
    81 H26      2.5141  -3.0035   6.6563   H         3 RES3   0.0000
    82 C31      1.9977  -2.1006   8.4171   C.ar      3 RES3   0.0000
    83 H27      1.7598  -2.8928   8.8859   H         3 RES3   0.0000
    84 C32      1.9176  -0.8708   9.0402   C.ar      3 RES3   0.0000
    85 H28      1.6466  -0.8075   9.9478   H         3 RES3   0.0000
    86 C33      2.2394   0.2742   8.3170   C.ar      3 RES3   0.0000
    87 C34      2.0973   1.6310   8.9608   C.3       3 RES3   0.0000
    88 H29      1.1423   1.8909   8.9420   H         3 RES3   0.0000
    89 H30      2.3687   1.5606   9.9111   H         3 RES3   0.0000
@<TRIPOS>BOND
     1     1     2    1
     2     3     1    1
     3     4     1    1
     4     5     1    1
     5     6     1    1
     6     7     1    1
     7     8     9    1
     8    10     8    1
     9    11     8    1
    10    12     8    1
    11    13     8    1
    12    14     8    1
    13    15    20    1
    14    16    43    1
    15    17    43    1
    16    18    44    1
    17    19    45    1
    18    20    26   ar
    19    21    15    1
    20    22    15    1
    21    23    15    1
    22    24    15    1
    23    25    15    1
    24    26    27    1
    25    28    26   ar
    26    29    28    1
    27    30    28   ar
    28    31    30    1
    29    32    30   ar
    30    33    20   ar
    31    34    21   ar
    32    35    34   ar
    33    36    35   ar
    34    37    36    1
    35    38    36   ar
    36    39    38    1
    37    40    21   ar
    38    41    40    1
    39    42    32    1
    40    43    42    2
    41    44    16    1
    42    45    17    1
    43    46    18    1
    44    47    46    1
    45    48    46    1
    46    49    46    1
    47    50    19    1
    48    51    50    1
    49    52    50    1
    50    53    50    1
    51    54    22   ar
    52    55    54    1
    53    56    54   ar
    54    57    56    1
    55    58    56   ar
    56    59    58    1
    57    60    58   ar
    58    61    60    1
    59    62    22   ar
    60    63    25    1
    61    64    63    1
    62    65    63    1
    63    66    23   ar
    64    67    66    1
    65    68    66   ar
    66    69    68    1
    67    70    68   ar
    68    71    70    1
    69    72    70   ar
    70    73    72    1
    71    74    23   ar
    72    75    25    1
    73    76    75    1
    74    77    75    1
    75    78    24   ar
    76    79    78    1
    77    80    78   ar
    78    81    80    1
    79    82    80   ar
    80    83    82    1
    81    84    82   ar
    82    85    84    1
    83    86    24   ar
    84    87    25    1
    85    88    87    1
    86    89    87    1
    87    32    33   ar
    88    33    34    1
    89    35    42    1
    90    38    40   ar
    91    44    45    2
    92    60    62   ar
    93    62    63    1
    94    72    74   ar
    95    74    75    1
    96    84    86   ar
    97    86    87    1
@<TRIPOS>SUBSTRUCTURE
     1 RES1        1 GROUP             0 ****  ****    0  
     2 RES2        8 GROUP             0 ****  ****    0  
     3 RES3       15 GROUP             0 ****  ****    0  
@<TRIPOS>CRYSIN
    9.2260   10.1490   21.7990   90.5230   98.0080   93.0330     2     1
