@<TRIPOS>MOLECULE
TOYREH
   108   122     2     0     0
SMALL
USER_CHARGES
****
Generated from the CSD

@<TRIPOS>ATOM
     1 P1      16.3708  -5.4569   5.7114   P.3       1 RES1   1.0000
     2 C19     14.9585  -5.6665   4.6308   C.ar      1 RES1   0.0000
     3 C20     14.9651  -6.7426   3.7368   C.ar      1 RES1   0.0000
     4 H11     15.6652  -7.3557   3.7599   H         1 RES1   0.0000
     5 C21     13.9588  -6.9041   2.8329   C.ar      1 RES1   0.0000
     6 H12     13.9680  -7.6170   2.2361   H         1 RES1   0.0000
     7 C22     12.9220  -5.9873   2.8169   C.ar      1 RES1   0.0000
     8 H13     12.2183  -6.1054   2.2194   H         1 RES1   0.0000
     9 C23     12.9089  -4.9090   3.6614   C.ar      1 RES1   0.0000
    10 H14     12.2063  -4.3004   3.6325   H         1 RES1   0.0000
    11 C24     13.9501  -4.7322   4.5592   C.ar      1 RES1   0.0000
    12 H15     13.9663  -3.9838   5.1116   H         1 RES1   0.0000
    13 C19A    17.7830  -5.2474   4.6308   C.ar      1 RES1   0.0000
    14 C20A    17.7765  -4.1713   3.7368   C.ar      1 RES1   0.0000
    15 H11A    17.0764  -3.5581   3.7599   H         1 RES1   0.0000
    16 C21A    18.7827  -4.0097   2.8329   C.ar      1 RES1   0.0000
    17 H12A    18.7736  -3.2969   2.2361   H         1 RES1   0.0000
    18 C22A    19.8196  -4.9265   2.8169   C.ar      1 RES1   0.0000
    19 H13A    20.5232  -4.8084   2.2194   H         1 RES1   0.0000
    20 C23A    19.8326  -6.0048   3.6614   C.ar      1 RES1   0.0000
    21 H14A    20.5353  -6.6134   3.6325   H         1 RES1   0.0000
    22 C24A    18.7915  -6.1816   4.5592   C.ar      1 RES1   0.0000
    23 H15A    18.7752  -6.9301   5.1116   H         1 RES1   0.0000
    24 C19F    16.1612  -4.0447   6.7920   C.ar      1 RES1   0.0000
    25 C20F    15.0851  -4.0512   7.6860   C.ar      1 RES1   0.0000
    26 H11F    14.4720  -4.7513   7.6629   H         1 RES1   0.0000
    27 C21F    14.9236  -3.0450   8.5899   C.ar      1 RES1   0.0000
    28 H12F    14.2107  -3.0541   9.1867   H         1 RES1   0.0000
    29 C22F    15.8404  -2.0081   8.6059   C.ar      1 RES1   0.0000
    30 H13F    15.7223  -1.3045   9.2034   H         1 RES1   0.0000
    31 C23F    16.9187  -1.9951   7.7614   C.ar      1 RES1   0.0000
    32 H14F    17.5273  -1.2924   7.7903   H         1 RES1   0.0000
    33 C24F    17.0955  -3.0362   6.8636   C.ar      1 RES1   0.0000
    34 H15F    17.8439  -3.0525   6.3112   H         1 RES1   0.0000
    35 C19G    16.5803  -6.8692   6.7920   C.ar      1 RES1   0.0000
    36 C20G    17.6564  -6.8626   7.6860   C.ar      1 RES1   0.0000
    37 H11G    18.2696  -6.1625   7.6629   H         1 RES1   0.0000
    38 C21G    17.8180  -7.8689   8.5899   C.ar      1 RES1   0.0000
    39 H12G    18.5308  -7.8597   9.1867   H         1 RES1   0.0000
    40 C22G    16.9012  -8.9057   8.6059   C.ar      1 RES1   0.0000
    41 H13G    17.0193  -9.6094   9.2034   H         1 RES1   0.0000
    42 C23G    15.8229  -8.9188   7.7614   C.ar      1 RES1   0.0000
    43 H14G    15.2143  -9.6214   7.7903   H         1 RES1   0.0000
    44 C24G    15.6461  -7.8776   6.8636   C.ar      1 RES1   0.0000
    45 H15G    14.8976  -7.8614   6.3112   H         1 RES1   0.0000
    46 Fe1     10.9139   0.0000   3.8076   Fe        2 RES2   0.0000
    47 N1       9.6771  -0.9746   5.1608   N.2       2 RES2   0.0000
    48 N2      10.6825  -1.5851   2.4810   N.2       2 RES2   0.0000
    49 Cl1     12.8821  -1.1438   4.6607   Cl        2 RES2  -1.0000
    50 C1       9.2702  -0.4562   6.3716   C.2       2 RES2   0.0000
    51 C2       8.3469  -1.4013   7.0037   C.2       2 RES2   0.0000
    52 C3       7.6724  -1.3773   8.2138   C.2       2 RES2   0.0000
    53 H1       7.7487  -0.6550   8.7958   H         2 RES2   0.0000
    54 C4       6.8801  -2.4709   8.5206   C.2       2 RES2   0.0000
    55 H2       6.4104  -2.4797   9.3231   H         2 RES2   0.0000
    56 C5       6.7688  -3.5535   7.6624   C.2       2 RES2   0.0000
    57 H3       6.2414  -4.2794   7.9084   H         2 RES2   0.0000
    58 C6       7.4280  -3.5754   6.4470   C.2       2 RES2   0.0000
    59 H4       7.3305  -4.2922   5.8627   H         2 RES2   0.0000
    60 C7       8.2443  -2.4862   6.1234   C.2       2 RES2   0.0000
    61 C8       9.2440  -2.9860   3.8655   C.2       2 RES2   0.0000
    62 H5       8.7955  -3.8016   3.8841   H         2 RES2   0.0000
    63 C9       9.0803  -2.1871   4.9849   C.2       2 RES2   0.0000
    64 C10      9.9862  -2.7350   2.7224   C.2       2 RES2   0.0000
    65 C11     10.1957  -3.6540   1.6281   C.2       2 RES2   0.0000
    66 C12      9.7635  -4.9724   1.3982   C.2       2 RES2   0.0000
    67 H6       9.2024  -5.4076   1.9998   H         2 RES2   0.0000
    68 C13     10.2023  -5.6010   0.2399   C.2       2 RES2   0.0000
    69 H7       9.9499  -6.4815   0.0746   H         2 RES2   0.0000
    70 C14     10.9968  -4.9483  -0.6610   C.2       2 RES2   0.0000
    71 H8      11.2579  -5.3947  -1.4348   H         2 RES2   0.0000
    72 C15     11.4268  -3.6518  -0.4630   C.2       2 RES2   0.0000
    73 H9      11.9652  -3.2202  -1.0870   H         2 RES2   0.0000
    74 C16     11.0230  -3.0122   0.7151   C.2       2 RES2   0.0000
    75 C17     11.3351  -1.7091   1.2702   C.2       2 RES2   0.0000
    76 C18     12.1777  -0.7618   0.7242   C.2       2 RES2   0.0000
    77 H10     12.5365  -0.9759  -0.1068   H         2 RES2   0.0000
    78 N1D     12.1506   0.9746   2.4544   N.2       2 RES2   0.0000
    79 N2D     11.1452   1.5851   5.1342   N.2       2 RES2   0.0000
    80 C1D     12.5575   0.4562   1.2436   C.2       2 RES2   0.0000
    81 C2D     13.4808   1.4013   0.6115   C.2       2 RES2   0.0000
    82 C3D     14.1553   1.3773  -0.5986   C.2       2 RES2   0.0000
    83 H1D     14.0790   0.6550  -1.1806   H         2 RES2   0.0000
    84 C4D     14.9476   2.4709  -0.9054   C.2       2 RES2   0.0000
    85 H2D     15.4173   2.4797  -1.7079   H         2 RES2   0.0000
    86 C5D     15.0589   3.5535  -0.0472   C.2       2 RES2   0.0000
    87 H3D     15.5863   4.2794  -0.2932   H         2 RES2   0.0000
    88 C6D     14.3997   3.5754   1.1682   C.2       2 RES2   0.0000
    89 H4D     14.4972   4.2922   1.7525   H         2 RES2   0.0000
    90 C7D     13.5834   2.4862   1.4918   C.2       2 RES2   0.0000
    91 C8D     12.5837   2.9860   3.7497   C.2       2 RES2   0.0000
    92 H5D     13.0322   3.8016   3.7311   H         2 RES2   0.0000
    93 C9D     12.7474   2.1871   2.6303   C.2       2 RES2   0.0000
    94 C10D    11.8415   2.7350   4.8928   C.2       2 RES2   0.0000
    95 C11D    11.6320   3.6540   5.9871   C.2       2 RES2   0.0000
    96 C12D    12.0642   4.9724   6.2170   C.2       2 RES2   0.0000
    97 H6D     12.6253   5.4076   5.6154   H         2 RES2   0.0000
    98 C13D    11.6254   5.6010   7.3753   C.2       2 RES2   0.0000
    99 H7D     11.8778   6.4815   7.5406   H         2 RES2   0.0000
   100 C14D    10.8309   4.9483   8.2762   C.2       2 RES2   0.0000
   101 H8D     10.5698   5.3947   9.0500   H         2 RES2   0.0000
   102 C15D    10.4009   3.6518   8.0782   C.2       2 RES2   0.0000
   103 H9D      9.8625   3.2202   8.7022   H         2 RES2   0.0000
   104 C16D    10.8047   3.0122   6.9001   C.2       2 RES2   0.0000
   105 C17D    10.4926   1.7091   6.3450   C.2       2 RES2   0.0000
   106 C18D     9.6500   0.7618   6.8910   C.2       2 RES2   0.0000
   107 H10D     9.2912   0.9759   7.7220   H         2 RES2   0.0000
   108 Cl1D     8.9456   1.1438   2.9545   Cl        2 RES2   0.0000
@<TRIPOS>BOND
     1     1     2    1
     2     2     3   ar
     3     3     4    1
     4     5     3   ar
     5     6     5    1
     6     7     5   ar
     7     8     7    1
     8     9     7   ar
     9    10     9    1
    10    11     2   ar
    11    12    11    1
    12    13     1    1
    13    14    13   ar
    14    15    14    1
    15    16    14   ar
    16    17    16    1
    17    18    16   ar
    18    19    18    1
    19    20    18   ar
    20    21    20    1
    21    22    13   ar
    22    23    22    1
    23    24     1    1
    24    25    24   ar
    25    26    25    1
    26    27    25   ar
    27    28    27    1
    28    29    27   ar
    29    30    29    1
    30    31    29   ar
    31    32    31    1
    32    33    24   ar
    33    34    33    1
    34    35     1    1
    35    36    35   ar
    36    37    36    1
    37    38    36   ar
    38    39    38    1
    39    40    38   ar
    40    41    40    1
    41    42    40   ar
    42    43    42    1
    43    44    35   ar
    44    45    44    1
    45     9    11   ar
    46    20    22   ar
    47    31    33   ar
    48    42    44   ar
    49    46    47    1
    50    47    50    2
    51    48    46    1
    52    49    46    1
    53    50    51    1
    54    51    52    1
    55    52    53    1
    56    54    52    2
    57    55    54    1
    58    56    54    1
    59    57    56    1
    60    58    56    2
    61    59    58    1
    62    60    51    2
    63    61    62    1
    64    63    47    1
    65    64    48    1
    66    65    64    2
    67    66    65    1
    68    67    66    1
    69    68    66    2
    70    69    68    1
    71    70    68    1
    72    71    70    1
    73    72    70    2
    74    73    72    1
    75    74    65    1
    76    75    48    1
    77    76    75    1
    78    77    76    1
    79    78    46    1
    80    79    46    1
    81    80    76    2
    82    81    80    1
    83    82    81    1
    84    83    82    1
    85    84    82    2
    86    85    84    1
    87    86    84    1
    88    87    86    1
    89    88    86    2
    90    89    88    1
    91    90    81    2
    92    91    92    1
    93    93    78    2
    94    94    79    1
    95    95    94    1
    96    96    95    1
    97    97    96    1
    98    98    96    2
    99    99    98    1
   100   100    98    1
   101   101   100    1
   102   102   100    2
   103   103   102    1
   104   104    95    2
   105   105    79    1
   106   106    50    1
   107   107   106    1
   108   108    46    1
   109    58    60    1
   110    60    63    1
   111    61    63    2
   112    61    64    1
   113    72    74    1
   114    74    75    2
   115    78    80    1
   116    88    90    1
   117    90    93    1
   118    91    93    1
   119    91    94    2
   120   102   104    1
   121   104   105    1
   122   105   106    2
@<TRIPOS>SUBSTRUCTURE
     1 RES1        1 GROUP             0 ****  ****    0  
     2 RES2       46 GROUP             0 ****  ****    0  
