@<TRIPOS>MOLECULE
TPHOLF
    47    54     5     0     0
SMALL
USER_CHARGES
****
Generated from the CSD

@<TRIPOS>ATOM
     1 Fe1     -3.0088   7.9041  14.6577   Fe        1 RES1   2.0000
     2 N1      -1.6194   8.1354  13.2472   N.ar      1 RES1   0.0000
     3 N2      -1.5651   8.4897  15.8631   N.ar      1 RES1   0.0000
     4 C1      -1.6958   7.9665  11.9471   C.ar      1 RES1   0.0000
     5 C2      -0.5903   8.2387  11.0929   C.ar      1 RES1   0.0000
     6 C3       0.6175   8.6094  11.6236   C.ar      1 RES1   0.0000
     7 C4       1.9499   9.0834  13.6753   C.ar      1 RES1   0.0000
     8 C5       1.9929   9.2097  15.0227   C.ar      1 RES1   0.0000
     9 C6       0.7767   9.2179  17.2145   C.ar      1 RES1   0.0000
    10 C7      -0.4434   9.0687  17.8872   C.ar      1 RES1   0.0000
    11 C8      -1.6003   8.6947  17.1592   C.ar      1 RES1   0.0000
    12 C9      -0.3801   8.6717  15.1904   C.ar      1 RES1   0.0000
    13 C10      0.8266   9.0277  15.8572   C.ar      1 RES1   0.0000
    14 C11     -0.4021   8.4930  13.8154   C.ar      1 RES1   0.0000
    15 C12      0.7272   8.7521  13.0006   C.ar      1 RES1   0.0000
    16 N3      -4.3290   7.1578  13.4188   N.ar      1 RES1   0.0000
    17 N4      -2.5291   5.9982  14.9024   N.ar      1 RES1   0.0000
    18 C13     -5.2511   7.7696  12.6416   C.ar      1 RES1   0.0000
    19 C14     -6.0905   7.0627  11.8031   C.ar      1 RES1   0.0000
    20 C15     -6.0051   5.6866  11.6986   C.ar      1 RES1   0.0000
    21 C16     -4.9207   3.5806  12.4976   C.ar      1 RES1   0.0000
    22 C17     -3.9991   2.9573  13.2807   C.ar      1 RES1   0.0000
    23 C18     -2.1678   3.1984  15.0050   C.ar      1 RES1   0.0000
    24 C19     -1.3967   4.0398  15.7211   C.ar      1 RES1   0.0000
    25 C20     -1.6071   5.4569  15.6639   C.ar      1 RES1   0.0000
    26 C21     -3.3058   5.1798  14.1172   C.ar      1 RES1   0.0000
    27 C22     -3.1273   3.7823  14.1212   C.ar      1 RES1   0.0000
    28 C23     -4.2547   5.7719  13.3202   C.ar      1 RES1   0.0000
    29 C24     -5.0725   5.0125  12.5133   C.ar      1 RES1   0.0000
    30 N5      -3.6461   9.7493  14.4190   N.ar      1 RES1   0.0000
    31 N6      -4.3135   7.9074  16.1314   N.ar      1 RES1   0.0000
    32 C25     -3.2935  10.6465  13.4899   C.ar      1 RES1   0.0000
    33 C26     -3.8496  11.9538  13.4504   C.ar      1 RES1   0.0000
    34 C27     -4.8054  12.3277  14.4328   C.ar      1 RES1   0.0000
    35 C28     -6.1020  11.6717  16.5082   C.ar      1 RES1   0.0000
    36 C29     -6.4048  10.7351  17.4216   C.ar      1 RES1   0.0000
    37 C30     -6.1583   8.3470  18.2028   C.ar      1 RES1   0.0000
    38 C31     -5.5819   7.0988  18.0194   C.ar      1 RES1   0.0000
    39 C32     -4.6340   6.9348  16.9817   C.ar      1 RES1   0.0000
    40 C33     -4.9411   9.1277  16.2952   C.ar      1 RES1   0.0000
    41 C34     -5.8595   9.3885  17.3545   C.ar      1 RES1   0.0000
    42 C35     -4.5682  10.1102  15.3857   C.ar      1 RES1   0.0000
    43 C36     -5.1614  11.4060  15.4370   C.ar      1 RES1   0.0000
    44 I1      -6.5918  10.9040  10.8029   I         2 RES2  -1.0000
    45 I2      -4.0620   3.2345  18.4731   I         3 RES3  -1.0000
    46 O1      -2.0986   5.7522   9.7593   O.3       4 RES4   0.0000
    47 O2      -2.0606   6.1425  19.1103   O.3       5 RES5   0.0000
@<TRIPOS>BOND
     1     1     2    1
     2     2     4   ar
     3     3     1    1
     4     4     5   ar
     5     5     6   ar
     6     6    15   ar
     7     7     8   ar
     8     8    13   ar
     9     9    10   ar
    10    10    11   ar
    11    11     3   ar
    12    12     3   ar
    13    13     9   ar
    14    14     2   ar
    15    15     7   ar
    16    16     1    1
    17    17     1    1
    18    18    16   ar
    19    19    18   ar
    20    20    19   ar
    21    21    22   ar
    22    22    27   ar
    23    23    24   ar
    24    24    25   ar
    25    25    17   ar
    26    26    17   ar
    27    27    23   ar
    28    28    16   ar
    29    29    20   ar
    30    30     1    1
    31    31     1    1
    32    32    30   ar
    33    33    32   ar
    34    34    33   ar
    35    35    36   ar
    36    36    41   ar
    37    37    38   ar
    38    38    39   ar
    39    39    31   ar
    40    40    31   ar
    41    41    37   ar
    42    42    30   ar
    43    43    34   ar
    44    12    13   ar
    45    12    14   ar
    46    14    15   ar
    47    21    29   ar
    48    26    27   ar
    49    26    28   ar
    50    28    29   ar
    51    35    43   ar
    52    40    41   ar
    53    40    42   ar
    54    42    43   ar
@<TRIPOS>SUBSTRUCTURE
     1 RES1        1 GROUP             0 ****  ****    0  
     2 RES2       44 GROUP             0 ****  ****    0  
     3 RES3       45 GROUP             0 ****  ****    0  
     4 RES4       46 GROUP             0 ****  ****    0  
     5 RES5       47 GROUP             0 ****  ****    0  
@<TRIPOS>CRYSIN
   10.6230   16.4020   20.3750   90.0000  104.4800   90.0000    14     2
