@<TRIPOS>MOLECULE
TUDPUG
   100   105     2     0     0
SMALL
NO_CHARGES
****
Generated from the CSD

@<TRIPOS>ATOM
     1 C1       0.4069   6.5832  13.9341   C.3       1 RES1   0.0000
     2 H1       0.3224   7.0104  14.8222   H         1 RES1   0.0000
     3 H2      -0.3919   6.8227  13.4014   H         1 RES1   0.0000
     4 C2       0.4691   5.0937  14.0992   C.2       1 RES1   0.0000
     5 C3       0.1228   4.2192  13.0222   C.2       1 RES1   0.0000
     6 C4      -0.5006   4.5154  11.8210   C.2       1 RES1   0.0000
     7 H3      -0.7958   5.4006  11.6401   H         1 RES1   0.0000
     8 C5      -0.6915   3.5005  10.8787   C.2       1 RES1   0.0000
     9 H4      -1.1189   3.6928  10.0520   H         1 RES1   0.0000
    10 C6      -0.2543   2.2046  11.1523   C.2       1 RES1   0.0000
    11 H5      -0.3756   1.5130  10.5125   H         1 RES1   0.0000
    12 C7       0.3619   1.9332  12.3724   C.2       1 RES1   0.0000
    13 C8       0.9114   0.7081  12.8449   C.2       1 RES1   0.0000
    14 C9       1.0267  -0.5063  11.9572   C.3       1 RES1   0.0000
    15 H6       0.1633  -0.6456  11.4906   H         1 RES1   0.0000
    16 H7       1.1932  -1.3018  12.5217   H         1 RES1   0.0000
    17 C10      2.1395  -0.3954  10.9171   C.3       1 RES1   0.0000
    18 H8       2.0089   0.4166  10.3846   H         1 RES1   0.0000
    19 H9       2.1155  -1.1790  10.3295   H         1 RES1   0.0000
    20 H10      3.0065  -0.3529  11.3705   H         1 RES1   0.0000
    21 C11      1.6686   7.1083  13.2312   C.3       1 RES1   0.0000
    22 H11      2.4535   6.9325  13.7930   H         1 RES1   0.0000
    23 H12      1.5835   8.0737  13.0846   H         1 RES1   0.0000
    24 H13      1.7769   6.6551  12.3683   H         1 RES1   0.0000
    25 C12      2.1279  -0.3116  14.6351   C.ar      1 RES1   0.0000
    26 C13      3.5280  -0.2561  14.6000   C.ar      1 RES1   0.0000
    27 C14      4.2461  -1.3006  15.1800   C.ar      1 RES1   0.0000
    28 H14      5.1954  -1.2664  15.1784   H         1 RES1   0.0000
    29 C15      3.6113  -2.3852  15.7572   C.ar      1 RES1   0.0000
    30 H15      4.1211  -3.0898  16.1407   H         1 RES1   0.0000
    31 C16      2.2306  -2.4336  15.7694   C.ar      1 RES1   0.0000
    32 H16      1.7927  -3.1759  16.1702   H         1 RES1   0.0000
    33 C17      1.4661  -1.4139  15.2036   C.ar      1 RES1   0.0000
    34 C18     -0.0355  -1.5472  15.1835   C.3       1 RES1   0.0000
    35 H17     -0.2971  -2.1834  14.4857   H         1 RES1   0.0000
    36 H18     -0.4394  -0.6739  14.9974   H         1 RES1   0.0000
    37 H19     -0.3463  -1.8718  16.0541   H         1 RES1   0.0000
    38 C19      4.2622   0.8792  13.9302   C.3       1 RES1   0.0000
    39 H20      5.1183   1.0291  14.3834   H         1 RES1   0.0000
    40 H21      3.7195   1.6948  13.9800   H         1 RES1   0.0000
    41 H22      4.4261   0.6538  12.9901   H         1 RES1   0.0000
    42 C20      1.4862   5.2602  16.2452   C.ar      1 RES1   0.0000
    43 C21      2.8728   5.4230  16.3916   C.ar      1 RES1   0.0000
    44 C22      3.3541   6.1288  17.4984   C.ar      1 RES1   0.0000
    45 H23      4.2922   6.2185  17.6206   H         1 RES1   0.0000
    46 C23      2.4962   6.6965  18.4138   C.ar      1 RES1   0.0000
    47 H24      2.8418   7.1709  19.1614   H         1 RES1   0.0000
    48 C24      1.1259   6.5714  18.2405   C.ar      1 RES1   0.0000
    49 H25      0.5364   6.9738  18.8663   H         1 RES1   0.0000
    50 C25      0.6001   5.8621  17.1577   C.ar      1 RES1   0.0000
    51 C26     -0.8993   5.8243  16.9969   C.3       1 RES1   0.0000
    52 H26     -1.3142   5.5859  17.8528   H         1 RES1   0.0000
    53 H27     -1.1392   5.1563  16.3198   H         1 RES1   0.0000
    54 H28     -1.2192   6.7059  16.7134   H         1 RES1   0.0000
    55 C27      3.8562   4.9214  15.3640   C.3       1 RES1   0.0000
    56 H29      4.3015   5.6827  14.9364   H         1 RES1   0.0000
    57 H30      3.3816   4.3974  14.6845   H         1 RES1   0.0000
    58 H31      4.5265   4.3561  15.8022   H         1 RES1   0.0000
    59 C28     -0.8665   2.1267  15.5037   C.2       1 RES1   0.0000
    60 H32     -1.4405   2.9245  15.6271   H         1 RES1   0.0000
    61 H33     -1.3135   1.4056  14.9954   H         1 RES1   0.0000
    62 C29     -0.1298   1.7207  16.6248   C.2       1 RES1   0.0000
    63 H34     -0.0725   0.7282  16.7331   H         1 RES1   0.0000
    64 C30     -0.1257   2.4772  17.9295   C.3       1 RES1   0.0000
    65 H35     -0.1916   3.4474  17.7465   H         1 RES1   0.0000
    66 H36      0.7276   2.3120  18.4018   H         1 RES1   0.0000
    67 C31     -1.2783   2.0535  18.8117   C.ar      1 RES1   0.0000
    68 C32     -2.6002   2.3934  18.4721   C.ar      1 RES1   0.0000
    69 H37     -2.7670   2.9234  17.7013   H         1 RES1   0.0000
    70 C33     -3.6624   1.9615  19.2528   C.ar      1 RES1   0.0000
    71 H38     -4.5497   2.2117  19.0257   H         1 RES1   0.0000
    72 C34     -3.4301   1.1649  20.3668   C.ar      1 RES1   0.0000
    73 H39     -4.1610   0.8497  20.8853   H         1 RES1   0.0000
    74 C35     -2.1420   0.8344  20.7165   C.ar      1 RES1   0.0000
    75 H40     -1.9816   0.2962  21.4836   H         1 RES1   0.0000
    76 C36     -1.0760   1.2841  19.9541   C.ar      1 RES1   0.0000
    77 H41     -0.1900   1.0622  20.2162   H         1 RES1   0.0000
    78 N1       0.9861   4.4528  15.1526   N.2       1 RES1   0.0000
    79 N2       0.5517   2.9356  13.2975   N.2       1 RES1   0.0000
    80 N3       1.3861   0.8022  14.0947   N.2       1 RES1   0.0000
    81 N4       2.4266   2.2940  16.2629   N.1       1 RES1   0.0000
    82 N5       3.2009   2.1763  17.0499   N.1       1 RES1   0.0000
    83 Fe1      1.0913   2.4986  15.0050   Fe        1 RES1   0.0000
    84 C37      4.7822   3.7766  11.7425   C.3       2 RES2   0.0000
    85 H42      5.4374   3.1193  11.4276   H         2 RES2   0.0000
    86 H43      4.5913   3.6185  12.6910   H         2 RES2   0.0000
    87 H44      5.1445   4.6807  11.6283   H         2 RES2   0.0000
    88 C38      3.5522   3.6456  10.9710   C.3       2 RES2   0.0000
    89 H45      2.8940   4.2983  11.3213   H         2 RES2   0.0000
    90 H46      3.1814   2.7404  11.1265   H         2 RES2   0.0000
    91 C39      3.6820   3.8534   9.5050   C.3       2 RES2   0.0000
    92 H47      4.0647   4.7550   9.3672   H         2 RES2   0.0000
    93 H48      4.3505   3.2019   9.1724   H         2 RES2   0.0000
    94 C40      2.4957   3.7424   8.6470   C.3       2 RES2   0.0000
    95 H49      2.0958   2.8514   8.8004   H         2 RES2   0.0000
    96 H50      1.8381   4.4151   8.9559   H         2 RES2   0.0000
    97 C41      2.6593   3.9135   7.1986   C.3       2 RES2   0.0000
    98 H51      3.1643   4.7338   7.0215   H         2 RES2   0.0000
    99 H52      1.7772   3.9749   6.7755   H         2 RES2   0.0000
   100 H53      3.1455   3.1452   6.8306   H         2 RES2   0.0000
@<TRIPOS>BOND
     1     1     2    1
     2     3     1    1
     3     4     1    1
     4     5     4    1
     5     6     5    2
     6     7     6    1
     7     8     6    1
     8     9     8    1
     9    10     8    2
    10    11    10    1
    11    12    10    1
    12    13    12    2
    13    14    13    1
    14    15    14    1
    15    16    14    1
    16    17    14    1
    17    18    17    1
    18    19    17    1
    19    20    17    1
    20    21     1    1
    21    22    21    1
    22    23    21    1
    23    24    21    1
    24    25    26   ar
    25    26    27   ar
    26    27    28    1
    27    29    27   ar
    28    30    29    1
    29    31    29   ar
    30    32    31    1
    31    33    25   ar
    32    34    33    1
    33    35    34    1
    34    36    34    1
    35    37    34    1
    36    38    26    1
    37    39    38    1
    38    40    38    1
    39    41    38    1
    40    42    43   ar
    41    43    44   ar
    42    44    45    1
    43    46    44   ar
    44    47    46    1
    45    48    46   ar
    46    49    48    1
    47    50    42   ar
    48    51    50    1
    49    52    51    1
    50    53    51    1
    51    54    51    1
    52    55    43    1
    53    56    55    1
    54    57    55    1
    55    58    55    1
    56    59    60    1
    57    61    59    1
    58    62    59    2
    59    63    62    1
    60    64    62    1
    61    65    64    1
    62    66    64    1
    63    67    64    1
    64    68    67   ar
    65    69    68    1
    66    70    68   ar
    67    71    70    1
    68    72    70   ar
    69    73    72    1
    70    74    72   ar
    71    75    74    1
    72    76    67   ar
    73    77    76    1
    74    78     4    2
    75    79     5    1
    76    80    13    1
    77    81    82    3
    78    83    59   un
    79    12    79    1
    80    25    80    1
    81    31    33   ar
    82    42    78    1
    83    48    50   ar
    84    62    83   un
    85    74    76   ar
    86    78    83    1
    87    79    83    1
    88    80    83    1
    89    81    83    1
    90    84    85    1
    91    86    84    1
    92    87    84    1
    93    88    84    1
    94    89    88    1
    95    90    88    1
    96    91    88    1
    97    92    91    1
    98    93    91    1
    99    94    91    1
   100    95    94    1
   101    96    94    1
   102    97    94    1
   103    98    97    1
   104    99    97    1
   105   100    97    1
@<TRIPOS>SUBSTRUCTURE
     1 RES1        1 GROUP             0 ****  ****    0  
     2 RES2       84 GROUP             0 ****  ****    0  
@<TRIPOS>CRYSIN
   15.7070   11.8020   21.1580   90.0000  111.5500   90.0000   231     1
