@<TRIPOS>MOLECULE
TUDVUK01
    79    85     4     0     0
SMALL
USER_CHARGES
****
Generated from the CSD

@<TRIPOS>ATOM
     1 Fe1      1.1214   3.3569   5.3975   Fe        1 RES1   2.0000
     2 N1       1.7526   5.2165   5.7942   N.ar      1 RES1   0.0000
     3 N2       1.4374   3.1979   7.2695   N.2       1 RES1   0.0000
     4 N3       1.1511   2.2482   8.1822   N.pl3     1 RES1   0.0000
     5 N4      -0.0381  -0.5379   6.0334   N.pl3     1 RES1   0.0000
     6 N5       0.5080   1.4916   5.3702   N.2       1 RES1   0.0000
     7 N6      -0.7557   3.9717   5.6304   N.ar      1 RES1   0.0000
     8 N7       0.7142   3.7910   3.5805   N.2       1 RES1   0.0000
     9 N8       1.4681   3.9193   2.4759   N.pl3     1 RES1   0.0000
    10 N9       4.5395   2.0767   3.4999   N.pl3     1 RES1   0.0000
    11 N10      2.8948   2.7458   4.8016   N.2       1 RES1   0.0000
    12 C1       1.9535   6.2291   4.9234   C.ar      1 RES1   0.0000
    13 H1       1.7701   6.0812   4.0035   H         1 RES1   0.0000
    14 C2       2.4163   7.4741   5.3176   C.ar      1 RES1   0.0000
    15 H2       2.5396   8.1648   4.6763   H         1 RES1   0.0000
    16 C3       2.6970   7.7039   6.6548   C.ar      1 RES1   0.0000
    17 H3       3.0351   8.5451   6.9371   H         1 RES1   0.0000
    18 C4       2.4767   6.6867   7.5768   C.ar      1 RES1   0.0000
    19 H4       2.6442   6.8243   8.5011   H         1 RES1   0.0000
    20 C5       2.0052   5.4644   7.1131   C.ar      1 RES1   0.0000
    21 C6       1.7400   4.3064   7.9575   C.2       1 RES1   0.0000
    22 C7       1.6556   4.0681   9.3386   C.2       1 RES1   0.0000
    23 H5       1.8365   4.7684  10.1440   H         1 RES1   0.0000
    24 C8       1.2894   2.7412   9.4396   C.2       1 RES1   0.0000
    25 H6       1.1583   2.2581  10.2458   H         1 RES1   0.0000
    26 C9       0.9378   0.8624   7.8148   C.3       1 RES1   0.0000
    27 H7       0.2696   0.4708   8.4297   H         1 RES1   0.0000
    28 H8       1.7859   0.3675   7.9394   H         1 RES1   0.0000
    29 C10      0.4691   0.6618   6.4083   C.2       1 RES1   0.0000
    30 C11     -0.2875  -1.6831   6.9079   C.3       1 RES1   0.0000
    31 H9      -0.6942  -2.4982   6.3265   H         1 RES1   0.0000
    32 H10     -0.9941  -1.4020   7.6764   H         1 RES1   0.0000
    33 H11      0.6395  -1.9948   7.3674   H         1 RES1   0.0000
    34 C12     -0.3503  -0.4641   4.6991   C.2       1 RES1   0.0000
    35 H12     -0.7831  -1.2459   4.0886   H         1 RES1   0.0000
    36 C13     -0.0087   0.7859   4.2992   C.2       1 RES1   0.0000
    37 H13     -0.1098   1.1253   3.4179   H         1 RES1   0.0000
    38 C14     -1.5060   3.9413   6.7525   C.ar      1 RES1   0.0000
    39 H14     -1.1388   3.5573   7.5405   H         1 RES1   0.0000
    40 C15     -2.7908   4.4515   6.7928   C.ar      1 RES1   0.0000
    41 H15     -3.2936   4.4139   7.5980   H         1 RES1   0.0000
    42 C16     -3.3402   5.0171   5.6547   C.ar      1 RES1   0.0000
    43 H16     -4.3398   5.4341   5.6785   H         1 RES1   0.0000
    44 C17     -2.6013   5.0426   4.4894   C.ar      1 RES1   0.0000
    45 H17     -2.9612   5.4186   3.6938   H         1 RES1   0.0000
    46 C18     -1.3186   4.5065   4.5038   C.ar      1 RES1   0.0000
    47 C19     -0.4220   4.4592   3.3417   C.2       1 RES1   0.0000
    48 C20     -0.4110   5.0179   2.0629   C.2       1 RES1   0.0000
    49 H18     -1.0887   5.5422   1.6514   H         1 RES1   0.0000
    50 C21      0.7960   4.6437   1.5323   C.2       1 RES1   0.0000
    51 H19      1.1097   4.8511   0.6610   H         1 RES1   0.0000
    52 C22      2.7167   3.2236   2.2911   C.3       1 RES1   0.0000
    53 H20      3.3547   3.8322   1.8400   H         1 RES1   0.0000
    54 H21      2.5630   2.4526   1.6891   H         1 RES1   0.0000
    55 C23      3.3412   2.7263   3.5543   C.2       1 RES1   0.0000
    56 C24      5.3723   1.8674   2.3137   C.3       1 RES1   0.0000
    57 H22      6.2634   1.3192   2.5906   H         1 RES1   0.0000
    58 H23      5.6537   2.8253   1.8973   H         1 RES1   0.0000
    59 H24      4.8166   1.3035   1.5770   H         1 RES1   0.0000
    60 C25      4.8640   1.6692   4.7726   C.2       1 RES1   0.0000
    61 H25      5.6412   1.1932   5.0396   H         1 RES1   0.0000
    62 C26      3.8479   2.0847   5.5673   C.2       1 RES1   0.0000
    63 H26      3.7876   1.9264   6.6362   H         1 RES1   0.0000
    64 Cl1      4.6962   6.9563   1.4970   Cl        2 RES2   0.0000
    65 O1       4.2436   7.7851   0.4194   O.3       2 RES2  -1.0000
    66 O2       5.8556   7.5639   2.0972   O.2       2 RES2   0.0000
    67 O3       3.6736   6.7872   2.4622   O.2       2 RES2   0.0000
    68 O4       5.0874   5.6563   0.9996   O.2       2 RES2   0.0000
    69 Cl2     -2.9148   0.8375   8.8144   Cl        3 RES3   0.0000
    70 O5      -2.3681   0.8529   7.4839   O.3       3 RES3  -1.0000
    71 O6      -4.1869   1.5285   8.8100   O.2       3 RES3   0.0000
    72 O7      -3.1158  -0.5263   9.2234   O.2       3 RES3   0.0000
    73 O8      -2.0130   1.4918   9.7198   O.2       3 RES3   0.0000
    74 N11      8.0604   7.4530  -0.8626   N.1       4 RES4   0.0000
    75 C27      9.4899   8.3248   1.2129   C.3       4 RES4   0.0000
    76 H27     10.2675   7.6362   1.4291   H         4 RES4   0.0000
    77 H28      8.8598   8.4210   2.0583   H         4 RES4   0.0000
    78 H29      9.9152   9.2663   0.9765   H         4 RES4   0.0000
    79 C28      8.6488   7.8040  -0.0127   C.1       4 RES4   0.0000
@<TRIPOS>BOND
     1     1     2    1
     2     2    12   ar
     3     3     1    1
     4     4     3    1
     5     5    29    1
     6     6     1    1
     7     7     1    1
     8     8     1    1
     9     9     8    1
    10    10    55    1
    11    11     1    1
    12    12    13    1
    13    14    12   ar
    14    15    14    1
    15    16    14   ar
    16    17    16    1
    17    18    16   ar
    18    19    18    1
    19    20     2   ar
    20    21     3    2
    21    22    21    1
    22    23    22    1
    23    24     4    1
    24    25    24    1
    25    26     4    1
    26    27    26    1
    27    28    26    1
    28    29     6    2
    29    30     5    1
    30    31    30    1
    31    32    30    1
    32    33    30    1
    33    34     5    1
    34    35    34    1
    35    36     6    1
    36    37    36    1
    37    38     7   ar
    38    39    38    1
    39    40    38   ar
    40    41    40    1
    41    42    40   ar
    42    43    42    1
    43    44    42   ar
    44    45    44    1
    45    46     7   ar
    46    47     8    2
    47    48    47    1
    48    49    48    1
    49    50     9    1
    50    51    50    1
    51    52     9    1
    52    53    52    1
    53    54    52    1
    54    55    11    2
    55    56    10    1
    56    57    56    1
    57    58    56    1
    58    59    56    1
    59    60    10    1
    60    61    60    1
    61    62    11    1
    62    63    62    1
    63    18    20   ar
    64    20    21    1
    65    22    24    2
    66    26    29    1
    67    34    36    2
    68    44    46   ar
    69    46    47    1
    70    48    50    2
    71    52    55    1
    72    60    62    2
    73    64    65    1
    74    66    64    2
    75    67    64    2
    76    68    64    2
    77    69    70    1
    78    71    69    2
    79    72    69    2
    80    73    69    2
    81    74    79    3
    82    75    76    1
    83    77    75    1
    84    78    75    1
    85    79    75    1
@<TRIPOS>SUBSTRUCTURE
     1 RES1        1 GROUP             0 ****  ****    0  
     2 RES2       64 GROUP             0 ****  ****    0  
     3 RES3       69 GROUP             0 ****  ****    0  
     4 RES4       74 GROUP             0 ****  ****    0  
@<TRIPOS>CRYSIN
    8.6380    9.2410   19.9020   91.6730   93.6810   95.2460     2     1
