@<TRIPOS>MOLECULE
TUFZIE
   113   120     3     0     0
SMALL
USER_CHARGES
****
Generated from the CSD

@<TRIPOS>ATOM
     1 C1      -1.6970   7.2986  10.9490   C.3       1 RES1   0.0000
     2 H1      -1.0269   7.8819  10.5140   H         1 RES1   0.0000
     3 C2      -2.3825   6.4816   9.8935   C.3       1 RES1   0.0000
     4 H2      -1.7070   5.9219   9.4351   H         1 RES1   0.0000
     5 H3      -3.0293   5.8729  10.3315   H         1 RES1   0.0000
     6 C3      -3.1044   7.2932   8.8716   C.3       1 RES1   0.0000
     7 H4      -3.5276   6.6954   8.2205   H         1 RES1   0.0000
     8 H5      -2.4670   7.8783   8.4118   H         1 RES1   0.0000
     9 H6      -3.7897   7.8366   9.3111   H         1 RES1   0.0000
    10 H1A     -2.3670   7.8819  11.3841   H         1 RES1   0.0000
    11 C2A     -1.0114   6.4816  12.0045   C.3       1 RES1   0.0000
    12 H2A     -1.6869   5.9219  12.4629   H         1 RES1   0.0000
    13 H3A     -0.3646   5.8729  11.5666   H         1 RES1   0.0000
    14 C3A     -0.2895   7.2932  13.0264   C.3       1 RES1   0.0000
    15 H4A      0.1337   6.6954  13.6775   H         1 RES1   0.0000
    16 H5A     -0.9269   7.8783  13.4863   H         1 RES1   0.0000
    17 H6A      0.3958   7.8366  12.5870   H         1 RES1   0.0000
    18 P1       7.4340   8.4064  10.9490   P.3       2 RES2  -1.0000
    19 F1       7.4913   9.5496   9.8284   F         2 RES2   0.0000
    20 F2       7.3788   7.2792  12.0650   F         2 RES2   0.0000
    21 F3       5.8343   8.4250  10.8743   F         2 RES2   0.0000
    22 F1A      7.3766   9.5496  12.0696   F         2 RES2   0.0000
    23 F2A      7.4892   7.2792   9.8331   F         2 RES2   0.0000
    24 F3A      9.0337   8.4250  11.0238   F         2 RES2   0.0000
    25 Fe1      3.4342   4.5288   7.2994   Fe        3 RES3   1.0000
    26 Cl1      2.9103  10.0730   8.7883   Cl        3 RES3   0.0000
    27 Cl2      8.5928   2.6997   9.1754   Cl        3 RES3   0.0000
    28 Cl3      4.2684   4.4241   1.5917   Cl        3 RES3   0.0000
    29 B1       5.7705   6.2603   6.3785   B         3 RES3   0.0000
    30 H7       6.5329   6.8312   6.0760   H         3 RES3   0.0000
    31 N1       4.7127   7.0838   7.1423   N.ar      3 RES3   0.0000
    32 N2       3.6285   6.4351   7.6751   N.ar      3 RES3   0.0000
    33 N3       6.2456   5.1223   7.3031   N.ar      3 RES3   0.0000
    34 N4       5.3137   4.2303   7.7763   N.ar      3 RES3   0.0000
    35 N5       5.0546   5.5878   5.1850   N.ar      3 RES3   0.0000
    36 N6       3.9340   4.8297   5.4281   N.ar      3 RES3   0.0000
    37 C4       5.6764   9.3938   6.9931   C.3       3 RES3   0.0000
    38 H8       6.3787   8.9399   6.4818   H         3 RES3   0.0000
    39 H9       6.0714   9.8221   7.7811   H         3 RES3   0.0000
    40 H10      5.2507  10.0739   6.4307   H         3 RES3   0.0000
    41 C5       4.6563   8.3993   7.4264   C.ar      3 RES3   0.0000
    42 C6       3.4986   8.5893   8.1648   C.ar      3 RES3   0.0000
    43 C7       2.8760   7.3548   8.3124   C.ar      3 RES3   0.0000
    44 C8       1.5966   7.1026   9.0445   C.3       3 RES3   0.0000
    45 H11      1.3775   6.1483   8.9986   H         3 RES3   0.0000
    46 H12      0.8755   7.6229   8.6322   H         3 RES3   0.0000
    47 H13      1.6982   7.3711   9.9811   H         3 RES3   0.0000
    48 C9       8.7206   5.5246   7.3868   C.3       3 RES3   0.0000
    49 H14      8.4925   6.2968   6.8293   H         3 RES3   0.0000
    50 H15      9.1336   5.8331   8.2191   H         3 RES3   0.0000
    51 H16      9.3484   4.9491   6.9037   H         3 RES3   0.0000
    52 C10      7.4802   4.7536   7.7026   C.ar      3 RES3   0.0000
    53 C11      7.3247   3.6062   8.4496   C.ar      3 RES3   0.0000
    54 C12      5.9697   3.2959   8.4947   C.ar      3 RES3   0.0000
    55 C13      5.3460   2.1345   9.2046   C.3       3 RES3   0.0000
    56 H17      4.3755   2.1539   9.0731   H         3 RES3   0.0000
    57 H18      5.7076   1.2989   8.8439   H         3 RES3   0.0000
    58 H19      5.5471   2.1901  10.1622   H         3 RES3   0.0000
    59 C14      6.5218   6.2805   3.2846   C.3       3 RES3   0.0000
    60 H20      7.0124   6.7425   3.9957   H         3 RES3   0.0000
    61 H21      7.1112   5.6284   2.8511   H         3 RES3   0.0000
    62 H22      6.2136   6.9345   2.6219   H         3 RES3   0.0000
    63 C15      5.3485   5.5769   3.8685   C.ar      3 RES3   0.0000
    64 C16      4.3715   4.8029   3.2638   C.ar      3 RES3   0.0000
    65 C17      3.4960   4.3533   4.2482   C.ar      3 RES3   0.0000
    66 C18      2.2925   3.4904   4.0327   C.3       3 RES3   0.0000
    67 H23      1.8551   3.3205   4.8920   H         3 RES3   0.0000
    68 H24      1.6668   3.9473   3.4322   H         3 RES3   0.0000
    69 H25      2.5672   2.6394   3.6322   H         3 RES3   0.0000
    70 Cl1F     3.9580  -1.0154   5.8104   Cl        3 RES3   0.0000
    71 Cl2F    -1.7244   6.3579   5.4233   Cl        3 RES3   0.0000
    72 Cl3F     2.6000   4.6335  13.0070   Cl        3 RES3   0.0000
    73 B1F      1.0978   2.7973   8.2202   B         3 RES3   0.0000
    74 H7F      0.3354   2.2264   8.5227   H         3 RES3   0.0000
    75 N1F      2.1556   1.9738   7.4564   N.ar      3 RES3   0.0000
    76 N2F      3.2398   2.6225   6.9236   N.ar      3 RES3   0.0000
    77 N3F      0.6228   3.9353   7.2956   N.ar      3 RES3   0.0000
    78 N4F      1.5546   4.8273   6.8224   N.ar      3 RES3   0.0000
    79 N5F      1.8137   3.4698   9.4137   N.ar      3 RES3   0.0000
    80 N6F      2.9343   4.2279   9.1706   N.ar      3 RES3   0.0000
    81 C4F      1.1920  -0.3362   7.6056   C.3       3 RES3   0.0000
    82 H8F      0.4897   0.1177   8.1169   H         3 RES3   0.0000
    83 H9F      0.7969  -0.7645   6.8176   H         3 RES3   0.0000
    84 H10F     1.6176  -1.0163   8.1680   H         3 RES3   0.0000
    85 C5F      2.2120   0.6583   7.1723   C.ar      3 RES3   0.0000
    86 C6F      3.3698   0.4683   6.4339   C.ar      3 RES3   0.0000
    87 C7F      3.9924   1.7028   6.2863   C.ar      3 RES3   0.0000
    88 C8F      5.2717   1.9550   5.5542   C.3       3 RES3   0.0000
    89 H11F     5.4909   2.9093   5.6001   H         3 RES3   0.0000
    90 H12F     5.9929   1.4347   5.9665   H         3 RES3   0.0000
    91 H13F     5.1701   1.6865   4.6176   H         3 RES3   0.0000
    92 C9F     -1.8522   3.5330   7.2119   C.3       3 RES3   0.0000
    93 H14F    -1.6242   2.7608   7.7694   H         3 RES3   0.0000
    94 H15F    -2.2653   3.2245   6.3796   H         3 RES3   0.0000
    95 H16F    -2.4801   4.1085   7.6950   H         3 RES3   0.0000
    96 C10F    -0.6119   4.3040   6.8961   C.ar      3 RES3   0.0000
    97 C11F    -0.4563   5.4514   6.1491   C.ar      3 RES3   0.0000
    98 C12F     0.8986   5.7617   6.1040   C.ar      3 RES3   0.0000
    99 C13F     1.5223   6.9231   5.3941   C.3       3 RES3   0.0000
   100 H17F     2.4928   6.9037   5.5256   H         3 RES3   0.0000
   101 H18F     1.1607   7.7587   5.7548   H         3 RES3   0.0000
   102 H19F     1.3212   6.8675   4.4365   H         3 RES3   0.0000
   103 C14F     0.3466   2.7771  11.3141   C.3       3 RES3   0.0000
   104 H20F    -0.1440   2.3151  10.6030   H         3 RES3   0.0000
   105 H21F    -0.2429   3.4292  11.7476   H         3 RES3   0.0000
   106 H22F     0.6548   2.1231  11.9768   H         3 RES3   0.0000
   107 C15F     1.5198   3.4807  10.7302   C.ar      3 RES3   0.0000
   108 C16F     2.4968   4.2547  11.3349   C.ar      3 RES3   0.0000
   109 C17F     3.3724   4.7043  10.3505   C.ar      3 RES3   0.0000
   110 C18F     4.5758   5.5672  10.5660   C.3       3 RES3   0.0000
   111 H23F     5.0133   5.7371   9.7067   H         3 RES3   0.0000
   112 H24F     5.2015   5.1103  11.1665   H         3 RES3   0.0000
   113 H25F     4.3012   6.4182  10.9665   H         3 RES3   0.0000
@<TRIPOS>BOND
     1     1     2    1
     2     3     1    1
     3     4     3    1
     4     5     3    1
     5     6     3    1
     6     7     6    1
     7     8     6    1
     8     9     6    1
     9    10     1    1
    10    11     1    1
    11    12    11    1
    12    13    11    1
    13    14    11    1
    14    15    14    1
    15    16    14    1
    16    17    14    1
    17    18    19    1
    18    20    18    1
    19    21    18    1
    20    22    18    1
    21    23    18    1
    22    24    18    1
    23    25    32    1
    24    26    42    1
    25    27    53    1
    26    28    64    1
    27    29    30    1
    28    31    29    1
    29    32    31   ar
    30    33    29    1
    31    34    25    1
    32    35    29    1
    33    36    25    1
    34    37    38    1
    35    39    37    1
    36    40    37    1
    37    41    31   ar
    38    42    41   ar
    39    43    32   ar
    40    44    43    1
    41    45    44    1
    42    46    44    1
    43    47    44    1
    44    48    49    1
    45    50    48    1
    46    51    48    1
    47    52    33   ar
    48    53    52   ar
    49    54    34   ar
    50    55    54    1
    51    56    55    1
    52    57    55    1
    53    58    55    1
    54    59    60    1
    55    61    59    1
    56    62    59    1
    57    63    35   ar
    58    64    63   ar
    59    65    36   ar
    60    66    65    1
    61    67    66    1
    62    68    66    1
    63    69    66    1
    64    70    86    1
    65    71    97    1
    66    72   108    1
    67    73    74    1
    68    75    73    1
    69    76    25    1
    70    77    73    1
    71    78    25    1
    72    79    73    1
    73    80    25    1
    74    81    82    1
    75    83    81    1
    76    84    81    1
    77    85    75   ar
    78    86    85   ar
    79    87    76   ar
    80    88    87    1
    81    89    88    1
    82    90    88    1
    83    91    88    1
    84    92    93    1
    85    94    92    1
    86    95    92    1
    87    96    77   ar
    88    97    96   ar
    89    98    78   ar
    90    99    98    1
    91   100    99    1
    92   101    99    1
    93   102    99    1
    94   103   104    1
    95   105   103    1
    96   106   103    1
    97   107    79   ar
    98   108   107   ar
    99   109    80   ar
   100   110   109    1
   101   111   110    1
   102   112   110    1
   103   113   110    1
   104    33    34   ar
   105    35    36   ar
   106    37    41    1
   107    42    43   ar
   108    48    52    1
   109    53    54   ar
   110    59    63    1
   111    64    65   ar
   112    75    76   ar
   113    77    78   ar
   114    79    80   ar
   115    81    85    1
   116    86    87   ar
   117    92    96    1
   118    97    98   ar
   119   103   107    1
   120   108   109   ar
@<TRIPOS>SUBSTRUCTURE
     1 RES1        1 GROUP             0 ****  ****    0  
     2 RES2       18 GROUP             0 ****  ****    0  
     3 RES3       25 GROUP             0 ****  ****    0  
@<TRIPOS>CRYSIN
   18.2619   18.1152   14.7730   90.0000   98.8100   90.0000    15     1
