@<TRIPOS>MOLECULE
TUJHIP
    75    80     2     0     0
SMALL
NO_CHARGES
****
Generated from the CSD

@<TRIPOS>ATOM
     1 Fe1     17.6877   2.8012   1.2421   Fe        1 RES1   0.0000
     2 O1      19.4979   2.9562   0.7308   O.3       1 RES1   0.0000
     3 O2      17.1468   2.0072  -0.3933   O.3       1 RES1   0.0000
     4 N1      18.1675   0.7927   2.0076   N.1       1 RES1   0.0000
     5 N2      15.6825   2.5823   2.1365   N.ar      1 RES1   0.0000
     6 N3      17.1323   4.7943   0.6806   N.ar      1 RES1   0.0000
     7 N4      18.0671   3.6170   3.2422   N.ar      1 RES1   0.0000
     8 N5      15.1147   3.7461   2.6235   N.ar      1 RES1   0.0000
     9 N6      16.4569   5.5958   1.5772   N.ar      1 RES1   0.0000
    10 N7      17.1906   4.5651   3.7390   N.ar      1 RES1   0.0000
    11 C1      16.0602   1.6958  -1.0917   C.ar      1 RES1   0.0000
    12 C2      14.9361   2.5129  -1.1348   C.ar      1 RES1   0.0000
    13 C3      13.8157   2.1584  -1.8665   C.ar      1 RES1   0.0000
    14 C4      13.7686   0.9292  -2.5594   C.ar      1 RES1   0.0000
    15 C5      14.8979   0.1285  -2.5225   C.ar      1 RES1   0.0000
    16 C6      16.0418   0.4817  -1.8141   C.ar      1 RES1   0.0000
    17 C7      12.4913   0.4767  -3.2879   C.3       1 RES1   0.0000
    18 C8      20.5757   3.7367   0.8990   C.ar      1 RES1   0.0000
    19 C9      20.5116   5.0341   1.3613   C.ar      1 RES1   0.0000
    20 C10     21.6904   5.8111   1.4829   C.ar      1 RES1   0.0000
    21 C11     22.9500   5.2657   1.1652   C.ar      1 RES1   0.0000
    22 C12     22.9977   3.9813   0.7401   C.ar      1 RES1   0.0000
    23 C13     21.8376   3.2007   0.6110   C.ar      1 RES1   0.0000
    24 C14     24.2072   6.1450   1.3171   C.3       1 RES1   0.0000
    25 C15     18.4540  -0.2957   2.1756   C.1       1 RES1   0.0000
    26 C16     18.7733  -1.7207   2.4246   C.3       1 RES1   0.0000
    27 B1      15.9660   4.9966   2.9168   B         1 RES1   0.0000
    28 C17     15.1838  -0.6678   2.9230   C.3       1 RES1   0.0000
    29 C18     13.6735  -0.3083   0.9132   C.3       1 RES1   0.0000
    30 C19     14.8999   0.2216   1.6969   C.3       1 RES1   0.0000
    31 C20     14.7080   1.6460   2.1109   C.ar      1 RES1   0.0000
    32 C21     13.4952   2.2167   2.5573   C.ar      1 RES1   0.0000
    33 C22     13.7826   3.5449   2.8741   C.ar      1 RES1   0.0000
    34 C23     12.8302   4.6383   3.2443   C.3       1 RES1   0.0000
    35 C24     12.4207   5.3683   1.9547   C.3       1 RES1   0.0000
    36 C25     11.5963   4.0787   3.9830   C.3       1 RES1   0.0000
    37 C26     19.3922   5.9281  -1.9179   C.3       1 RES1   0.0000
    38 C27     17.2143   4.9985  -2.8253   C.3       1 RES1   0.0000
    39 C28     18.1698   5.0442  -1.6053   C.3       1 RES1   0.0000
    40 C29     17.4393   5.5605  -0.3820   C.ar      1 RES1   0.0000
    41 C30     16.9543   6.8611  -0.1818   C.ar      1 RES1   0.0000
    42 C31     16.3445   6.8458   1.0855   C.ar      1 RES1   0.0000
    43 C32     15.7189   8.0047   1.8215   C.3       1 RES1   0.0000
    44 C33     16.8149   8.7513   2.6104   C.3       1 RES1   0.0000
    45 C34     14.9316   8.9135   0.8940   C.3       1 RES1   0.0000
    46 C35     21.5003   3.1028   4.4159   C.3       1 RES1   0.0000
    47 C36     19.8749   1.2115   4.9882   C.3       1 RES1   0.0000
    48 C37     20.1463   2.4397   4.0476   C.3       1 RES1   0.0000
    49 C38     19.0121   3.4471   4.1762   C.ar      1 RES1   0.0000
    50 C39     18.7503   4.2878   5.2712   C.ar      1 RES1   0.0000
    51 C40     17.6024   4.9949   4.9497   C.ar      1 RES1   0.0000
    52 C41     16.8827   6.0287   5.7895   C.3       1 RES1   0.0000
    53 C42     17.8557   6.8685   6.6648   C.3       1 RES1   0.0000
    54 C43     15.7780   5.4089   6.6284   C.3       1 RES1   0.0000
    55 H1      14.9324   3.3786  -0.5817   H         1 RES1   0.0000
    56 H2      12.9892   2.8143  -1.9270   H         1 RES1   0.0000
    57 H3      14.8986  -0.6599  -3.1262   H         1 RES1   0.0000
    58 H4      16.9504  -0.1695  -1.9463   H         1 RES1   0.0000
    59 H5      19.5889   5.3943   1.7009   H         1 RES1   0.0000
    60 H6      21.5746   6.7681   1.8181   H         1 RES1   0.0000
    61 H7      23.9804   3.5535   0.4659   H         1 RES1   0.0000
    62 H8      21.9161   2.3384   0.2688   H         1 RES1   0.0000
    63 H9      15.3563   5.7585   3.5218   H         1 RES1   0.0000
    64 H10     15.6222   0.1587   1.1744   H         1 RES1   0.0000
    65 H11     12.5597   1.7326   2.6286   H         1 RES1   0.0000
    66 H12     13.3233   5.2789   3.8829   H         1 RES1   0.0000
    67 H13     18.5703   4.1449  -1.4128   H         1 RES1   0.0000
    68 H14     17.0713   7.6515  -0.8808   H         1 RES1   0.0000
    69 H15     15.0147   7.5884   2.4494   H         1 RES1   0.0000
    70 H16     20.1971   2.0715   3.0366   H         1 RES1   0.0000
    71 H17     19.3479   4.4315   6.1090   H         1 RES1   0.0000
    72 H18     16.4395   6.7086   5.1703   H         1 RES1   0.0000
    73 C44      7.1321  10.7438  13.6478   C.1       2 RES2   0.0000
    74 C45      7.7949  10.6330  14.9401   C.3       2 RES2   0.0000
    75 N8       6.5941  10.8706  12.6626   N.1       2 RES2   0.0000
@<TRIPOS>BOND
     1     1     2    1
     2     2    18    1
     3     3     1    1
     4     4     1    1
     5     5     1    1
     6     6     1    1
     7     7     1    1
     8     8     5   ar
     9     9     6   ar
    10    10     7   ar
    11    11     3    1
    12    12    11   ar
    13    13    12   ar
    14    14    13   ar
    15    15    14   ar
    16    16    11   ar
    17    17    14    1
    18    18    19   ar
    19    19    20   ar
    20    20    21   ar
    21    21    22   ar
    22    22    23   ar
    23    23    18   ar
    24    24    21    1
    25    25     4    3
    26    26    25    1
    27    27     8    1
    28    28    30    1
    29    29    30    1
    30    30    31    1
    31    31     5   ar
    32    32    31   ar
    33    33     8   ar
    34    34    33    1
    35    35    34    1
    36    36    34    1
    37    37    39    1
    38    38    39    1
    39    39    40    1
    40    40     6   ar
    41    41    40   ar
    42    42     9   ar
    43    43    42    1
    44    44    43    1
    45    45    43    1
    46    46    48    1
    47    47    48    1
    48    48    49    1
    49    49     7   ar
    50    50    49   ar
    51    51    10   ar
    52    52    51    1
    53    53    52    1
    54    54    52    1
    55    55    12    1
    56    56    13    1
    57    57    15    1
    58    58    16    1
    59    59    19    1
    60    60    20    1
    61    61    22    1
    62    62    23    1
    63    63    27    1
    64    64    30    1
    65    65    32    1
    66    66    34    1
    67    67    39    1
    68    68    41    1
    69    69    43    1
    70    70    48    1
    71    71    50    1
    72    72    52    1
    73     9    27    1
    74    10    27    1
    75    15    16   ar
    76    32    33   ar
    77    41    42   ar
    78    50    51   ar
    79    73    74    1
    80    75    73    3
@<TRIPOS>SUBSTRUCTURE
     1 RES1        1 GROUP             0 ****  ****    0  
     2 RES2       73 GROUP             0 ****  ****    0  
@<TRIPOS>CRYSIN
   19.1600   18.0290   14.1720   90.0000  103.4400   90.0000   231     1
