@<TRIPOS>MOLECULE
TURTOP
    77    74     3     0     0
SMALL
NO_CHARGES
****
Generated from the CSD

@<TRIPOS>ATOM
     1 Tm1     10.1305   8.0133   3.6801   Tm        1 RES1   0.0000
     2 Fe1      9.5241  10.8330   8.2583   Fe        1 RES1   0.0000
     3 O1      11.6227   7.2134   2.0840   O.3       1 RES1   0.0000
     4 H1      12.4679   6.8358   2.3399   H         1 RES1   0.0000
     5 H2      11.4725   7.0162   1.2486   H         1 RES1   0.0000
     6 O2       8.6565   6.4370   4.5775   O.3       1 RES1   0.0000
     7 H3       8.9203   5.8172   5.0657   H         1 RES1   0.0000
     8 H4       7.8533   6.4830   4.5249   H         1 RES1   0.0000
     9 O3      11.3041   6.2593   4.7343   O.3       1 RES1   0.0000
    10 H5      11.0029   5.6130   5.0952   H         1 RES1   0.0000
    11 H6      12.0377   6.1621   4.4315   H         1 RES1   0.0000
    12 O5       8.0598   9.1206   3.7748   O.2       1 RES1   0.0000
    13 O6      10.3596   9.9544   2.4008   O.2       1 RES1   0.0000
    14 O7      12.1921   8.8925   4.2710   O.2       1 RES1   0.0000
    15 O8       8.9448   7.3204   1.8070   O.2       1 RES1   0.0000
    16 N1       9.8956   8.8898   5.8959   N.1       1 RES1   0.0000
    17 N2       9.4376  12.8962  10.5617   N.1       1 RES1   0.0000
    18 N3       8.9313   8.5689  10.2847   N.1       1 RES1   0.0000
    19 N4       9.9381  13.1305   6.2036   N.1       1 RES1   0.0000
    20 N5      12.5235  10.4301   8.8547   N.1       1 RES1   0.0000
    21 N6       6.5017  10.9925   7.6739   N.1       1 RES1   0.0000
    22 N7       6.6391  10.8448   4.2010   N.am      1 RES1   0.0000
    23 N8      11.5395  11.5292   1.2695   N.am      1 RES1   0.0000
    24 N9      13.6769  10.5964   4.2614   N.am      1 RES1   0.0000
    25 N10      7.1804   6.8968   0.4726   N.am      1 RES1   0.0000
    26 C1       9.7286   9.5831   6.7980   C.1       1 RES1   0.0000
    27 C2       9.4348  12.1261   9.6985   C.1       1 RES1   0.0000
    28 C3       9.1530   9.4045   9.5198   C.1       1 RES1   0.0000
    29 C4       9.8085  12.2755   6.9766   C.1       1 RES1   0.0000
    30 C5      11.4118  10.5964   8.6273   C.1       1 RES1   0.0000
    31 C6       7.6248  10.9501   7.8912   C.1       1 RES1   0.0000
    32 C7       7.8311  10.3178   4.0513   C.2       1 RES1   0.0000
    33 H11      8.5807  10.8917   4.1612   H         1 RES1   0.0000
    34 C8      11.2694  10.2931   1.6180   C.2       1 RES1   0.0000
    35 H12     11.8089   9.6043   1.2461   H         1 RES1   0.0000
    36 C9      13.3020   9.3691   3.9778   C.2       1 RES1   0.0000
    37 H13     13.9197   8.8112   3.5197   H         1 RES1   0.0000
    38 C10      7.7562   7.0533   1.6364   C.2       1 RES1   0.0000
    39 H14      7.2139   6.9525   2.4112   H         1 RES1   0.0000
    40 C11      6.4590  12.2631   4.4765   C.3       1 RES1   0.0000
    41 H15      7.3332  12.7079   4.4831   H         1 RES1   0.0000
    42 H16      6.0286  12.3745   5.3508   H         1 RES1   0.0000
    43 H17      5.8963  12.6619   3.7802   H         1 RES1   0.0000
    44 C12      5.4390  10.0296   4.1506   C.3       1 RES1   0.0000
    45 H18      5.6825   9.1003   3.9572   H         1 RES1   0.0000
    46 H19      4.8453  10.3647   3.4459   H         1 RES1   0.0000
    47 H20      4.9765  10.0747   5.0140   H         1 RES1   0.0000
    48 C13     12.6563  11.8281   0.3687   C.3       1 RES1   0.0000
    49 H21     13.0894  10.9916   0.0983   H         1 RES1   0.0000
    50 H22     13.3059  12.3966   0.8332   H         1 RES1   0.0000
    51 H23     12.3214  12.2949  -0.4228   H         1 RES1   0.0000
    52 C14     10.7710  12.6424   1.7697   C.3       1 RES1   0.0000
    53 H24     10.0640  12.3117   2.3620   H         1 RES1   0.0000
    54 H25     10.3688  13.1261   1.0200   H         1 RES1   0.0000
    55 H26     11.3594  13.2472   2.2711   H         1 RES1   0.0000
    56 C15     12.7892  11.5133   4.9624   C.3       1 RES1   0.0000
    57 H27     11.9478  11.0553   5.1738   H         1 RES1   0.0000
    58 H28     12.6034  12.2888   4.3922   H         1 RES1   0.0000
    59 H29     13.2153  11.8113   5.7932   H         1 RES1   0.0000
    60 C16     14.9987  11.0977   3.8633   C.3       1 RES1   0.0000
    61 H30     15.4951  10.3850   3.4091   H         1 RES1   0.0000
    62 H31     15.4927  11.3842   4.6601   H         1 RES1   0.0000
    63 H32     14.8897  11.8581   3.2542   H         1 RES1   0.0000
    64 C17      7.9246   7.1064  -0.7565   C.3       1 RES1   0.0000
    65 H33      8.8607   7.3036  -0.5432   H         1 RES1   0.0000
    66 H34      7.5352   7.8589  -1.2486   H         1 RES1   0.0000
    67 H35      7.8796   6.2965  -1.3076   H         1 RES1   0.0000
    68 C18      5.7708   6.5467   0.3416   C.3       1 RES1   0.0000
    69 H36      5.3827   6.4158   1.2338   H         1 RES1   0.0000
    70 H37      5.6856   5.7182  -0.1745   H         1 RES1   0.0000
    71 H38      5.2956   7.2691  -0.1180   H         1 RES1   0.0000
    72 O4      11.5899   6.7766  -0.4948   O.3       2 RES2   0.0000
    73 H7      11.4105   7.5043  -0.9094   H         2 RES2   0.0000
    74 H8      11.1756   6.1329  -0.9315   H         2 RES2   0.0000
    75 O9      10.0676   5.0011   3.6450   O.3       3 RES3   0.0000
    76 H9       9.4805   5.3212   3.1215   H         3 RES3   0.0000
    77 H10     10.1542   4.1584   3.7237   H         3 RES3   0.0000
@<TRIPOS>BOND
     1     1     3    1
     2     2    26    1
     3     3     4    1
     4     5     3    1
     5     6     1    1
     6     7     6    1
     7     8     6    1
     8     9     1    1
     9    10     9    1
    10    11     9    1
    11    12     1    1
    12    13     1    1
    13    14     1    1
    14    15     1    1
    15    16     1    1
    16    17    27    3
    17    18    28    3
    18    19    29    3
    19    20    30    3
    20    21    31    3
    21    22    32   am
    22    23    34   am
    23    24    36   am
    24    25    38   am
    25    26    16    3
    26    27     2    1
    27    28     2    1
    28    29     2    1
    29    30     2    1
    30    31     2    1
    31    32    12    2
    32    33    32    1
    33    34    13    2
    34    35    34    1
    35    36    14    2
    36    37    36    1
    37    38    15    2
    38    39    38    1
    39    40    22    1
    40    41    40    1
    41    42    40    1
    42    43    40    1
    43    44    22    1
    44    45    44    1
    45    46    44    1
    46    47    44    1
    47    48    23    1
    48    49    48    1
    49    50    48    1
    50    51    48    1
    51    52    23    1
    52    53    52    1
    53    54    52    1
    54    55    52    1
    55    56    24    1
    56    57    56    1
    57    58    56    1
    58    59    56    1
    59    60    24    1
    60    61    60    1
    61    62    60    1
    62    63    60    1
    63    64    25    1
    64    65    64    1
    65    66    64    1
    66    67    64    1
    67    68    25    1
    68    69    68    1
    69    70    68    1
    70    71    68    1
    71    72    73    1
    72    74    72    1
    73    75    76    1
    74    77    75    1
@<TRIPOS>SUBSTRUCTURE
     1 RES1        1 GROUP             0 ****  ****    0  
     2 RES2       72 GROUP             0 ****  ****    0  
     3 RES3       75 GROUP             0 ****  ****    0  
@<TRIPOS>CRYSIN
   13.8884    8.8421   24.7474   90.0000   96.6950   90.0000    14     1
