@<TRIPOS>MOLECULE
TURVIO
    78    83     3     0     0
SMALL
USER_CHARGES
****
Generated from the CSD

@<TRIPOS>ATOM
     1 Fe1     -0.0005   6.1645   8.4694   Fe        1 RES1   2.0000
     2 N1      -0.0005   6.1645  11.0187   N.3       1 RES1   0.0000
     3 N2      -1.7440   4.8515   9.1923   N.3       1 RES1   0.0000
     4 H1      -2.4797   5.1252   8.6929   H         1 RES1   0.0000
     5 N3      -0.0571   4.4244   7.1107   N.2       1 RES1   0.0000
     6 C1       0.3000   4.1479   5.8072   C.2       1 RES1   0.0000
     7 H2       0.8968   4.6675   5.2801   H         1 RES1   0.0000
     8 C2      -0.9294   5.0993  11.4848   C.3       1 RES1   0.0000
     9 H3      -1.2129   5.2907  12.4140   H         1 RES1   0.0000
    10 H4      -0.4628   4.2265  11.4789   H         1 RES1   0.0000
    11 C3      -2.1449   5.0263  10.5944   C.3       1 RES1   0.0000
    12 H5      -2.7140   4.2662  10.8728   H         1 RES1   0.0000
    13 H6      -2.6729   5.8575  10.6867   H         1 RES1   0.0000
    14 C4      -1.5182   3.4600   8.8120   C.3       1 RES1   0.0000
    15 H7      -2.3772   2.9671   8.7897   H         1 RES1   0.0000
    16 H8      -0.9187   3.0189   9.4642   H         1 RES1   0.0000
    17 C5      -0.8968   3.4692   7.4689   C.2       1 RES1   0.0000
    18 N4      -1.0848   2.5853   6.4519   N.pl3     1 RES1   0.0000
    19 C6      -1.9314   1.3777   6.5026   C.3       1 RES1   0.0000
    20 H9      -1.9784   0.9746   5.6106   H         1 RES1   0.0000
    21 H10     -2.8325   1.6236   6.7989   H         1 RES1   0.0000
    22 H11     -1.5449   0.7342   7.1324   H         1 RES1   0.0000
    23 C7      -0.3326   3.0245   5.3903   C.2       1 RES1   0.0000
    24 H12     -0.2664   2.6195   4.5341   H         1 RES1   0.0000
    25 N2A      2.0088   5.3101   9.1923   N.3       1 RES1   0.0000
    26 H1A      2.1396   4.5362   8.6929   H         1 RES1   0.0000
    27 N3A      1.5353   6.9847   7.1107   N.2       1 RES1   0.0000
    28 C1A      1.5962   7.4322   5.8072   C.2       1 RES1   0.0000
    29 H2A      0.8477   7.6892   5.2801   H         1 RES1   0.0000
    30 C2A      1.3869   5.8917  11.4848   C.3       1 RES1   0.0000
    31 H3A      1.3629   5.5505  12.4140   H         1 RES1   0.0000
    32 H4A      1.9095   6.7322  11.4789   H         1 RES1   0.0000
    33 C3A      2.0579   4.8756  10.5944   C.3       1 RES1   0.0000
    34 H5A      3.0007   4.7628  10.8728   H         1 RES1   0.0000
    35 H6A      1.6020   4.0027  10.6867   H         1 RES1   0.0000
    36 C4A      3.1010   6.2015   8.8120   C.3       1 RES1   0.0000
    37 H7A      3.9573   5.7040   8.7897   H         1 RES1   0.0000
    38 H8A      3.1833   6.9412   9.4642   H         1 RES1   0.0000
    39 C5A      2.7823   6.7350   7.4689   C.2       1 RES1   0.0000
    40 N4A      3.6418   7.0142   6.4519   N.pl3     1 RES1   0.0000
    41 C6A      5.1109   6.8848   6.5026   C.3       1 RES1   0.0000
    42 H9A      5.4836   7.0457   5.6106   H         1 RES1   0.0000
    43 H10A     5.3485   5.9814   6.7989   H         1 RES1   0.0000
    44 H11A     5.4750   7.5413   7.1324   H         1 RES1   0.0000
    45 C7A      2.8854   7.4460   5.3903   C.2       1 RES1   0.0000
    46 H12A     3.2030   7.7059   4.5341   H         1 RES1   0.0000
    47 N2B     -0.2648   8.3309   9.1923   N.3       1 RES1   0.0000
    48 H1B      0.3401   8.8311   8.6929   H         1 RES1   0.0000
    49 N3B     -1.4782   7.0836   7.1107   N.2       1 RES1   0.0000
    50 C1B     -1.8962   6.9125   5.8072   C.2       1 RES1   0.0000
    51 H2B     -1.7446   6.1358   5.2801   H         1 RES1   0.0000
    52 C2B     -0.4575   7.5015  11.4848   C.3       1 RES1   0.0000
    53 H3B     -0.1500   7.6513  12.4140   H         1 RES1   0.0000
    54 H4B     -1.4467   7.5339  11.4789   H         1 RES1   0.0000
    55 C3B      0.0870   8.5907  10.5944   C.3       1 RES1   0.0000
    56 H5B     -0.2867   9.4636  10.8728   H         1 RES1   0.0000
    57 H6B      1.0709   8.6323  10.6867   H         1 RES1   0.0000
    58 C4B     -1.5828   8.8311   8.8120   C.3       1 RES1   0.0000
    59 H7B     -1.5802   9.8214   8.7897   H         1 RES1   0.0000
    60 H8B     -2.2645   8.5325   9.4642   H         1 RES1   0.0000
    61 C5B     -1.8855   8.2884   7.4689   C.2       1 RES1   0.0000
    62 N4B     -2.5571   8.8931   6.4519   N.pl3     1 RES1   0.0000
    63 C6B     -3.1795  10.2301   6.5026   C.3       1 RES1   0.0000
    64 H9B     -3.5052  10.4724   5.6106   H         1 RES1   0.0000
    65 H10B    -2.5160  10.8875   6.7989   H         1 RES1   0.0000
    66 H11B    -3.9301  10.2172   7.1324   H         1 RES1   0.0000
    67 C7B     -2.5528   8.0221   5.3903   C.2       1 RES1   0.0000
    68 H12B    -2.9366   8.1673   4.5341   H         1 RES1   0.0000
    69 Cl1      0.0000   0.0000  10.1298   Cl        2 RES2   0.0000
    70 O1       0.0000   0.0000   8.7420   O.2       2 RES2   0.0000
    71 O2      -1.3175  -0.3532  10.6182   O.2       2 RES2   0.0000
    72 O2A      0.9646  -0.9644  10.6182   O.2       2 RES2   0.0000
    73 O2B      0.3529   1.3176  10.6182   O.3       2 RES2  -1.0000
    74 Cl2     -5.3378   3.0818   8.2819   Cl        3 RES3   0.0000
    75 O3      -5.3378   3.0818   9.5729   O.2       3 RES3   0.0000
    76 O4      -4.9401   1.8178   7.7459   O.2       3 RES3   0.0000
    77 O4A     -4.4426   4.0591   7.7459   O.2       3 RES3   0.0000
    78 O4B     -6.6324   3.3693   7.7459   O.3       3 RES3  -1.0000
@<TRIPOS>BOND
     1     1     3    1
     2     2     8    1
     3     3     4    1
     4     5     1    1
     5     6     5    1
     6     7     6    1
     7     8     9    1
     8    10     8    1
     9    11     3    1
    10    12    11    1
    11    13    11    1
    12    14     3    1
    13    15    14    1
    14    16    14    1
    15    17     5    2
    16    18    17    1
    17    19    18    1
    18    20    19    1
    19    21    19    1
    20    22    19    1
    21    23     6    2
    22    24    23    1
    23    25     1    1
    24    26    25    1
    25    27     1    1
    26    28    27    1
    27    29    28    1
    28    30     2    1
    29    31    30    1
    30    32    30    1
    31    33    25    1
    32    34    33    1
    33    35    33    1
    34    36    25    1
    35    37    36    1
    36    38    36    1
    37    39    27    2
    38    40    39    1
    39    41    40    1
    40    42    41    1
    41    43    41    1
    42    44    41    1
    43    45    28    2
    44    46    45    1
    45    47     1    1
    46    48    47    1
    47    49     1    1
    48    50    49    1
    49    51    50    1
    50    52     2    1
    51    53    52    1
    52    54    52    1
    53    55    47    1
    54    56    55    1
    55    57    55    1
    56    58    47    1
    57    59    58    1
    58    60    58    1
    59    61    49    2
    60    62    61    1
    61    63    62    1
    62    64    63    1
    63    65    63    1
    64    66    63    1
    65    67    50    2
    66    68    67    1
    67     8    11    1
    68    14    17    1
    69    18    23    1
    70    30    33    1
    71    36    39    1
    72    40    45    1
    73    52    55    1
    74    58    61    1
    75    62    67    1
    76    69    70    2
    77    71    69    2
    78    72    69    2
    79    73    69    1
    80    74    75    2
    81    76    74    2
    82    77    74    2
    83    78    74    1
@<TRIPOS>SUBSTRUCTURE
     1 RES1        1 GROUP             0 ****  ****    0  
     2 RES2       69 GROUP             0 ****  ****    0  
     3 RES3       74 GROUP             0 ****  ****    0  
@<TRIPOS>CRYSIN
   10.6767   10.6767   14.8902   90.0000   90.0000  120.0000   159     1
