@<TRIPOS>MOLECULE
TUYPUA
    83    86     1     0     0
SMALL
USER_CHARGES
****
Generated from the CSD

@<TRIPOS>ATOM
     1 Fe1     10.1457   9.1700   0.0000   Fe        1 RES1   2.0000
     2 N1       9.3172   9.1714   2.0508   N.ar      1 RES1   0.0000
     3 N2       6.4658   9.1113   6.3467   N.pl3     1 RES1   1.0000
     4 N3       8.4362   8.4723   7.0950   N.pl3     1 RES1   0.0000
     5 N4       8.4141  10.2715  -0.6463   N.1       1 RES1   0.0000
     6 N5       6.5677  11.8283  -0.1938   N.2       1 RES1  -1.0000
     7 N6       6.4403  14.2419  -0.6867   N.1       1 RES1   0.0000
     8 O1       9.1801   7.3881  -0.5227   O.3       1 RES1   0.0000
     9 O2       5.5347   9.5263   5.5795   O.3       1 RES1  -1.0000
    10 O3       9.6247   8.0101   7.1185   O.3       1 RES1   0.0000
    11 C1       8.0176   8.9324   2.2611   C.ar      1 RES1   0.0000
    12 H1       7.4480   8.8551   1.5047   H         1 RES1   0.0000
    13 C2       7.4578   8.7916   3.5164   C.ar      1 RES1   0.0000
    14 H2       6.5290   8.6172   3.6140   H         1 RES1   0.0000
    15 C3       8.2803   8.9096   4.6396   C.ar      1 RES1   0.0000
    16 C4       9.6360   9.1760   4.4368   C.ar      1 RES1   0.0000
    17 H3      10.2260   9.2709   5.1751   H         1 RES1   0.0000
    18 C5      10.1067   9.2978   3.1346   C.ar      1 RES1   0.0000
    19 H4      11.0297   9.4798   3.0033   H         1 RES1   0.0000
    20 C6       7.7323   8.8136   5.9844   C.2       1 RES1   0.0000
    21 C7       7.6796   8.8225   8.3433   C.3       1 RES1   0.0000
    22 C8       6.2253   8.8020   7.8069   C.3       1 RES1   0.0000
    23 C9       8.1661  10.2172   8.7462   C.3       1 RES1   0.0000
    24 H5       9.1301  10.1900   8.9167   H         1 RES1   0.0000
    25 H6       7.6978  10.5045   9.5581   H         1 RES1   0.0000
    26 H7       7.9802  10.8492   8.0203   H         1 RES1   0.0000
    27 C10      7.9863   7.8206   9.4367   C.3       1 RES1   0.0000
    28 H8       7.8100   6.9146   9.1080   H         1 RES1   0.0000
    29 H9       7.4183   8.0024  10.2142   H         1 RES1   0.0000
    30 H10      8.9284   7.8973   9.6954   H         1 RES1   0.0000
    31 C11      5.2942   9.8410   8.3955   C.3       1 RES1   0.0000
    32 H11      5.6497  10.7373   8.2165   H         1 RES1   0.0000
    33 H12      5.2235   9.7053   9.3631   H         1 RES1   0.0000
    34 H13      4.4074   9.7539   7.9871   H         1 RES1   0.0000
    35 C12      5.5864   7.4194   7.8498   C.3       1 RES1   0.0000
    36 H14      4.7354   7.4375   7.3642   H         1 RES1   0.0000
    37 H15      5.4266   7.1622   8.7818   H         1 RES1   0.0000
    38 H16      6.1876   6.7686   7.4292   H         1 RES1   0.0000
    39 C13      7.6049  11.0711  -0.4610   C.1       1 RES1   0.0000
    40 C14      6.5746  13.1098  -0.4869   C.1       1 RES1   0.0000
    41 H17      9.6372   6.6788  -0.6009   H         1 RES1   0.0000
    42 H18      8.3972   7.2237  -0.2453   H         1 RES1   0.0000
    43 N1A     10.9743   9.1686  -2.0508   N.ar      1 RES1   0.0000
    44 N2A     13.8256   9.2288  -6.3467   N.pl3     1 RES1   0.0000
    45 N3A     11.8552   9.8677  -7.0950   N.pl3     1 RES1   1.0000
    46 N4A     11.8773   8.0685   0.6463   N.1       1 RES1   0.0000
    47 N5A     13.7237   6.5117   0.1938   N.2       1 RES1  -1.0000
    48 N6A     13.8511   4.0981   0.6867   N.1       1 RES1   0.0000
    49 O1A     11.1114  10.9519   0.5227   O.3       1 RES1   0.0000
    50 O2A     14.7567   8.8137  -5.5795   O.3       1 RES1   0.0000
    51 O3A     10.6667  10.3300  -7.1185   O.3       1 RES1  -1.0000
    52 C1A     12.2738   9.4076  -2.2611   C.ar      1 RES1   0.0000
    53 H1A     12.8434   9.4849  -1.5047   H         1 RES1   0.0000
    54 C2A     12.8336   9.5484  -3.5164   C.ar      1 RES1   0.0000
    55 H2A     13.7624   9.7228  -3.6140   H         1 RES1   0.0000
    56 C3A     12.0111   9.4304  -4.6396   C.ar      1 RES1   0.0000
    57 C4A     10.6554   9.1640  -4.4368   C.ar      1 RES1   0.0000
    58 H3A     10.0654   9.0691  -5.1751   H         1 RES1   0.0000
    59 C5A     10.1847   9.0422  -3.1346   C.ar      1 RES1   0.0000
    60 H4A      9.2617   8.8602  -3.0033   H         1 RES1   0.0000
    61 C6A     12.5592   9.5265  -5.9844   C.2       1 RES1   0.0000
    62 C7A     12.6118   9.5175  -8.3433   C.3       1 RES1   0.0000
    63 C8A     14.0661   9.5380  -7.8069   C.3       1 RES1   0.0000
    64 C9A     12.1254   8.1228  -8.7462   C.3       1 RES1   0.0000
    65 H5A     11.1614   8.1500  -8.9167   H         1 RES1   0.0000
    66 H6A     12.5936   7.8355  -9.5581   H         1 RES1   0.0000
    67 H7A     12.3112   7.4908  -8.0203   H         1 RES1   0.0000
    68 C10A    12.3051  10.5194  -9.4367   C.3       1 RES1   0.0000
    69 H8A     12.4814  11.4254  -9.1080   H         1 RES1   0.0000
    70 H9A     12.8731  10.3376 -10.2142   H         1 RES1   0.0000
    71 H10A    11.3630  10.4428  -9.6954   H         1 RES1   0.0000
    72 C11A    14.9972   8.4990  -8.3955   C.3       1 RES1   0.0000
    73 H11A    14.6417   7.6027  -8.2165   H         1 RES1   0.0000
    74 H12A    15.0679   8.6348  -9.3631   H         1 RES1   0.0000
    75 H13A    15.8840   8.5862  -7.9871   H         1 RES1   0.0000
    76 C12A    14.7050  10.9207  -7.8498   C.3       1 RES1   0.0000
    77 H14A    15.5560  10.9025  -7.3642   H         1 RES1   0.0000
    78 H15A    14.8648  11.1778  -8.7818   H         1 RES1   0.0000
    79 H16A    14.1038  11.5714  -7.4292   H         1 RES1   0.0000
    80 C13A    12.6866   7.2690   0.4610   C.1       1 RES1   0.0000
    81 C14A    13.7168   5.2302   0.4869   C.1       1 RES1   0.0000
    82 H17A    10.6542  11.6612   0.6009   H         1 RES1   0.0000
    83 H18A    11.8942  11.1164   0.2453   H         1 RES1   0.0000
@<TRIPOS>BOND
     1     1     2    1
     2     2    11   ar
     3     3     9    1
     4     4    10    1
     5     5     1    1
     6     6    39    1
     7     7    40    3
     8     8     1    1
     9    11    12    1
    10    13    11   ar
    11    14    13    1
    12    15    13   ar
    13    16    15   ar
    14    17    16    1
    15    18     2   ar
    16    19    18    1
    17    20     3    2
    18    21     4    1
    19    22     3    1
    20    23    21    1
    21    24    23    1
    22    25    23    1
    23    26    23    1
    24    27    21    1
    25    28    27    1
    26    29    27    1
    27    30    27    1
    28    31    22    1
    29    32    31    1
    30    33    31    1
    31    34    31    1
    32    35    22    1
    33    36    35    1
    34    37    35    1
    35    38    35    1
    36    39     5    3
    37    40     6    1
    38    41     8    1
    39    42     8    1
    40    43     1    1
    41    44    50    1
    42    45    51    1
    43    46     1    1
    44    47    80    1
    45    48    81    3
    46    49     1    1
    47    52    43   ar
    48    53    52    1
    49    54    52   ar
    50    55    54    1
    51    56    54   ar
    52    57    56   ar
    53    58    57    1
    54    59    43   ar
    55    60    59    1
    56    61    44    1
    57    62    45    1
    58    63    44    1
    59    64    62    1
    60    65    64    1
    61    66    64    1
    62    67    64    1
    63    68    62    1
    64    69    68    1
    65    70    68    1
    66    71    68    1
    67    72    63    1
    68    73    72    1
    69    74    72    1
    70    75    72    1
    71    76    63    1
    72    77    76    1
    73    78    76    1
    74    79    76    1
    75    80    46    3
    76    81    47    1
    77    82    49    1
    78    83    49    1
    79     4    20    1
    80    15    20    1
    81    16    18   ar
    82    21    22    1
    83    45    61    2
    84    56    61    1
    85    57    59   ar
    86    62    63    1
@<TRIPOS>SUBSTRUCTURE
     1 RES1        1 GROUP             0 ****  ****    0  
@<TRIPOS>CRYSIN
    7.1669    9.6417   12.9780   71.5830   89.0580   72.0040     2     1
