@<TRIPOS>MOLECULE
UBEFEP
    77    86     2     0     0
SMALL
NO_CHARGES
****
Generated from the CSD

@<TRIPOS>ATOM
     1 Fe1     -1.2826   5.1520  10.8151   Fe        1 RES1   0.0000
     2 F1      -4.2720   6.3285   7.8967   F         1 RES1   0.0000
     3 F2       1.6992   3.9617  13.7414   F         1 RES1   0.0000
     4 O1      -3.5546   4.5311   9.1344   O.3       1 RES1   0.0000
     5 O2       0.5181   3.1648  11.9351   O.3       1 RES1   0.0000
     6 O3      -3.5056   6.8127  10.0283   O.3       1 RES1   0.0000
     7 O4      -0.4462   4.7285  13.5564   O.3       1 RES1   0.0000
     8 O5      -1.9948   6.1467   8.2034   O.3       1 RES1   0.0000
     9 O6       1.3197   5.4548  12.0183   O.3       1 RES1   0.0000
    10 B1      -3.3515   5.9701   8.8353   B         1 RES1   0.0000
    11 B2       0.7657   4.3119  12.8066   B         1 RES1   0.0000
    12 N1      -2.5208   4.0230   9.9004   N.2       1 RES1   0.0000
    13 N2      -0.4828   3.4381  11.0413   N.2       1 RES1   0.0000
    14 N3      -2.7001   6.4210  11.0363   N.2       1 RES1   0.0000
    15 N4      -1.3971   5.2823  12.7147   N.2       1 RES1   0.0000
    16 N5      -0.9950   5.9535   9.1307   N.2       1 RES1   0.0000
    17 N6       0.5096   5.8444  11.0040   N.2       1 RES1   0.0000
    18 C1      -2.1912   2.7710   9.7415   C.2       1 RES1   0.0000
    19 C2      -1.0455   2.4178  10.4752   C.2       1 RES1   0.0000
    20 H1      -0.7200   1.5284  10.5484   H         1 RES1   0.0000
    21 C3      -3.0340   6.8023  12.2566   C.2       1 RES1   0.0000
    22 C4      -2.1887   6.1758  13.2473   C.2       1 RES1   0.0000
    23 C5       0.1103   6.6506   8.9035   C.2       1 RES1   0.0000
    24 C6       1.0510   6.4667   9.9873   C.2       1 RES1   0.0000
    25 C7      -2.9702   1.7850   8.8576   C.3       1 RES1   0.0000
    26 H2      -3.7280   2.2474   8.4417   H         1 RES1   0.0000
    27 H3      -3.3017   1.0452   9.4076   H         1 RES1   0.0000
    28 H4      -2.3784   1.4349   8.1599   H         1 RES1   0.0000
    29 C8      -4.0937   7.7769  12.5608   C.ar      1 RES1   0.0000
    30 C9      -4.9330   7.5753  13.6706   C.ar      1 RES1   0.0000
    31 H5      -4.8799   6.7660  14.1660   H         1 RES1   0.0000
    32 C10     -5.8427   8.5634  14.0455   C.ar      1 RES1   0.0000
    33 H6      -6.4102   8.4242  14.7941   H         1 RES1   0.0000
    34 C11     -5.9215   9.7510  13.3280   C.ar      1 RES1   0.0000
    35 H7      -6.5476  10.4191  13.5850   H         1 RES1   0.0000
    36 C12     -5.0850   9.9640  12.2318   C.ar      1 RES1   0.0000
    37 H8      -5.1221  10.7827  11.7526   H         1 RES1   0.0000
    38 C13     -4.2024   8.9697  11.8507   C.ar      1 RES1   0.0000
    39 H9      -3.6553   9.1037  11.0847   H         1 RES1   0.0000
    40 C14     -2.1994   6.5312  14.6886   C.ar      1 RES1   0.0000
    41 C15     -2.1188   7.8704  15.0722   C.ar      1 RES1   0.0000
    42 H10     -2.0509   8.5541  14.4167   H         1 RES1   0.0000
    43 C16     -2.1379   8.1936  16.4216   C.ar      1 RES1   0.0000
    44 H11     -2.0373   9.1006  16.6861   H         1 RES1   0.0000
    45 C17     -2.2999   7.2283  17.3763   C.ar      1 RES1   0.0000
    46 H12     -2.3179   7.4600  18.2974   H         1 RES1   0.0000
    47 C18     -2.4384   5.9057  16.9803   C.ar      1 RES1   0.0000
    48 H13     -2.5915   5.2386  17.6382   H         1 RES1   0.0000
    49 C19     -2.3582   5.5410  15.6780   C.ar      1 RES1   0.0000
    50 H14     -2.4106   4.6246  15.4335   H         1 RES1   0.0000
    51 C20      0.2597   7.5328   7.7229   C.ar      1 RES1   0.0000
    52 C21      0.3786   6.9634   6.4393   C.ar      1 RES1   0.0000
    53 H15      0.4529   6.0210   6.3449   H         1 RES1   0.0000
    54 C22      0.3900   7.7551   5.3319   C.ar      1 RES1   0.0000
    55 H16      0.4764   7.3665   4.4691   H         1 RES1   0.0000
    56 C23      0.2747   9.1338   5.4673   C.ar      1 RES1   0.0000
    57 H17      0.2617   9.6856   4.6938   H         1 RES1   0.0000
    58 C24      0.1784   9.6970   6.6988   C.ar      1 RES1   0.0000
    59 H18      0.1195  10.6414   6.7794   H         1 RES1   0.0000
    60 C25      0.1666   8.9105   7.8434   C.ar      1 RES1   0.0000
    61 H19      0.0957   9.3136   8.6999   H         1 RES1   0.0000
    62 C26      2.4915   6.9031   9.9302   C.ar      1 RES1   0.0000
    63 C27      3.1261   7.3966  11.0487   C.ar      1 RES1   0.0000
    64 H20      2.6446   7.5047  11.8606   H         1 RES1   0.0000
    65 C28      4.4668   7.7333  10.9854   C.ar      1 RES1   0.0000
    66 H21      4.9063   8.0772  11.7551   H         1 RES1   0.0000
    67 C29      5.1740   7.5702   9.7961   C.ar      1 RES1   0.0000
    68 H22      6.0970   7.7904   9.7601   H         1 RES1   0.0000
    69 C30      4.5504   7.0984   8.6913   C.ar      1 RES1   0.0000
    70 H23      5.0370   6.9977   7.8818   H         1 RES1   0.0000
    71 C31      3.2011   6.7608   8.7335   C.ar      1 RES1   0.0000
    72 H24      2.7633   6.4366   7.9551   H         1 RES1   0.0000
    73 Cl1     -0.4457   3.2967   6.8502   Cl        2 RES2   0.0000
    74 Cl2     -0.9812   4.3783   4.3202   Cl        2 RES2   0.0000
    75 C32     -1.6671   3.8401   5.7875   C.3       2 RES2   0.0000
    76 H25     -2.3025   3.1025   5.6063   H         2 RES2   0.0000
    77 H26     -2.1699   4.5820   6.2096   H         2 RES2   0.0000
@<TRIPOS>BOND
     1     1    12    1
     2     2    10    1
     3     3    11    1
     4     4    10    1
     5     5    11    1
     6     6    10    1
     7     7    11    1
     8     8    10    1
     9     9    11    1
    10    12     4    1
    11    13     1    1
    12    14     1    1
    13    15     1    1
    14    16     1    1
    15    17     1    1
    16    18    12    2
    17    19    13    2
    18    20    19    1
    19    21    14    2
    20    22    15    2
    21    23    16    2
    22    24    17    2
    23    25    18    1
    24    26    25    1
    25    27    25    1
    26    28    25    1
    27    29    21    1
    28    30    29   ar
    29    31    30    1
    30    32    30   ar
    31    33    32    1
    32    34    32   ar
    33    35    34    1
    34    36    34   ar
    35    37    36    1
    36    38    29   ar
    37    39    38    1
    38    40    22    1
    39    41    40   ar
    40    42    41    1
    41    43    41   ar
    42    44    43    1
    43    45    43   ar
    44    46    45    1
    45    47    45   ar
    46    48    47    1
    47    49    40   ar
    48    50    49    1
    49    51    23    1
    50    52    51   ar
    51    53    52    1
    52    54    52   ar
    53    55    54    1
    54    56    54   ar
    55    57    56    1
    56    58    56   ar
    57    59    58    1
    58    60    51   ar
    59    61    60    1
    60    62    24    1
    61    63    62   ar
    62    64    63    1
    63    65    63   ar
    64    66    65    1
    65    67    65   ar
    66    68    67    1
    67    69    67   ar
    68    70    69    1
    69    71    62   ar
    70    72    71    1
    71     5    13    1
    72     6    14    1
    73     7    15    1
    74     8    16    1
    75     9    17    1
    76    18    19    1
    77    21    22    1
    78    23    24    1
    79    36    38   ar
    80    47    49   ar
    81    58    60   ar
    82    69    71   ar
    83    73    75    1
    84    74    75    1
    85    75    76    1
    86    77    75    1
@<TRIPOS>SUBSTRUCTURE
     1 RES1        1 GROUP             0 ****  ****    0  
     2 RES2       73 GROUP             0 ****  ****    0  
@<TRIPOS>CRYSIN
   12.5260   10.3900   13.7810   90.0000  115.7330   90.0000     4     1
