@<TRIPOS>MOLECULE
UBEFIT
    80    89     2     0     0
SMALL
NO_CHARGES
****
Generated from the CSD

@<TRIPOS>ATOM
     1 Fe1     11.7571   5.6372  12.0023   Fe        1 RES1   0.0000
     2 F1      15.8191   4.2335  11.5405   F         1 RES1   0.0000
     3 F2       7.6835   7.0400  12.5024   F         1 RES1   0.0000
     4 B1      14.5318   4.7206  11.7226   B         1 RES1   0.0000
     5 B2       8.9927   6.6166  12.3021   B         1 RES1   0.0000
     6 O1      14.0179   4.0697  12.9256   O.3       1 RES1   0.0000
     7 O2       9.5772   6.5119  13.6811   O.3       1 RES1   0.0000
     8 O3      13.7715   4.1949  10.5104   O.3       1 RES1   0.0000
     9 O4       8.9069   5.2692  11.6862   O.3       1 RES1   0.0000
    10 O5      14.5682   6.1500  11.7620   O.3       1 RES1   0.0000
    11 O6       9.6786   7.5680  11.5056   O.3       1 RES1   0.0000
    12 N1      12.7897   4.5909  13.2412   N.2       1 RES1   0.0000
    13 N2      10.8015   5.8678  13.6280   N.2       1 RES1   0.0000
    14 N3      12.4321   4.5385  10.6394   N.2       1 RES1   0.0000
    15 N4      10.1685   4.7684  11.3570   N.2       1 RES1   0.0000
    16 N5      13.3106   6.7054  11.7757   N.2       1 RES1   0.0000
    17 N6      11.0303   7.2494  11.4343   N.2       1 RES1   0.0000
    18 C1      12.4342   4.5613  14.5171   C.2       1 RES1   0.0000
    19 C2      11.1927   5.2714  14.7279   C.2       1 RES1   0.0000
    20 C3      11.6149   3.6713   9.9597   C.2       1 RES1   0.0000
    21 C4      10.2029   4.0424  10.3360   C.2       1 RES1   0.0000
    22 C5      13.2201   7.9231  11.3160   C.2       1 RES1   0.0000
    23 C6      11.8115   8.3305  11.2371   C.2       1 RES1   0.0000
    24 C7      13.2524   3.9377  15.5851   C.3       1 RES1   0.0000
    25 H1      13.6468   3.1069  15.2498   H         1 RES1   0.0000
    26 H2      12.6844   3.7396  16.3588   H         1 RES1   0.0000
    27 H3      13.9654   4.5545  15.8521   H         1 RES1   0.0000
    28 C8      10.4866   5.2965  16.0235   C.3       1 RES1   0.0000
    29 H4       9.8395   6.0339  16.0281   H         1 RES1   0.0000
    30 H5      11.1356   5.4285  16.7457   H         1 RES1   0.0000
    31 H6      10.0155   4.4475  16.1555   H         1 RES1   0.0000
    32 C9      12.0350   2.6517   9.0859   C.ar      1 RES1   0.0000
    33 C10     11.5211   1.3998   9.2209   C.ar      1 RES1   0.0000
    34 H7      10.9033   1.2359   9.9233   H         1 RES1   0.0000
    35 C11     11.8544   0.3778   8.3926   C.ar      1 RES1   0.0000
    36 H8      11.4762  -0.4848   8.5170   H         1 RES1   0.0000
    37 C12     12.7581   0.6100   7.3594   C.ar      1 RES1   0.0000
    38 H9      13.0113  -0.0933   6.7738   H         1 RES1   0.0000
    39 C13     13.2699   1.8459   7.2001   C.ar      1 RES1   0.0000
    40 H10     13.8659   2.0121   6.4795   H         1 RES1   0.0000
    41 C14     12.9491   2.8656   8.0542   C.ar      1 RES1   0.0000
    42 H11     13.3491   3.7191   7.9435   H         1 RES1   0.0000
    43 C15      9.0888   3.5735   9.4758   C.ar      1 RES1   0.0000
    44 C16      7.9318   3.1570  10.0462   C.ar      1 RES1   0.0000
    45 H12      7.8382   3.1683  10.9913   H         1 RES1   0.0000
    46 C17      6.8729   2.7063   9.2452   C.ar      1 RES1   0.0000
    47 H13      6.0952   2.3330   9.6426   H         1 RES1   0.0000
    48 C18      6.9708   2.8110   7.8965   C.ar      1 RES1   0.0000
    49 H14      6.2388   2.5538   7.3488   H         1 RES1   0.0000
    50 C19      8.0975   3.2776   7.3306   C.ar      1 RES1   0.0000
    51 H15      8.1577   3.3345   6.3854   H         1 RES1   0.0000
    52 C20      9.1711   3.6782   8.1089   C.ar      1 RES1   0.0000
    53 H16      9.9571   4.0219   7.7008   H         1 RES1   0.0000
    54 C21     14.3057   8.7812  10.9079   C.ar      1 RES1   0.0000
    55 C22     14.2088   9.6006   9.7868   C.ar      1 RES1   0.0000
    56 H17     13.4193   9.5733   9.2603   H         1 RES1   0.0000
    57 C23     15.2305  10.4473   9.4257   C.ar      1 RES1   0.0000
    58 H18     15.1441  10.9981   8.6581   H         1 RES1   0.0000
    59 C24     16.4054  10.4928  10.2025   C.ar      1 RES1   0.0000
    60 H19     17.0979  11.1074   9.9901   H         1 RES1   0.0000
    61 C25     16.5389   9.6370  11.2720   C.ar      1 RES1   0.0000
    62 H20     17.3473   9.6347  11.7711   H         1 RES1   0.0000
    63 C26     15.5151   8.7880  11.6270   C.ar      1 RES1   0.0000
    64 H21     15.6257   8.1985  12.3643   H         1 RES1   0.0000
    65 C27     11.3301   9.6552  11.0080   C.ar      1 RES1   0.0000
    66 C28     10.4502   9.9511   9.9779   C.ar      1 RES1   0.0000
    67 H22     10.1315   9.2523   9.4211   H         1 RES1   0.0000
    68 C29     10.0345  11.2326   9.7519   C.ar      1 RES1   0.0000
    69 H23      9.3916  11.4169   9.0768   H         1 RES1   0.0000
    70 C30     10.5665  12.2818  10.5256   C.ar      1 RES1   0.0000
    71 H24     10.3249  13.1832  10.3451   H         1 RES1   0.0000
    72 C31     11.4360  11.9905  11.5436   C.ar      1 RES1   0.0000
    73 H25     11.7682  12.6802  12.1079   H         1 RES1   0.0000
    74 C32     11.8153  10.6931  11.7332   C.ar      1 RES1   0.0000
    75 H26     12.4551  10.5065  12.4113   H         1 RES1   0.0000
    76 Cl1      6.6626   4.6114  15.7505   Cl        2 RES2   0.0000
    77 Cl2      8.0776   2.7541  14.0240   Cl        2 RES2   0.0000
    78 C33      7.0295   4.0970  14.1211   C.3       2 RES2   0.0000
    79 H27      6.1825   3.8694  13.6614   H         2 RES2   0.0000
    80 H28      7.4411   4.8549  13.6341   H         2 RES2   0.0000
@<TRIPOS>BOND
     1     1    12    1
     2     2     4    1
     3     3     5    1
     4     4     6    1
     5     5     7    1
     6     6    12    1
     7     7    13    1
     8     8     4    1
     9     9     5    1
    10    10     4    1
    11    11     5    1
    12    12    18    2
    13    13     1    1
    14    14     1    1
    15    15     1    1
    16    16     1    1
    17    17     1    1
    18    18    19    1
    19    19    13    2
    20    20    14    2
    21    21    15    2
    22    22    16    2
    23    23    17    2
    24    24    18    1
    25    25    24    1
    26    26    24    1
    27    27    24    1
    28    28    19    1
    29    29    28    1
    30    30    28    1
    31    31    28    1
    32    32    20    1
    33    33    32   ar
    34    34    33    1
    35    35    33   ar
    36    36    35    1
    37    37    35   ar
    38    38    37    1
    39    39    37   ar
    40    40    39    1
    41    41    32   ar
    42    42    41    1
    43    43    21    1
    44    44    43   ar
    45    45    44    1
    46    46    44   ar
    47    47    46    1
    48    48    46   ar
    49    49    48    1
    50    50    48   ar
    51    51    50    1
    52    52    43   ar
    53    53    52    1
    54    54    22    1
    55    55    54   ar
    56    56    55    1
    57    57    55   ar
    58    58    57    1
    59    59    57   ar
    60    60    59    1
    61    61    59   ar
    62    62    61    1
    63    63    54   ar
    64    64    63    1
    65    65    23    1
    66    66    65   ar
    67    67    66    1
    68    68    66   ar
    69    69    68    1
    70    70    68   ar
    71    71    70    1
    72    72    70   ar
    73    73    72    1
    74    74    65   ar
    75    75    74    1
    76     8    14    1
    77     9    15    1
    78    10    16    1
    79    11    17    1
    80    20    21    1
    81    22    23    1
    82    39    41   ar
    83    50    52   ar
    84    61    63   ar
    85    72    74   ar
    86    76    78    1
    87    77    78    1
    88    78    79    1
    89    80    78    1
@<TRIPOS>SUBSTRUCTURE
     1 RES1        1 GROUP             0 ****  ****    0  
     2 RES2       76 GROUP             0 ****  ****    0  
@<TRIPOS>CRYSIN
   10.4360   22.7610   15.1710   90.0000   90.1700   90.0000   231     1
