@<TRIPOS>MOLECULE
UBOWIR
    75    80     1     0     0
SMALL
NO_CHARGES
****
Generated from the CSD

@<TRIPOS>ATOM
     1 Fe1      7.2461   3.2470   7.0243   Fe        1 RES1   0.0000
     2 S1       4.1573   2.8496   5.3824   S.o2      1 RES1   0.0000
     3 S2       8.9581   3.6907   3.9646   S.o2      1 RES1   0.0000
     4 F1       3.4604   1.3396   7.4077   F         1 RES1   0.0000
     5 F2       3.0289   3.4291   7.6833   F         1 RES1   0.0000
     6 F3       1.8069   2.2418   6.3789   F         1 RES1   0.0000
     7 F4      10.8345   2.7038   2.4521   F         1 RES1   0.0000
     8 F5       9.3073   1.3138   2.9658   F         1 RES1   0.0000
     9 F6      10.7674   1.8598   4.4042   F         1 RES1   0.0000
    10 O1       5.4680   2.8600   6.0099   O.3       1 RES1   0.0000
    11 O2       3.9737   1.7733   4.4569   O.2       1 RES1   0.0000
    12 O3       3.7105   4.1480   4.9676   O.2       1 RES1   0.0000
    13 O4       8.2253   3.1065   5.0700   O.3       1 RES1   0.0000
    14 O5       8.1506   3.9389   2.8046   O.2       1 RES1   0.0000
    15 O6       9.8669   4.7326   4.3108   O.2       1 RES1   0.0000
    16 N1       9.0195   3.8615   8.1773   N.3       1 RES1   0.0000
    17 N2       6.9814   5.4696   6.9739   N.3       1 RES1   0.0000
    18 N3       5.8815   3.5556   8.8160   N.ar      1 RES1   0.0000
    19 N4       8.2154   1.3435   7.5116   N.ar      1 RES1   0.0000
    20 C1       8.7561   5.2205   8.7377   C.3       1 RES1   0.0000
    21 H1       8.0708   5.1211   9.4607   H         1 RES1   0.0000
    22 C2      10.0044   5.8735   9.3718   C.3       1 RES1   0.0000
    23 H2      10.3340   5.3018  10.1098   H         1 RES1   0.0000
    24 H3      10.7211   5.9381   8.6910   H         1 RES1   0.0000
    25 C3       9.6867   7.2790   9.9140   C.3       1 RES1   0.0000
    26 H4       9.0226   7.2106  10.6461   H         1 RES1   0.0000
    27 H5      10.5095   7.6894  10.2800   H         1 RES1   0.0000
    28 C4       9.1304   8.1488   8.8009   C.3       1 RES1   0.0000
    29 H6       9.8078   8.2469   8.0855   H         1 RES1   0.0000
    30 H7       8.9242   9.0510   9.1534   H         1 RES1   0.0000
    31 C5       7.8637   7.5190   8.2270   C.3       1 RES1   0.0000
    32 H8       7.5016   8.0998   7.5116   H         1 RES1   0.0000
    33 H9       7.1802   7.4455   8.9395   H         1 RES1   0.0000
    34 C6       8.1542   6.1278   7.6562   C.3       1 RES1   0.0000
    35 H10      8.8613   6.2478   6.9573   H         1 RES1   0.0000
    36 C7      10.2776   3.8086   7.3851   C.3       1 RES1   0.0000
    37 H11     11.0466   3.8576   7.9906   H         1 RES1   0.0000
    38 H12     10.3029   4.5649   6.7630   H         1 RES1   0.0000
    39 H13     10.3113   2.9684   6.8820   H         1 RES1   0.0000
    40 C8       6.8326   6.0194   5.5987   C.3       1 RES1   0.0000
    41 H14      6.5431   6.9538   5.6499   H         1 RES1   0.0000
    42 H15      6.1641   5.4954   5.1091   H         1 RES1   0.0000
    43 H16      7.6931   5.9690   5.1317   H         1 RES1   0.0000
    44 C9       9.1069   2.8290   9.2227   C.3       1 RES1   0.0000
    45 H17      8.3473   2.9193   9.8508   H         1 RES1   0.0000
    46 H18      9.9488   2.9374   9.7333   H         1 RES1   0.0000
    47 C10      9.0750   1.4687   8.5660   C.ar      1 RES1   0.0000
    48 C11      9.8990   0.4375   8.9817   C.ar      1 RES1   0.0000
    49 H19     10.4995   0.5601   9.7062   H         1 RES1   0.0000
    50 C12      9.8280  -0.7808   8.3129   C.ar      1 RES1   0.0000
    51 H20     10.3761  -1.5100   8.5795   H         1 RES1   0.0000
    52 C13      8.9482  -0.9163   7.2570   C.ar      1 RES1   0.0000
    53 H21      8.8882  -1.7423   6.7931   H         1 RES1   0.0000
    54 C14      8.1440   0.1639   6.8699   C.ar      1 RES1   0.0000
    55 C15      7.1842   0.0387   5.7282   C.3       1 RES1   0.0000
    56 H22      6.6427   0.8531   5.6665   H         1 RES1   0.0000
    57 H23      6.5975  -0.7318   5.8773   H         1 RES1   0.0000
    58 H24      7.6822  -0.0865   4.8938   H         1 RES1   0.0000
    59 C16      5.6803   5.6825   7.6577   C.3       1 RES1   0.0000
    60 H25      4.9496   5.4760   7.0236   H         1 RES1   0.0000
    61 H26      5.6030   6.6388   7.9032   H         1 RES1   0.0000
    62 C17      5.4942   4.8501   8.8958   C.ar      1 RES1   0.0000
    63 C18      4.8236   5.3702   9.9893   C.ar      1 RES1   0.0000
    64 H27      4.5929   6.2904  10.0225   H         1 RES1   0.0000
    65 C19      4.4966   4.5248  11.0301   C.ar      1 RES1   0.0000
    66 H28      4.0466   4.8565  11.7983   H         1 RES1   0.0000
    67 C20      4.8327   3.1878  10.9353   C.ar      1 RES1   0.0000
    68 H29      4.5917   2.5864  11.6296   H         1 RES1   0.0000
    69 C21      5.5314   2.7257   9.8161   C.ar      1 RES1   0.0000
    70 C22      5.8784   1.2674   9.7167   C.3       1 RES1   0.0000
    71 H30      5.8687   0.9938   8.7753   H         1 RES1   0.0000
    72 H31      5.2208   0.7408  10.2183   H         1 RES1   0.0000
    73 H32      6.7714   1.1190  10.0918   H         1 RES1   0.0000
    74 C23      3.0574   2.4444   6.7856   C.3       1 RES1   0.0000
    75 C24     10.0201   2.3218   3.4463   C.3       1 RES1   0.0000
@<TRIPOS>BOND
     1     1    10    1
     2     2    10    1
     3     3    13    1
     4     4    74    1
     5     5    74    1
     6     6    74    1
     7     7    75    1
     8     8    75    1
     9     9    75    1
    10    11     2    2
    11    12     2    2
    12    13     1    1
    13    14     3    2
    14    15     3    2
    15    16     1    1
    16    17     1    1
    17    18     1    1
    18    19     1    1
    19    20    16    1
    20    21    20    1
    21    22    20    1
    22    23    22    1
    23    24    22    1
    24    25    22    1
    25    26    25    1
    26    27    25    1
    27    28    25    1
    28    29    28    1
    29    30    28    1
    30    31    28    1
    31    32    31    1
    32    33    31    1
    33    34    17    1
    34    35    34    1
    35    36    16    1
    36    37    36    1
    37    38    36    1
    38    39    36    1
    39    40    17    1
    40    41    40    1
    41    42    40    1
    42    43    40    1
    43    44    16    1
    44    45    44    1
    45    46    44    1
    46    47    19   ar
    47    48    47   ar
    48    49    48    1
    49    50    48   ar
    50    51    50    1
    51    52    50   ar
    52    53    52    1
    53    54    19   ar
    54    55    54    1
    55    56    55    1
    56    57    55    1
    57    58    55    1
    58    59    17    1
    59    60    59    1
    60    61    59    1
    61    62    18   ar
    62    63    62   ar
    63    64    63    1
    64    65    63   ar
    65    66    65    1
    66    67    65   ar
    67    68    67    1
    68    69    18   ar
    69    70    69    1
    70    71    70    1
    71    72    70    1
    72    73    70    1
    73    74     2    1
    74    75     3    1
    75    20    34    1
    76    31    34    1
    77    44    47    1
    78    52    54   ar
    79    59    62    1
    80    67    69   ar
@<TRIPOS>SUBSTRUCTURE
     1 RES1        1 GROUP             0 ****  ****    0  
@<TRIPOS>CRYSIN
   14.8720   12.9060   16.5430   90.0000  114.4260   90.0000   231     1
