@<TRIPOS>MOLECULE
UBOXUE
   103   108     3     0     0
SMALL
USER_CHARGES
****
Generated from the CSD

@<TRIPOS>ATOM
     1 Fe1      4.8281   4.6660   3.4192   Fe        1 RES1  -2.0000
     2 C1       3.0840   4.2054   3.5757   C.1       1 RES1   0.0000
     3 O1       1.9918   3.8676   3.6983   O.2       1 RES1   0.0000
     4 C2       6.6097   4.9773   3.2551   C.1       1 RES1   0.0000
     5 O2       7.7409   5.0628   3.1396   O.2       1 RES1   0.0000
     6 C3       4.5903   6.2237   4.5633   C.1       1 RES1   0.0000
     7 N1       4.4592   7.2029   5.1809   N.1       1 RES1   0.0000
     8 C4       4.3670   5.8367   1.9257   C.1       1 RES1   0.0000
     9 N2       4.0265   6.5786   1.0890   N.1       1 RES1   0.0000
    10 C5       5.1722   3.2156   2.1850   C.1       1 RES1   0.0000
    11 N3       5.4831   2.3796   1.4284   N.1       1 RES1   0.0000
    12 C6       5.1792   3.5320   4.9687   C.1       1 RES1   0.0000
    13 N4       5.3596   2.8371   5.8904   N.1       1 RES1   0.0000
    14 P1       3.5089  12.4338  14.8958   P.3       2 RES2   1.0000
    15 C7       4.2634  12.9905  13.3694   C.ar      2 RES2   0.0000
    16 C8       3.7108  14.0360  12.6387   C.ar      2 RES2   0.0000
    17 H1       2.9270  14.4315  12.9451   H         2 RES2   0.0000
    18 C9       4.2893  14.5085  11.4743   C.ar      2 RES2   0.0000
    19 H2       3.8950  15.1990  10.9911   H         2 RES2   0.0000
    20 C10      5.4843  13.9205  11.0429   C.ar      2 RES2   0.0000
    21 H3       5.8969  14.2369  10.2722   H         2 RES2   0.0000
    22 C11      6.0519  12.8921  11.7336   C.ar      2 RES2   0.0000
    23 H4       6.8421  12.5137  11.4201   H         2 RES2   0.0000
    24 C12      5.4713  12.3983  12.8956   C.ar      2 RES2   0.0000
    25 H5       5.8645  11.6927  13.3552   H         2 RES2   0.0000
    26 C13      1.9447  11.5623  14.5974   C.ar      2 RES2   0.0000
    27 C14      1.2910  11.6585  13.3764   C.ar      2 RES2   0.0000
    28 H6       1.6654  12.1460  12.6788   H         2 RES2   0.0000
    29 C15      0.0509  11.0107  13.2115   C.ar      2 RES2   0.0000
    30 H7      -0.4227  11.0962  12.4148   H         2 RES2   0.0000
    31 C16     -0.4567  10.2389  14.2509   C.ar      2 RES2   0.0000
    32 H8      -1.2660   9.7963  14.1354   H         2 RES2   0.0000
    33 C17      0.2065  10.1127  15.4460   C.ar      2 RES2   0.0000
    34 H9      -0.1539   9.5889  16.1248   H         2 RES2   0.0000
    35 C18      1.4406  10.7819  15.6440   C.ar      2 RES2   0.0000
    36 H10      1.9024  10.7028  16.4477   H         2 RES2   0.0000
    37 C19      3.1876  13.9077  15.8867   C.ar      2 RES2   0.0000
    38 C20      2.0109  14.0445  16.6434   C.ar      2 RES2   0.0000
    39 H11      1.3687  13.3732  16.6245   H         2 RES2   0.0000
    40 C21      1.8042  15.1670  17.4071   C.ar      2 RES2   0.0000
    41 H12      1.0198  15.2568  17.8997   H         2 RES2   0.0000
    42 C22      2.7773  16.1697  17.4448   C.ar      2 RES2   0.0000
    43 H13      2.6395  16.9308  17.9633   H         2 RES2   0.0000
    44 C23      3.9509  16.0350  16.7141   C.ar      2 RES2   0.0000
    45 H14      4.6002  16.6999  16.7541   H         2 RES2   0.0000
    46 C24      4.1555  14.9232  15.9339   C.ar      2 RES2   0.0000
    47 H15      4.9366  14.8420  15.4365   H         2 RES2   0.0000
    48 C25      4.6206  11.3378  15.7972   C.ar      2 RES2   0.0000
    49 C26      5.5202  11.8445  16.7518   C.ar      2 RES2   0.0000
    50 H16      5.5632  12.7596  16.9097   H         2 RES2   0.0000
    51 C27      6.3324  10.9872  17.4448   C.ar      2 RES2   0.0000
    52 H17      6.9312  11.3207  18.0718   H         2 RES2   0.0000
    53 C28      6.2617   9.6082  17.2091   C.ar      2 RES2   0.0000
    54 H18      6.8051   9.0288  17.6946   H         2 RES2   0.0000
    55 C29      5.3995   9.1036  16.2709   C.ar      2 RES2   0.0000
    56 H19      5.3653   8.1864  16.1107   H         2 RES2   0.0000
    57 C30      4.5757   9.9652  15.5568   C.ar      2 RES2   0.0000
    58 H20      3.9923   9.6274  14.9156   H         2 RES2   0.0000
    59 P2      11.0985   8.0752  22.4373   P.3       3 RES3   1.0000
    60 C31     11.0874   8.1394  24.2214   C.ar      3 RES3   0.0000
    61 C32     12.2862   8.0603  24.9662   C.ar      3 RES3   0.0000
    62 H21     13.0988   7.9940  24.5184   H         3 RES3   0.0000
    63 C33     12.2698   8.0752  26.3404   C.ar      3 RES3   0.0000
    64 H22     13.0662   8.0025  26.8165   H         3 RES3   0.0000
    65 C34     11.0593   8.2014  27.0216   C.ar      3 RES3   0.0000
    66 H23     11.0554   8.2527  27.9503   H         3 RES3   0.0000
    67 C35      9.8545   8.2527  26.3239   C.ar      3 RES3   0.0000
    68 H24      9.0476   8.3125  26.7812   H         3 RES3   0.0000
    69 C36      9.8692   8.2078  24.9285   C.ar      3 RES3   0.0000
    70 H25      9.0664   8.2249  24.4595   H         3 RES3   0.0000
    71 C37     10.1429   9.4243  21.7488   C.ar      3 RES3   0.0000
    72 C38      9.5096  10.3992  22.5479   C.ar      3 RES3   0.0000
    73 H26      9.5725  10.3372  23.4742   H         3 RES3   0.0000
    74 C39      8.7887  11.4597  21.9774   C.ar      3 RES3   0.0000
    75 H27      8.3613  12.0840  22.5172   H         3 RES3   0.0000
    76 C40      8.7237  11.5623  20.6056   C.ar      3 RES3   0.0000
    77 H28      8.2563  12.2657  20.2143   H         3 RES3   0.0000
    78 C41      9.3577  10.6152  19.8042   C.ar      3 RES3   0.0000
    79 H29      9.3077  10.7007  18.8802   H         3 RES3   0.0000
    80 C42     10.0617   9.5483  20.3487   C.ar      3 RES3   0.0000
    81 H30     10.4738   8.9240  19.7948   H         3 RES3   0.0000
    82 C43     10.4459   6.4824  21.8879   C.ar      3 RES3   0.0000
    83 C44      9.8280   5.6016  22.7836   C.ar      3 RES3   0.0000
    84 H31      9.7172   5.8389  23.6769   H         3 RES3   0.0000
    85 C45      9.3771   4.3572  22.3122   C.ar      3 RES3   0.0000
    86 H32      8.9507   3.7714  22.8967   H         3 RES3   0.0000
    87 C46      9.5586   4.0023  21.0110   C.ar      3 RES3   0.0000
    88 H33      9.2788   3.1642  20.7211   H         3 RES3   0.0000
    89 C47     10.1516   4.8704  20.1201   C.ar      3 RES3   0.0000
    90 H34     10.2482   4.6245  19.2291   H         3 RES3   0.0000
    91 C48     10.6037   6.1019  20.5491   C.ar      3 RES3   0.0000
    92 H35     11.0124   6.6813  19.9456   H         3 RES3   0.0000
    93 C49     12.8017   8.2206  21.8407   C.ar      3 RES3   0.0000
    94 C50     13.6321   7.1238  21.9138   C.ar      3 RES3   0.0000
    95 H36     13.2927   6.3135  22.2179   H         3 RES3   0.0000
    96 C51     14.9795   7.2093  21.5414   C.ar      3 RES3   0.0000
    97 H37     15.5403   6.4717  21.6145   H         3 RES3   0.0000
    98 C52     15.4577   8.4173  21.0605   C.ar      3 RES3   0.0000
    99 H38     16.3483   8.4943  20.8036   H         3 RES3   0.0000
   100 C53     14.6287   9.4970  20.9615   C.ar      3 RES3   0.0000
   101 H39     14.9597  10.2987  20.6268   H         3 RES3   0.0000
   102 C54     13.2927   9.4158  21.3528   C.ar      3 RES3   0.0000
   103 H40     12.7373  10.1598  21.2868   H         3 RES3   0.0000
@<TRIPOS>BOND
     1     1     2    1
     2     2     3    3
     3     4     1    1
     4     5     4    3
     5     6     1    1
     6     7     6    3
     7     8     1    1
     8     9     8    3
     9    10     1    1
    10    11    10    3
    11    12     1    1
    12    13    12    3
    13    14    15    1
    14    15    16   ar
    15    16    17    1
    16    18    16   ar
    17    19    18    1
    18    20    18   ar
    19    21    20    1
    20    22    20   ar
    21    23    22    1
    22    24    15   ar
    23    25    24    1
    24    26    14    1
    25    27    26   ar
    26    28    27    1
    27    29    27   ar
    28    30    29    1
    29    31    29   ar
    30    32    31    1
    31    33    31   ar
    32    34    33    1
    33    35    26   ar
    34    36    35    1
    35    37    14    1
    36    38    37   ar
    37    39    38    1
    38    40    38   ar
    39    41    40    1
    40    42    40   ar
    41    43    42    1
    42    44    42   ar
    43    45    44    1
    44    46    37   ar
    45    47    46    1
    46    48    14    1
    47    49    48   ar
    48    50    49    1
    49    51    49   ar
    50    52    51    1
    51    53    51   ar
    52    54    53    1
    53    55    53   ar
    54    56    55    1
    55    57    48   ar
    56    58    57    1
    57    22    24   ar
    58    33    35   ar
    59    44    46   ar
    60    55    57   ar
    61    59    60    1
    62    60    61   ar
    63    61    62    1
    64    63    61   ar
    65    64    63    1
    66    65    63   ar
    67    66    65    1
    68    67    65   ar
    69    68    67    1
    70    69    60   ar
    71    70    69    1
    72    71    59    1
    73    72    71   ar
    74    73    72    1
    75    74    72   ar
    76    75    74    1
    77    76    74   ar
    78    77    76    1
    79    78    76   ar
    80    79    78    1
    81    80    71   ar
    82    81    80    1
    83    82    59    1
    84    83    82   ar
    85    84    83    1
    86    85    83   ar
    87    86    85    1
    88    87    85   ar
    89    88    87    1
    90    89    87   ar
    91    90    89    1
    92    91    82   ar
    93    92    91    1
    94    93    59    1
    95    94    93   ar
    96    95    94    1
    97    96    94   ar
    98    97    96    1
    99    98    96   ar
   100    99    98    1
   101   100    98   ar
   102   101   100    1
   103   102    93   ar
   104   103   102    1
   105    67    69   ar
   106    78    80   ar
   107    89    91   ar
   108   100   102   ar
@<TRIPOS>SUBSTRUCTURE
     1 RES1        1 GROUP             0 ****  ****    0  
     2 RES2       14 GROUP             0 ****  ****    0  
     3 RES3       59 GROUP             0 ****  ****    0  
@<TRIPOS>CRYSIN
    9.0760   21.3800   23.7480   90.0000   82.9970   90.0000   231     1
