@<TRIPOS>MOLECULE
UCAJER
    82    89     2     0     0
SMALL
NO_CHARGES
****
Generated from the CSD

@<TRIPOS>ATOM
     1 Fe1      5.6138   4.0061   6.6699   Fe        1 RES1   0.0000
     2 N1       4.1091   5.5131   6.6617   N.2       1 RES1   0.0000
     3 C1       3.0090   5.8775   6.5713   C.1       1 RES1   0.0000
     4 S1       1.4489   6.3587   6.4920   S.2       1 RES1   0.0000
     5 N2       7.1259   5.4538   6.6945   N.2       1 RES1   0.0000
     6 C2       8.1285   6.0188   6.6447   C.1       1 RES1   0.0000
     7 S2       9.5372   6.8128   6.5563   S.2       1 RES1   0.0000
     8 N3       5.8404   2.7603  13.1090   N.ar      1 RES1   0.0000
     9 C3       6.1135   2.2698  11.9117   C.ar      1 RES1   0.0000
    10 C4       6.7174   1.0504  11.6613   C.ar      1 RES1   0.0000
    11 H1       6.8756   0.7445  10.7757   H         1 RES1   0.0000
    12 C5       7.0811   0.2963  12.7729   C.ar      1 RES1   0.0000
    13 H2       7.5060  -0.5452  12.6565   H         1 RES1   0.0000
    14 C6       6.8242   0.7717  14.0575   C.ar      1 RES1   0.0000
    15 H3       7.0546   0.2730  14.8324   H         1 RES1   0.0000
    16 C7       6.2130   2.0138  14.1414   C.ar      1 RES1   0.0000
    17 N4       5.7302   3.1424  10.8473   N.pl3     1 RES1   0.0000
    18 N5       5.9531   2.8045   9.5620   N.2       1 RES1   0.0000
    19 N6       5.5370   3.8271   8.8456   N.2       1 RES1   0.0000
    20 C8       5.0560   4.7969   9.6675   C.2       1 RES1   0.0000
    21 H4       4.6967   5.6316   9.3898   H         1 RES1   0.0000
    22 C9       5.1770   4.3732  10.9521   C.2       1 RES1   0.0000
    23 H5       4.9294   4.8352  11.7447   H         1 RES1   0.0000
    24 N7       5.9249   2.6078  15.4113   N.pl3     1 RES1   0.0000
    25 N8       5.8510   1.8562  16.5285   N.2       1 RES1   0.0000
    26 N9       5.5767   2.6746  17.5077   N.2       1 RES1   0.0000
    27 C10      5.4955   3.9507  17.0174   C.2       1 RES1   0.0000
    28 H6       5.3338   4.7335  17.5305   H         1 RES1   0.0000
    29 C11      5.6861   3.9091  15.6751   C.2       1 RES1   0.0000
    30 H7       5.6572   4.6324  15.0596   H         1 RES1   0.0000
    31 N10      5.7404   2.6683   0.2692   N.ar      1 RES1   0.0000
    32 C12      6.0007   2.2042   1.4852   C.ar      1 RES1   0.0000
    33 C13      6.5681   0.9748   1.7775   C.ar      1 RES1   0.0000
    34 H8       6.7075   0.6845   2.6712   H         1 RES1   0.0000
    35 C14      6.9207   0.1892   0.6816   C.ar      1 RES1   0.0000
    36 H9       7.3399  -0.6520   0.8187   H         1 RES1   0.0000
    37 C15      6.6634   0.6280  -0.6004   C.ar      1 RES1   0.0000
    38 H10      6.8793   0.0954  -1.3574   H         1 RES1   0.0000
    39 C16      6.0811   1.8688  -0.7406   C.ar      1 RES1   0.0000
    40 N11      5.6245   3.1033   2.5254   N.pl3     1 RES1   0.0000
    41 N12      5.9334   2.8448   3.8097   N.2       1 RES1   0.0000
    42 N13      5.4914   3.8738   4.4961   N.2       1 RES1   0.0000
    43 C17      4.8976   4.7628   3.6664   C.2       1 RES1   0.0000
    44 H11      4.4899   5.5816   3.9256   H         1 RES1   0.0000
    45 C18      4.9849   4.2811   2.3989   C.2       1 RES1   0.0000
    46 H12      4.6653   4.6852   1.6011   H         1 RES1   0.0000
    47 N14      5.8037   2.4363  -2.0279   N.pl3     1 RES1   0.0000
    48 N15      6.3305   1.8688  -3.1369   N.2       1 RES1   0.0000
    49 N16      5.9392   2.6279  -4.1462   N.2       1 RES1   0.0000
    50 C19      5.1772   3.6544  -3.6782   C.2       1 RES1   0.0000
    51 H13      4.7719   4.3304  -4.2074   H         1 RES1   0.0000
    52 C20      5.0939   3.5472  -2.3241   C.2       1 RES1   0.0000
    53 H14      4.6389   4.1246  -1.7223   H         1 RES1   0.0000
    54 O1       7.1410   2.4666   6.6219   O.3       1 RES1   0.0000
    55 H15      7.5727   2.3833   5.8726   H         1 RES1   0.0000
    56 H16      7.7541   2.5598   7.2621   H         1 RES1   0.0000
    57 O2       4.0216   2.5694   6.6307   O.3       1 RES1   0.0000
    58 H17      3.5097   2.5724   7.3408   H         1 RES1   0.0000
    59 H18      3.5176   2.5977   5.9250   H         1 RES1   0.0000
    60 N17      2.0398   2.3716  -0.0755   N.ar      2 RES2   0.0000
    61 C21      2.3791   1.6973   1.0251   C.ar      2 RES2   0.0000
    62 C22      2.8726   0.4060   1.0356   C.ar      2 RES2   0.0000
    63 H19      3.0955  -0.0301   1.8490   H         2 RES2   0.0000
    64 C23      3.0301  -0.2257  -0.1888   C.ar      2 RES2   0.0000
    65 H20      3.3688  -1.1129  -0.2282   H         2 RES2   0.0000
    66 C24      2.6880   0.4439  -1.3594   C.ar      2 RES2   0.0000
    67 H21      2.7862   0.0379  -2.2119   H         2 RES2   0.0000
    68 C25      2.2003   1.7238  -1.2230   C.ar      2 RES2   0.0000
    69 N18      2.1719   2.4060   2.2400   N.pl3     2 RES2   0.0000
    70 N19      2.7177   1.9394   3.3895   N.2       2 RES2   0.0000
    71 N20      2.3500   2.7729   4.3310   N.2       2 RES2   0.0000
    72 C26      1.5790   3.7477   3.8028   C.2       2 RES2   0.0000
    73 H22      1.1826   4.4633   4.2862   H         2 RES2   0.0000
    74 C27      1.4621   3.5358   2.4565   C.2       2 RES2   0.0000
    75 H23      0.9918   4.0613   1.8206   H         2 RES2   0.0000
    76 N21      1.8193   2.4779  -2.3716   N.pl3     2 RES2   0.0000
    77 N22      1.5838   1.8524  -3.5528   N.2       2 RES2   0.0000
    78 N23      1.2472   2.7818  -4.4031   N.2       2 RES2   0.0000
    79 C28      1.2705   3.9885  -3.7831   C.2       2 RES2   0.0000
    80 H24      1.0707   4.8225  -4.1908   H         2 RES2   0.0000
    81 C29      1.6233   3.8107  -2.4841   C.2       2 RES2   0.0000
    82 H25      1.7130   4.4718  -1.8077   H         2 RES2   0.0000
@<TRIPOS>BOND
     1     1     2    1
     2     2     3    2
     3     3     4    2
     4     5     1    1
     5     6     5    2
     6     7     6    2
     7     8     9   ar
     8     9    10   ar
     9    10    11    1
    10    12    10   ar
    11    13    12    1
    12    14    12   ar
    13    15    14    1
    14    16     8   ar
    15    17     9    1
    16    18    17    1
    17    19     1    1
    18    20    19    1
    19    21    20    1
    20    22    17    1
    21    23    22    1
    22    24    16    1
    23    25    24    1
    24    26    25    2
    25    27    26    1
    26    28    27    1
    27    29    24    1
    28    30    29    1
    29    31    32   ar
    30    32    33   ar
    31    33    34    1
    32    35    33   ar
    33    36    35    1
    34    37    35   ar
    35    38    37    1
    36    39    31   ar
    37    40    32    1
    38    41    40    1
    39    42     1    1
    40    43    42    1
    41    44    43    1
    42    45    40    1
    43    46    45    1
    44    47    39    1
    45    48    47    1
    46    49    48    2
    47    50    49    1
    48    51    50    1
    49    52    47    1
    50    53    52    1
    51    54     1    1
    52    55    54    1
    53    56    54    1
    54    57     1    1
    55    58    57    1
    56    59    57    1
    57    14    16   ar
    58    18    19    2
    59    20    22    2
    60    27    29    2
    61    37    39   ar
    62    41    42    2
    63    43    45    2
    64    50    52    2
    65    60    61   ar
    66    61    62   ar
    67    62    63    1
    68    64    62   ar
    69    65    64    1
    70    66    64   ar
    71    67    66    1
    72    68    60   ar
    73    69    61    1
    74    70    69    1
    75    71    70    2
    76    72    71    1
    77    73    72    1
    78    74    69    1
    79    75    74    1
    80    76    68    1
    81    77    76    1
    82    78    77    2
    83    79    78    1
    84    80    79    1
    85    81    76    1
    86    82    81    1
    87    66    68   ar
    88    72    74    2
    89    79    81    2
@<TRIPOS>SUBSTRUCTURE
     1 RES1        1 GROUP             0 ****  ****    0  
     2 RES2       60 GROUP             0 ****  ****    0  
@<TRIPOS>CRYSIN
   11.3830   12.6100   13.5808   90.0000  105.1550   90.0000     7     1
