@<TRIPOS>MOLECULE
UCIVIL
    79    86     1     0     0
SMALL
NO_CHARGES
****
Generated from the CSD

@<TRIPOS>ATOM
     1 Fe1      5.1978   3.2702   0.0000   Fe        1 RES1   0.0000
     2 S1       8.2288   5.4225  -2.9366   S.2       1 RES1   0.0000
     3 N1       6.8753   4.3429  -0.7551   N.2       1 RES1   0.0000
     4 N2       5.6072   4.2513   4.2104   N.pl3     1 RES1   0.0000
     5 N3       6.8824   4.6058   3.8637   N.2       1 RES1   0.0000
     6 N4       5.7031   3.9570   2.0395   N.2       1 RES1   0.0000
     7 N5       8.1292   0.2996   1.0230   N.pl3     1 RES1   0.0000
     8 N6       7.1287  -0.5703   0.7420   N.2       1 RES1   0.0000
     9 N7       6.4625   1.5318   0.3231   N.2       1 RES1   0.0000
    10 C1       7.4557   4.8112  -1.6442   C.1       1 RES1   0.0000
    11 C2       6.8780   4.4201   2.5662   C.2       1 RES1   0.0000
    12 C3       4.9356   3.8746   3.1112   C.2       1 RES1   0.0000
    13 C4       5.1327   4.4070   5.5552   C.ar      1 RES1   0.0000
    14 C5       3.8899   3.9465   5.8861   C.ar      1 RES1   0.0000
    15 C6       3.4185   4.1650   7.1705   C.ar      1 RES1   0.0000
    16 C7       4.1832   4.8151   8.0859   C.ar      1 RES1   0.0000
    17 C8       5.4406   5.2350   7.7510   C.ar      1 RES1   0.0000
    18 C9       5.9349   5.0283   6.4745   C.ar      1 RES1   0.0000
    19 C10      6.1678   0.2263   0.3375   C.2       1 RES1   0.0000
    20 C11      7.7079   1.5252   0.7591   C.2       1 RES1   0.0000
    21 C12      9.3764  -0.1517   1.5523   C.ar      1 RES1   0.0000
    22 C13      9.6126  -1.4755   1.6849   C.ar      1 RES1   0.0000
    23 C14     10.8316  -1.8981   2.1971   C.ar      1 RES1   0.0000
    24 C15     11.7647  -0.9758   2.5491   C.ar      1 RES1   0.0000
    25 C16     11.5354   0.3440   2.4151   C.ar      1 RES1   0.0000
    26 C17     10.3205   0.7613   1.9069   C.ar      1 RES1   0.0000
    27 H1       7.6407   4.5963   2.0271   H         1 RES1   0.0000
    28 H2       4.0303   3.5865   3.1055   H         1 RES1   0.0000
    29 H3       3.3589   3.4862   5.2475   H         1 RES1   0.0000
    30 H4       2.5539   3.8571   7.4127   H         1 RES1   0.0000
    31 H5       3.8434   4.9772   8.9583   H         1 RES1   0.0000
    32 H6       5.9786   5.6718   8.4003   H         1 RES1   0.0000
    33 H7       6.8107   5.3106   6.2423   H         1 RES1   0.0000
    34 H8       5.3171  -0.1020   0.0718   H         1 RES1   0.0000
    35 H9       8.2388   2.3055   0.8704   H         1 RES1   0.0000
    36 H10      8.9524  -2.1097   1.4292   H         1 RES1   0.0000
    37 H11     11.0112  -2.8258   2.3018   H         1 RES1   0.0000
    38 H12     12.5985  -1.2690   2.8975   H         1 RES1   0.0000
    39 H13     12.1962   0.9773   2.6674   H         1 RES1   0.0000
    40 H14     10.1440   1.6893   1.8046   H         1 RES1   0.0000
    41 N1F      3.5202   2.1976   0.7551   N.2       1 RES1   0.0000
    42 C1F      2.9398   1.7293   1.6442   C.1       1 RES1   0.0000
    43 S1F      2.1667   1.1180   2.9366   S.2       1 RES1   0.0000
    44 N4F      4.6924   2.5835  -2.0395   N.2       1 RES1   0.0000
    45 C2F      3.5175   2.1204  -2.5662   C.2       1 RES1   0.0000
    46 N3F      3.5131   1.9347  -3.8637   N.2       1 RES1   0.0000
    47 N2F      4.7883   2.2892  -4.2104   N.pl3     1 RES1   0.0000
    48 C3F      5.4599   2.6659  -3.1112   C.2       1 RES1   0.0000
    49 H2F      6.3652   2.9540  -3.1055   H         1 RES1   0.0000
    50 C4F      5.2628   2.1335  -5.5552   C.ar      1 RES1   0.0000
    51 C5F      6.5056   2.5940  -5.8861   C.ar      1 RES1   0.0000
    52 C6F      6.9770   2.3755  -7.1705   C.ar      1 RES1   0.0000
    53 C7F      6.2123   1.7254  -8.0859   C.ar      1 RES1   0.0000
    54 C8F      4.9549   1.3055  -7.7510   C.ar      1 RES1   0.0000
    55 C9F      4.4606   1.5122  -6.4745   C.ar      1 RES1   0.0000
    56 H7F      3.5848   1.2299  -6.2423   H         1 RES1   0.0000
    57 H6F      4.4169   0.8687  -8.4003   H         1 RES1   0.0000
    58 H5F      6.5521   1.5633  -8.9583   H         1 RES1   0.0000
    59 H4F      7.8416   2.6834  -7.4127   H         1 RES1   0.0000
    60 H3F      7.0366   3.0543  -5.2475   H         1 RES1   0.0000
    61 H1F      2.7548   1.9442  -2.0271   H         1 RES1   0.0000
    62 N7F      3.9330   5.0087  -0.3231   N.2       1 RES1   0.0000
    63 C10F     4.2277   6.3142  -0.3375   C.2       1 RES1   0.0000
    64 N6F      3.2668   7.1108  -0.7420   N.2       1 RES1   0.0000
    65 N5F      2.2663   6.2409  -1.0230   N.pl3     1 RES1   0.0000
    66 C11F     2.6876   5.0153  -0.7591   C.2       1 RES1   0.0000
    67 H9F      2.1567   4.2350  -0.8704   H         1 RES1   0.0000
    68 C12F     1.0191   6.6922  -1.5523   C.ar      1 RES1   0.0000
    69 C13F     0.7829   8.0160  -1.6849   C.ar      1 RES1   0.0000
    70 C14F    -0.4361   8.4386  -2.1971   C.ar      1 RES1   0.0000
    71 C15F    -1.3692   7.5163  -2.5491   C.ar      1 RES1   0.0000
    72 C16F    -1.1399   6.1965  -2.4151   C.ar      1 RES1   0.0000
    73 C17F     0.0750   5.7792  -1.9069   C.ar      1 RES1   0.0000
    74 H14F     0.2515   4.8512  -1.8046   H         1 RES1   0.0000
    75 H13F    -1.8007   5.5632  -2.6674   H         1 RES1   0.0000
    76 H12F    -2.2030   7.8095  -2.8975   H         1 RES1   0.0000
    77 H11F    -0.6157   9.3663  -2.3018   H         1 RES1   0.0000
    78 H10F     1.4431   8.6502  -1.4292   H         1 RES1   0.0000
    79 H8F      5.0784   6.6425  -0.0718   H         1 RES1   0.0000
@<TRIPOS>BOND
     1     1     3    1
     2     2    10    2
     3     3    10    2
     4     4     5    1
     5     5    11    2
     6     6     1    1
     7     7     8    1
     8     8    19    2
     9     9     1    1
    10    11     6    1
    11    12     4    1
    12    13     4    1
    13    14    13   ar
    14    15    14   ar
    15    16    15   ar
    16    17    16   ar
    17    18    13   ar
    18    19     9    1
    19    20     7    1
    20    21     7    1
    21    22    21   ar
    22    23    22   ar
    23    24    23   ar
    24    25    24   ar
    25    26    21   ar
    26    27    11    1
    27    28    12    1
    28    29    14    1
    29    30    15    1
    30    31    16    1
    31    32    17    1
    32    33    18    1
    33    34    19    1
    34    35    20    1
    35    36    22    1
    36    37    23    1
    37    38    24    1
    38    39    25    1
    39    40    26    1
    40    41     1    1
    41    42    41    2
    42    43    42    2
    43    44     1    1
    44    45    44    1
    45    46    45    2
    46    47    46    1
    47    48    44    2
    48    49    48    1
    49    50    47    1
    50    51    50   ar
    51    52    51   ar
    52    53    52   ar
    53    54    53   ar
    54    55    50   ar
    55    56    55    1
    56    57    54    1
    57    58    53    1
    58    59    52    1
    59    60    51    1
    60    61    45    1
    61    62     1    1
    62    63    62    1
    63    64    63    2
    64    65    64    1
    65    66    62    2
    66    67    66    1
    67    68    65    1
    68    69    68   ar
    69    70    69   ar
    70    71    70   ar
    71    72    71   ar
    72    73    68   ar
    73    74    73    1
    74    75    72    1
    75    76    71    1
    76    77    70    1
    77    78    69    1
    78    79    63    1
    79     6    12    2
    80     9    20    2
    81    17    18   ar
    82    25    26   ar
    83    47    48    1
    84    54    55   ar
    85    65    66    1
    86    72    73   ar
@<TRIPOS>SUBSTRUCTURE
     1 RES1        1 GROUP             0 ****  ****    0  
@<TRIPOS>CRYSIN
   20.7910   13.0810   14.9170   90.0000  118.3100   90.0000    15     1
