@<TRIPOS>MOLECULE
UDENUN
   115   118     6     0     0
SMALL
USER_CHARGES
****
Generated from the CSD

@<TRIPOS>ATOM
     1 C1       0.2935  20.2957   2.7749   C.3       1 RES1   0.0000
     2 H1      -0.5943  20.2055   3.2050   H         1 RES1   0.0000
     3 H2       0.8656  19.5544   3.0946   H         1 RES1   0.0000
     4 C2       0.1372  20.1967   1.2808   C.3       1 RES1   0.0000
     5 H3      -0.1557  19.2839   1.0372   H         1 RES1   0.0000
     6 H4      -0.5565  20.8346   0.9763   H         1 RES1   0.0000
     7 C3       1.4349  20.5069   0.5938   C.3       1 RES1   0.0000
     8 H5       2.0967  19.7942   0.7879   H         1 RES1   0.0000
     9 H6       1.2980  20.5443  -0.3863   H         1 RES1   0.0000
    10 C4       1.6437  22.1896   2.3105   C.2       1 RES1   0.0000
    11 C5       2.1701  23.4961   2.8129   C.2       1 RES1   0.0000
    12 C6       3.3367  25.6011   2.4570   C.3       1 RES1   0.0000
    13 H7       2.6922  26.3138   2.2210   H         1 RES1   0.0000
    14 H8       4.2012  25.8013   2.0174   H         1 RES1   0.0000
    15 C7       3.5136  25.5396   3.9320   C.3       1 RES1   0.0000
    16 H9       3.7278  26.4436   4.2727   H         1 RES1   0.0000
    17 H10      4.2762  24.9457   4.1433   H         1 RES1   0.0000
    18 C8       2.2681  25.0248   4.6286   C.3       1 RES1   0.0000
    19 H11      2.4445  24.9281   5.5973   H         1 RES1   0.0000
    20 H12      1.5288  25.6715   4.5106   H         1 RES1   0.0000
    21 C9       3.8281  21.5825   5.0225   C.3       1 RES1   0.0000
    22 H13      3.9944  22.5305   5.2452   H         1 RES1   0.0000
    23 H14      3.9706  21.4659   4.0500   H         1 RES1   0.0000
    24 C10      4.8052  20.7026   5.7876   C.3       1 RES1   0.0000
    25 H15      5.7270  20.8808   5.4755   H         1 RES1   0.0000
    26 H16      4.7586  20.9160   6.7525   H         1 RES1   0.0000
    27 C11      4.4695  19.2553   5.5726   C.3       1 RES1   0.0000
    28 H17      4.6192  19.0089   4.6267   H         1 RES1   0.0000
    29 H18      5.0497  18.6856   6.1378   H         1 RES1   0.0000
    30 C12      2.1811  20.0384   5.7952   C.2       1 RES1   0.0000
    31 C13      0.7457  19.8272   6.1530   C.2       1 RES1   0.0000
    32 C14     -1.0098  18.5448   7.2816   C.3       1 RES1   0.0000
    33 H19     -1.0076  18.1225   8.1780   H         1 RES1   0.0000
    34 H20     -1.4995  17.9487   6.6593   H         1 RES1   0.0000
    35 C15     -1.6916  19.8844   7.3501   C.3       1 RES1   0.0000
    36 H21     -1.3356  20.3947   8.1190   H         1 RES1   0.0000
    37 H22     -2.6623  19.7524   7.4929   H         1 RES1   0.0000
    38 C16     -1.4721  20.6696   6.0807   C.3       1 RES1   0.0000
    39 H23     -1.9344  20.2187   5.3289   H         1 RES1   0.0000
    40 H24     -1.8618  21.5737   6.1816   H         1 RES1   0.0000
    41 C17      1.6347  22.8209   7.8868   C.3       1 RES1   0.0000
    42 H25      2.5761  22.7285   7.5956   H         1 RES1   0.0000
    43 H26      1.3384  21.9476   8.2484   H         1 RES1   0.0000
    44 C18      1.5455  23.8745   8.9793   C.3       1 RES1   0.0000
    45 H27      1.9770  24.7103   8.6710   H         1 RES1   0.0000
    46 H28      2.0257  23.5577   9.7862   H         1 RES1   0.0000
    47 C19      0.0906  24.1494   9.3276   C.3       1 RES1   0.0000
    48 H29     -0.3134  23.3532   9.7558   H         1 RES1   0.0000
    49 H30      0.0310  24.9083   9.9594   H         1 RES1   0.0000
    50 C20     -0.2301  23.9536   6.9276   C.2       1 RES1   0.0000
    51 C21     -1.0074  24.2389   5.6791   C.2       1 RES1   0.0000
    52 C22     -2.6442  25.5440   4.4573   C.3       1 RES1   0.0000
    53 H31     -2.1954  26.2346   3.9092   H         1 RES1   0.0000
    54 H32     -3.5344  25.8871   4.7218   H         1 RES1   0.0000
    55 C23     -2.7990  24.2704   3.6560   C.3       1 RES1   0.0000
    56 H33     -3.2215  24.4749   2.7844   H         1 RES1   0.0000
    57 H34     -3.3871  23.6413   4.1433   H         1 RES1   0.0000
    58 C24     -1.4379  23.6215   3.4257   C.3       1 RES1   0.0000
    59 H35     -1.5601  22.7483   2.9785   H         1 RES1   0.0000
    60 H36     -0.8951  24.1978   2.8300   H         1 RES1   0.0000
    61 N1       0.8914  21.5686   3.1618   N.2       1 RES1   0.0000
    62 N2       1.9281  21.7848   1.0747   N.pl3     1 RES1   0.0000
    63 H50      2.4161  22.2929   0.5481   H         1 RES1   0.0000
    64 N3       1.8858  23.7324   4.0643   N.2       1 RES1   0.0000
    65 N4       2.8380  24.3102   2.0098   N.pl3     1 RES1   0.0000
    66 H51      2.9850  24.0614   1.1781   H         1 RES1   0.0000
    67 N5       2.4387  21.2356   5.3583   N.2       1 RES1   0.0000
    68 N6      -0.0370  20.7871   5.7722   N.2       1 RES1   0.0000
    69 N7       3.0588  19.0463   5.9304   N.pl3     1 RES1   0.0000
    70 H52      2.7931  18.2633   6.2330   H         1 RES1   0.0000
    71 N8       0.3808  18.7274   6.8096   N.pl3     1 RES1   0.0000
    72 H53      0.9769  18.0983   6.9657   H         1 RES1   0.0000
    73 N9       0.7968  23.1811   6.7303   N.2       1 RES1   0.0000
    74 N10     -0.6223  24.4708   8.0871   N.pl3     1 RES1   0.0000
    75 H54     -1.3159  25.0117   8.1114   H         1 RES1   0.0000
    76 N11     -0.7315  23.4279   4.7003   N.2       1 RES1   0.0000
    77 N12     -1.8473  25.2587   5.6468   N.pl3     1 RES1   0.0000
    78 H55     -1.9278  25.7749   6.3548   H         1 RES1   0.0000
    79 Fe1      0.8646  22.3317   4.9658   Fe        1 RES1   3.0000
    80 C25      7.8055  16.9083   1.9317   C.3       2 RES2   0.0000
    81 H37      8.2583  16.0417   1.8880   H         2 RES2   0.0000
    82 H38      8.3620  17.5902   1.4997   H         2 RES2   0.0000
    83 H39      6.9427  16.8511   1.4712   H         2 RES2   0.0000
    84 C26      7.6074  17.2405   3.2069   C.1       2 RES2   0.0000
    85 N13      7.3887  17.5066   4.3735   N.1       2 RES2   0.0000
    86 C27      0.8387   5.7849   6.5584   C.3       3 RES3   0.0000
    87 H40      1.4324   5.9389   7.3235   H         3 RES3   0.0000
    88 H41      1.1701   6.2799   5.7819   H         3 RES3   0.0000
    89 H42      0.8166   4.8259   6.3491   H         3 RES3   0.0000
    90 C28     -0.2535   6.1545   6.8268   C.3       3 RES3   0.0000
    91 H43     -0.5594   6.5592   5.9760   H         3 RES3   0.0000
    92 H44     -0.0806   6.9221   7.4282   H         3 RES3   0.0000
    93 C29     -1.1783   6.1611   8.4616   C.3       3 RES3   0.0000
    94 H45     -1.3622   7.1311   8.3645   H         3 RES3   0.0000
    95 H46     -0.2053   6.0709   8.6196   H         3 RES3   0.0000
    96 C30     -1.8123   5.7454   9.6092   C.3       3 RES3   0.0000
    97 H47     -2.7619   5.5870   9.4170   H         3 RES3   0.0000
    98 H48     -1.7305   6.4360  10.2982   H         3 RES3   0.0000
    99 H49     -1.4012   4.9139   9.9271   H         3 RES3   0.0000
   100 O13     -1.4276   5.6222   7.3482   O.3       3 RES3   0.0000
   101 O1       6.5539  19.9240   0.7860   O.3       4 RES4  -1.0000
   102 O2       6.6310  20.6916   2.9989   O.2       4 RES4   0.0000
   103 O3       6.0889  22.1214   1.2485   O.2       4 RES4   0.0000
   104 O4       4.5949  20.4255   1.9243   O.2       4 RES4   0.0000
   105 Cl1      5.9460  20.7983   1.7563   Cl        4 RES4   0.0000
   106 O5       6.4937   0.9342   7.5366   O.3       5 RES5  -1.0000
   107 O6       6.4338   3.0918   8.4005   O.2       5 RES5   0.0000
   108 O7       4.8274   2.4328   6.8342   O.2       5 RES5   0.0000
   109 O8       4.7741   1.4979   8.9621   O.2       5 RES5   0.0000
   110 Cl2      5.6226   1.9807   7.9268   Cl        5 RES5   0.0000
   111 O9      -0.1785   3.9109   1.0810   O.3       6 RES6  -1.0000
   112 O10      0.0553   5.2553   2.9081   O.2       6 RES6   0.0000
   113 O11      0.4803   6.0995   0.8583   O.2       6 RES6   0.0000
   114 O12     -1.6270   5.6376   1.4236   O.2       6 RES6   0.0000
   115 Cl3     -0.3000   5.1790   1.4858   Cl        6 RES6   0.0000
@<TRIPOS>BOND
     1     1     2    1
     2     3     1    1
     3     4     1    1
     4     5     4    1
     5     6     4    1
     6     7     4    1
     7     8     7    1
     8     9     7    1
     9    10    11    1
    10    11    64    2
    11    12    13    1
    12    14    12    1
    13    15    12    1
    14    16    15    1
    15    17    15    1
    16    18    15    1
    17    19    18    1
    18    20    18    1
    19    21    22    1
    20    23    21    1
    21    24    21    1
    22    25    24    1
    23    26    24    1
    24    27    24    1
    25    28    27    1
    26    29    27    1
    27    30    31    1
    28    31    68    2
    29    32    33    1
    30    34    32    1
    31    35    32    1
    32    36    35    1
    33    37    35    1
    34    38    35    1
    35    39    38    1
    36    40    38    1
    37    41    42    1
    38    43    41    1
    39    44    41    1
    40    45    44    1
    41    46    44    1
    42    47    44    1
    43    48    47    1
    44    49    47    1
    45    50    51    1
    46    51    76    2
    47    52    53    1
    48    54    52    1
    49    55    52    1
    50    56    55    1
    51    57    55    1
    52    58    55    1
    53    59    58    1
    54    60    58    1
    55    61     1    1
    56    62     7    1
    57    63    62    1
    58    64    18    1
    59    65    11    1
    60    66    65    1
    61    67    21    1
    62    68    38    1
    63    69    27    1
    64    70    69    1
    65    71    31    1
    66    72    71    1
    67    73    41    1
    68    74    47    1
    69    75    74    1
    70    76    58    1
    71    77    51    1
    72    78    77    1
    73    79    61    1
    74    10    61    2
    75    10    62    1
    76    12    65    1
    77    30    67    2
    78    30    69    1
    79    32    71    1
    80    50    73    2
    81    50    74    1
    82    52    77    1
    83    64    79    1
    84    67    79    1
    85    68    79    1
    86    73    79    1
    87    76    79    1
    88    80    81    1
    89    82    80    1
    90    83    80    1
    91    84    80    1
    92    85    84    3
    93    86    87    1
    94    88    86    1
    95    89    86    1
    96    90    86    1
    97    91    90    1
    98    92    90    1
    99    93    94    1
   100    95    93    1
   101    96    93    1
   102    97    96    1
   103    98    96    1
   104    99    96    1
   105   100    90    1
   106    93   100    1
   107   101   105    1
   108   102   105    2
   109   103   105    2
   110   104   105    2
   111   106   110    1
   112   107   110    2
   113   108   110    2
   114   109   110    2
   115   111   115    1
   116   112   115    2
   117   113   115    2
   118   114   115    2
@<TRIPOS>SUBSTRUCTURE
     1 RES1        1 GROUP             0 ****  ****    0  
     2 RES2       80 GROUP             0 ****  ****    0  
     3 RES3       86 GROUP             0 ****  ****    0  
     4 RES4      101 GROUP             0 ****  ****    0  
     5 RES5      106 GROUP             0 ****  ****    0  
     6 RES6      111 GROUP             0 ****  ****    0  
@<TRIPOS>CRYSIN
    9.9060   21.9960   19.6150   90.0000  104.0050   90.0000   231     1
