@<TRIPOS>MOLECULE
UDIRAD
    88    90     7     0     0
SMALL
USER_CHARGES
****
Generated from the CSD

@<TRIPOS>ATOM
     1 Fe1     13.7165   3.9339  20.6246   Fe        1 RES1   2.0000
     2 N1      12.6174   2.4024  21.1918   N.ar      1 RES1   0.0000
     3 N2      14.7292   2.8782  19.3066   N.ar      1 RES1   0.0000
     4 C1      15.8384   2.1369  19.5163   C.ar      1 RES1   0.0000
     5 H1      16.1790   2.0929  20.3808   H         1 RES1   0.0000
     6 C2      11.5640   4.9295  22.4705   C.ar      1 RES1   0.0000
     7 H2      11.1576   4.0989  22.3652   H         1 RES1   0.0000
     8 N3      14.7868   3.3479  22.1673   N.ar      1 RES1   0.0000
     9 C3      14.2239   2.3950  22.9365   C.ar      1 RES1   0.0000
    10 N4      12.7286   5.1619  21.8203   N.ar      1 RES1   0.0000
    11 N5      12.6189   4.3179  19.0353   N.ar      1 RES1   0.0000
    12 N6      14.7844   5.5717  20.3454   N.ar      1 RES1   0.0000
    13 C4      14.8709   2.2813  16.9857   C.ar      1 RES1   0.0000
    14 H3      14.5202   2.3485  16.1262   H         1 RES1   0.0000
    15 C5      13.0669   3.7736  17.8726   C.ar      1 RES1   0.0000
    16 N7      10.5168   4.8108  15.4823   N.pl3     1 RES1   0.0000
    17 H4      10.8012   4.4476  14.7581   H         1 RES1   0.0000
    18 H5       9.7838   5.2598  15.4798   H         1 RES1   0.0000
    19 C6      12.4122   3.9595  16.6674   C.ar      1 RES1   0.0000
    20 H6      12.7687   3.6035  15.8857   H         1 RES1   0.0000
    21 C7      12.7926   7.3050  22.8864   C.ar      1 RES1   0.0000
    22 H7      13.2690   8.0841  23.0618   H         1 RES1   0.0000
    23 C8      14.2724   2.9455  18.0280   C.ar      1 RES1   0.0000
    24 N8      10.9679   8.0425  24.2495   N.pl3     1 RES1   0.0000
    25 H8      10.2070   7.8860  24.6178   H         1 RES1   0.0000
    26 H9      11.3547   8.8009  24.3697   H         1 RES1   0.0000
    27 C9      13.3132   6.3643  22.0320   C.ar      1 RES1   0.0000
    28 C10     12.9142   1.9094  22.4254   C.ar      1 RES1   0.0000
    29 C11     11.4948   1.9290  20.6288   C.ar      1 RES1   0.0000
    30 H10     11.2861   2.2152  19.7694   H         1 RES1   0.0000
    31 C12     10.9490   5.8506  23.2748   C.ar      1 RES1   0.0000
    32 N9      16.6318   0.8208  16.2089   N.pl3     1 RES1   0.0000
    33 H11     17.3289   0.3437  16.3693   H         1 RES1   0.0000
    34 H12     16.3178   0.8709  15.4096   H         1 RES1   0.0000
    35 C13     11.2200   4.6775  16.6223   C.ar      1 RES1   0.0000
    36 C14     16.0227   1.4960  17.2187   C.ar      1 RES1   0.0000
    37 C15     16.0232   3.7858  22.5256   C.ar      1 RES1   0.0000
    38 H13     16.4191   4.4549  22.0170   H         1 RES1   0.0000
    39 C16     15.7893   5.7723  19.4537   C.ar      1 RES1   0.0000
    40 H14     15.9902   5.0861  18.8599   H         1 RES1   0.0000
    41 C17     11.5535   7.1007  23.4903   C.ar      1 RES1   0.0000
    42 C18     16.5225   6.9319  19.3785   C.ar      1 RES1   0.0000
    43 H15     17.1931   7.0236  18.7371   H         1 RES1   0.0000
    44 C19     16.4940   1.4458  18.5366   C.ar      1 RES1   0.0000
    45 H16     17.2500   0.9455  18.7421   H         1 RES1   0.0000
    46 C20     12.1012   1.0544  23.1194   C.ar      1 RES1   0.0000
    47 H17     12.3287   0.7828  23.9789   H         1 RES1   0.0000
    48 C21     10.7426   5.2096  17.8376   C.ar      1 RES1   0.0000
    49 H18      9.9365   5.6769  17.8626   H         1 RES1   0.0000
    50 C22     16.7143   3.2880  23.5980   C.ar      1 RES1   0.0000
    51 H19     17.5676   3.6023  23.7884   H         1 RES1   0.0000
    52 C23     11.4738   5.0286  18.9876   C.ar      1 RES1   0.0000
    53 H20     11.1608   5.4163  19.7744   H         1 RES1   0.0000
    54 C24     10.9309   0.5957  22.5306   C.ar      1 RES1   0.0000
    55 C25     16.1283   2.3057  24.4098   C.ar      1 RES1   0.0000
    56 C26     14.5105   6.6028  21.1801   C.ar      1 RES1   0.0000
    57 C27     15.2093   7.7673  21.1876   C.ar      1 RES1   0.0000
    58 H21     14.9948   8.4340  21.8015   H         1 RES1   0.0000
    59 C28     10.6388   1.0556  21.2327   C.ar      1 RES1   0.0000
    60 H22      9.8697   0.7694  20.7942   H         1 RES1   0.0000
    61 C29     16.2579   7.9643  20.2680   C.ar      1 RES1   0.0000
    62 N10     10.1017  -0.2630  23.1796   N.pl3     1 RES1   0.0000
    63 H23     10.3010  -0.5333  23.9713   H         1 RES1   0.0000
    64 H24      9.3820  -0.5370  22.7962   H         1 RES1   0.0000
    65 C30     14.8443   1.8605  24.0565   C.ar      1 RES1   0.0000
    66 H25     14.4141   1.2146  24.5702   H         1 RES1   0.0000
    67 N11     16.8147   1.7834  25.4547   N.pl3     1 RES1   0.0000
    68 H26     17.6131   2.0550  25.6226   H         1 RES1   0.0000
    69 H27     16.4519   1.1816  25.9483   H         1 RES1   0.0000
    70 N12     16.9478   9.1287  20.2455   N.pl3     1 RES1   0.0000
    71 H28     17.5737   9.2449  19.6667   H         1 RES1   0.0000
    72 H29     16.7621   9.7501  20.8092   H         1 RES1   0.0000
    73 H30      9.9380   5.6879  23.7032   H         1 RES1   0.0000
    74 O1       8.7802   0.5896   3.3626   O.2       2 RES2   0.0000
    75 C31      9.5335   1.6941   3.2323   C.1       2 RES2   0.0000
    76 O2      10.3680   1.9424   4.1719   O.2       2 RES2   0.0000
    77 O3       4.8104   8.1808  12.1370   O.2       3 RES3   0.0000
    78 O4       3.0773   7.3698  13.2748   O.2       3 RES3   0.0000
    79 C32      4.2868   7.6682  13.1345   C.1       3 RES3   0.0000
    80 O5      21.1275  11.5128  15.5499   O.2       4 RES4   0.0000
    81 O6      19.3154  12.1329  16.6374   O.2       4 RES4   0.0000
    82 C33     20.1923  12.2601  15.7829   C.1       4 RES4   0.0000
    83 O7      -7.7963  10.4975  18.7922   O.3       5 RES5  -1.0000
    84 O8      10.0726  10.6541   2.4881   O.2       6 RES6   0.0000
    85 O9       8.6179   9.0272   2.6560   O.2       6 RES6   0.0000
    86 C34      9.7365   9.4920   2.5557   C.1       6 RES6   0.0000
    87 O10     24.7438   5.1130   1.0148   O.3       7 RES7  -1.0000
    88 H31     24.9709   5.0151   1.8041   H         7 RES7   0.0000
@<TRIPOS>BOND
     1     1     2    1
     2     2    28   ar
     3     3     1    1
     4     4     3   ar
     5     5     4    1
     6     6     7    1
     7     8     1    1
     8     9     8   ar
     9    10     1    1
    10    11     1    1
    11    12     1    1
    12    13    14    1
    13    15    11   ar
    14    16    17    1
    15    18    16    1
    16    19    15   ar
    17    20    19    1
    18    21    22    1
    19    23     3   ar
    20    24    25    1
    21    26    24    1
    22    27    10   ar
    23    28     9    1
    24    29     2   ar
    25    30    29    1
    26    31     6   ar
    27    32    33    1
    28    34    32    1
    29    35    16    1
    30    36    13   ar
    31    37     8   ar
    32    38    37    1
    33    39    12   ar
    34    40    39    1
    35    41    21   ar
    36    42    39   ar
    37    43    42    1
    38    44     4   ar
    39    45    44    1
    40    46    28   ar
    41    47    46    1
    42    48    35   ar
    43    49    48    1
    44    50    37   ar
    45    51    50    1
    46    52    11   ar
    47    53    52    1
    48    54    46   ar
    49    55    50   ar
    50    56    12   ar
    51    57    56   ar
    52    58    57    1
    53    59    29   ar
    54    60    59    1
    55    61    42   ar
    56    62    54    1
    57    63    62    1
    58    64    62    1
    59    65     9   ar
    60    66    65    1
    61    67    55    1
    62    68    67    1
    63    69    67    1
    64    70    61    1
    65    71    70    1
    66    72    70    1
    67    73    31    1
    68     6    10   ar
    69    13    23   ar
    70    15    23    1
    71    19    35   ar
    72    21    27   ar
    73    24    41    1
    74    27    56    1
    75    31    41   ar
    76    32    36    1
    77    36    44   ar
    78    48    52   ar
    79    54    59   ar
    80    55    65   ar
    81    57    61   ar
    82    74    75    2
    83    75    76    2
    84    77    79    2
    85    78    79    2
    86    80    82    2
    87    81    82    2
    88    84    86    2
    89    85    86    2
    90    87    88    1
@<TRIPOS>SUBSTRUCTURE
     1 RES1        1 GROUP             0 ****  ****    0  
     2 RES2       74 GROUP             0 ****  ****    0  
     3 RES3       77 GROUP             0 ****  ****    0  
     4 RES4       80 GROUP             0 ****  ****    0  
     5 RES5       83 GROUP             0 ****  ****    0  
     6 RES6       84 GROUP             0 ****  ****    0  
     7 RES7       87 GROUP             0 ****  ****    0  
@<TRIPOS>CRYSIN
   26.7910   12.2320   27.1270   90.0000  112.5320   90.0000    15     1
