@<TRIPOS>MOLECULE
UFABIN
    93    98     1     0     0
SMALL
USER_CHARGES
****
Generated from the CSD

@<TRIPOS>ATOM
     1 Fe1     -2.4958   3.8985  20.6276   Fe        1 RES1   0.0000
     2 N1      -1.6242   5.0447  22.1354   N.2       1 RES1   0.0000
     3 N2       0.7995   5.8961  19.5549   N.4       1 RES1   1.0000
     4 H1       0.8354   6.7849  19.4208   H         1 RES1   0.0000
     5 H2      -0.0440   5.6302  19.3837   H         1 RES1   0.0000
     6 N3      -4.2246   5.1257  20.8462   N.2       1 RES1   0.0000
     7 O1      -3.2439   2.6642  22.0570   O.3       1 RES1  -1.0000
     8 S1      -6.2180   6.4403  22.2819   S.2       1 RES1   0.0000
     9 C1      -1.4823   4.6291  23.3525   C.2       1 RES1   0.0000
    10 H3      -1.1233   5.2388  23.9568   H         1 RES1   0.0000
    11 C2      -1.8179   3.3262  23.8805   C.ar      1 RES1   0.0000
    12 C3      -2.6492   2.3984  23.2204   C.ar      1 RES1   0.0000
    13 C4      -2.8708   1.1766  23.8620   C.ar      1 RES1   0.0000
    14 H4      -3.3987   0.5349  23.4453   H         1 RES1   0.0000
    15 C5      -2.3363   0.9021  25.0810   C.ar      1 RES1   0.0000
    16 H5      -2.5004   0.0787  25.4812   H         1 RES1   0.0000
    17 C6      -1.5449   1.8370  25.7370   C.ar      1 RES1   0.0000
    18 H6      -1.1904   1.6530  26.5765   H         1 RES1   0.0000
    19 C7      -1.3053   3.0089  25.1367   C.ar      1 RES1   0.0000
    20 H7      -0.7745   3.6357  25.5740   H         1 RES1   0.0000
    21 C8      -1.1809   6.4239  21.8714   C.3       1 RES1   0.0000
    22 H8      -1.5662   7.0134  22.5397   H         1 RES1   0.0000
    23 H9      -1.5112   6.7023  21.0030   H         1 RES1   0.0000
    24 C9       0.3359   6.5659  21.8982   C.3       1 RES1   0.0000
    25 H10      0.5621   7.4765  21.6527   H         1 RES1   0.0000
    26 H11      0.6416   6.4255  22.8079   H         1 RES1   0.0000
    27 C10      1.0977   5.6209  20.9865   C.3       1 RES1   0.0000
    28 H12      2.0501   5.7207  21.1412   H         1 RES1   0.0000
    29 H13      0.8553   4.7055  21.1948   H         1 RES1   0.0000
    30 C11      1.7313   5.2201  18.5545   C.3       1 RES1   0.0000
    31 H14      1.8140   4.2743  18.8000   H         1 RES1   0.0000
    32 C12      3.1050   5.8587  18.6370   C.3       1 RES1   0.0000
    33 H15      3.4759   5.7261  19.5219   H         1 RES1   0.0000
    34 H16      3.0325   6.8130  18.4782   H         1 RES1   0.0000
    35 C13      4.0308   5.2279  17.5871   C.3       1 RES1   0.0000
    36 H17      4.8892   5.6793  17.6077   H         1 RES1   0.0000
    37 H18      4.1793   4.2961  17.8119   H         1 RES1   0.0000
    38 C14      3.4713   5.3144  16.2318   C.3       1 RES1   0.0000
    39 H19      4.0593   4.8583  15.6109   H         1 RES1   0.0000
    40 H20      3.4173   6.2454  15.9657   H         1 RES1   0.0000
    41 C15      2.1150   4.7032  16.1679   C.3       1 RES1   0.0000
    42 H21      2.1882   3.7480  16.3205   H         1 RES1   0.0000
    43 H22      1.7466   4.8373  15.2809   H         1 RES1   0.0000
    44 C16      1.1745   5.3012  17.1951   C.3       1 RES1   0.0000
    45 H23      1.0061   6.2298  16.9724   H         1 RES1   0.0000
    46 H24      0.3280   4.8287  17.1663   H         1 RES1   0.0000
    47 C17     -5.0323   5.6840  21.4341   C.1       1 RES1   0.0000
    48 N1B     -3.3675   2.7523  19.1197   N.2       1 RES1   0.0000
    49 N2B     -5.7912   1.9009  21.7002   N.4       1 RES1   1.0000
    50 H1B     -5.8271   1.0121  21.8343   H         1 RES1   0.0000
    51 H2B     -4.9477   2.1668  21.8714   H         1 RES1   0.0000
    52 N3B     -0.7671   2.6713  20.4089   N.2       1 RES1   0.0000
    53 O1B     -1.7478   5.1328  19.1981   O.3       1 RES1  -1.0000
    54 S1B      1.2263   1.3567  18.9732   S.2       1 RES1   0.0000
    55 C1B     -3.5094   3.1679  17.9027   C.2       1 RES1   0.0000
    56 H3B     -3.8684   2.5582  17.2983   H         1 RES1   0.0000
    57 C2B     -3.1738   4.4708  17.3746   C.ar      1 RES1   0.0000
    58 C3B     -2.3425   5.3986  18.0347   C.ar      1 RES1   0.0000
    59 C4B     -2.1209   6.6204  17.3932   C.ar      1 RES1   0.0000
    60 H4B     -1.5929   7.2621  17.8098   H         1 RES1   0.0000
    61 C5B     -2.6554   6.8949  16.1741   C.ar      1 RES1   0.0000
    62 H5B     -2.4913   7.7183  15.7739   H         1 RES1   0.0000
    63 C6B     -3.4468   5.9600  15.5181   C.ar      1 RES1   0.0000
    64 H6B     -3.8013   6.1440  14.6786   H         1 RES1   0.0000
    65 C7B     -3.6864   4.7881  16.1184   C.ar      1 RES1   0.0000
    66 H7B     -4.2172   4.1613  15.6811   H         1 RES1   0.0000
    67 C8B     -3.8108   1.3731  19.3837   C.3       1 RES1   0.0000
    68 H8B     -3.4255   0.7836  18.7154   H         1 RES1   0.0000
    69 H9B     -3.4805   1.0947  20.2521   H         1 RES1   0.0000
    70 C9B     -5.3276   1.2311  19.3569   C.3       1 RES1   0.0000
    71 H10B    -5.5537   0.3205  19.6024   H         1 RES1   0.0000
    72 H11B    -5.6333   1.3715  18.4472   H         1 RES1   0.0000
    73 C10B    -6.0894   2.1761  20.2686   C.3       1 RES1   0.0000
    74 H12B    -7.0418   2.0763  20.1139   H         1 RES1   0.0000
    75 H13B    -5.8470   3.0915  20.0603   H         1 RES1   0.0000
    76 C11B    -6.7230   2.5769  22.7006   C.3       1 RES1   0.0000
    77 H14B    -6.8057   3.5227  22.4552   H         1 RES1   0.0000
    78 C12B    -8.0967   1.9383  22.6181   C.3       1 RES1   0.0000
    79 H15B    -8.4675   2.0709  21.7332   H         1 RES1   0.0000
    80 H16B    -8.0242   0.9840  22.7769   H         1 RES1   0.0000
    81 C13B    -9.0225   2.5691  23.6681   C.3       1 RES1   0.0000
    82 H17B    -9.8809   2.1177  23.6474   H         1 RES1   0.0000
    83 H18B    -9.1709   3.5009  23.4432   H         1 RES1   0.0000
    84 C14B    -8.4630   2.4826  25.0233   C.3       1 RES1   0.0000
    85 H19B    -9.0510   2.9387  25.6442   H         1 RES1   0.0000
    86 H20B    -8.4090   1.5516  25.2894   H         1 RES1   0.0000
    87 C15B    -7.1067   3.0938  25.0872   C.3       1 RES1   0.0000
    88 H21B    -7.1799   4.0490  24.9346   H         1 RES1   0.0000
    89 H22B    -6.7383   2.9597  25.9742   H         1 RES1   0.0000
    90 C16B    -6.1662   2.4958  24.0600   C.3       1 RES1   0.0000
    91 H23B    -5.9978   1.5672  24.2828   H         1 RES1   0.0000
    92 H24B    -5.3197   2.9683  24.0889   H         1 RES1   0.0000
    93 C17B     0.0406   2.1130  19.8210   C.1       1 RES1   0.0000
@<TRIPOS>BOND
     1     1     2    1
     2     2     9    2
     3     3     4    1
     4     5     3    1
     5     6     1    1
     6     7     1    1
     7     8    47    2
     8     9    10    1
     9    11     9    1
    10    12     7    1
    11    13    12   ar
    12    14    13    1
    13    15    13   ar
    14    16    15    1
    15    17    15   ar
    16    18    17    1
    17    19    11   ar
    18    20    19    1
    19    21     2    1
    20    22    21    1
    21    23    21    1
    22    24    21    1
    23    25    24    1
    24    26    24    1
    25    27     3    1
    26    28    27    1
    27    29    27    1
    28    30     3    1
    29    31    30    1
    30    32    30    1
    31    33    32    1
    32    34    32    1
    33    35    32    1
    34    36    35    1
    35    37    35    1
    36    38    35    1
    37    39    38    1
    38    40    38    1
    39    41    38    1
    40    42    41    1
    41    43    41    1
    42    44    30    1
    43    45    44    1
    44    46    44    1
    45    47     6    2
    46    48     1    1
    47    49    50    1
    48    51    49    1
    49    52     1    1
    50    53     1    1
    51    54    93    2
    52    55    48    2
    53    56    55    1
    54    57    55    1
    55    58    53    1
    56    59    58   ar
    57    60    59    1
    58    61    59   ar
    59    62    61    1
    60    63    61   ar
    61    64    63    1
    62    65    57   ar
    63    66    65    1
    64    67    48    1
    65    68    67    1
    66    69    67    1
    67    70    67    1
    68    71    70    1
    69    72    70    1
    70    73    49    1
    71    74    73    1
    72    75    73    1
    73    76    49    1
    74    77    76    1
    75    78    76    1
    76    79    78    1
    77    80    78    1
    78    81    78    1
    79    82    81    1
    80    83    81    1
    81    84    81    1
    82    85    84    1
    83    86    84    1
    84    87    84    1
    85    88    87    1
    86    89    87    1
    87    90    76    1
    88    91    90    1
    89    92    90    1
    90    93    52    2
    91    11    12   ar
    92    17    19   ar
    93    24    27    1
    94    41    44    1
    95    57    58   ar
    96    63    65   ar
    97    70    73    1
    98    87    90    1
@<TRIPOS>SUBSTRUCTURE
     1 RES1        1 GROUP             0 ****  ****    0  
@<TRIPOS>CRYSIN
   10.9120    7.7970   20.7780   90.0000   96.8990   90.0000    14     1
