@<TRIPOS>MOLECULE
UFAMOD
    75    79     3     0     0
SMALL
USER_CHARGES
****
Generated from the CSD

@<TRIPOS>ATOM
     1 Fe1      6.5607   2.9295  -2.5451   Fe        1 RES1  -1.0000
     2 N1       5.2311   5.6084  -2.8895   N.1       1 RES1   0.0000
     3 N2       6.7124   2.8042  -5.5798   N.1       1 RES1   0.0000
     4 N3       3.7301   1.7700  -2.4483   N.1       1 RES1   0.0000
     5 N4       9.3269   4.2163  -2.5052   N.1       1 RES1   0.0000
     6 N5       6.5919   2.8838  -0.5551   N.ar      1 RES1   0.0000
     7 N6       7.3832   1.1237  -2.2632   N.ar      1 RES1   0.0000
     8 C1       5.7607   4.6140  -2.7045   C.1       1 RES1   0.0000
     9 C2       6.5667   2.8440  -4.4268   C.1       1 RES1   0.0000
    10 C3       4.8088   2.2076  -2.5621   C.1       1 RES1   0.0000
    11 C4       8.2779   3.7389  -2.5479   C.1       1 RES1   0.0000
    12 C5       6.0929   3.9577   0.2420   C.ar      1 RES1   0.0000
    13 C6       6.1564   3.7191   1.6227   C.ar      1 RES1   0.0000
    14 C7       6.5680   2.5656   2.1778   C.ar      1 RES1   0.0000
    15 C8       7.1578   1.6308   1.4092   C.ar      1 RES1   0.0000
    16 C9       7.1024   1.8098  -0.0142   C.ar      1 RES1   0.0000
    17 C10      7.6096   0.8154  -0.9822   C.ar      1 RES1   0.0000
    18 C11      8.2271  -0.3978  -0.6263   C.ar      1 RES1   0.0000
    19 C12      8.6383  -1.2529  -1.5942   C.ar      1 RES1   0.0000
    20 C13      8.4079  -0.8751  -2.9180   C.ar      1 RES1   0.0000
    21 C14      7.7676   0.3381  -3.2169   C.ar      1 RES1   0.0000
    22 H1       5.7293   4.8109  -0.1480   H         1 RES1   0.0000
    23 H2       5.8802   4.4609   2.2390   H         1 RES1   0.0000
    24 H3       6.4384   2.4064   3.1628   H         1 RES1   0.0000
    25 H4       7.6052   0.8293   1.8134   H         1 RES1   0.0000
    26 H5       8.3560  -0.6364   0.3317   H         1 RES1   0.0000
    27 H6       9.0843  -2.1121  -1.3608   H         1 RES1   0.0000
    28 H7       8.7016  -1.4856  -3.6525   H         1 RES1   0.0000
    29 H8       7.6242   0.6006  -4.1749   H         1 RES1   0.0000
    30 P1      10.7707   1.8635   4.6417   P.3       2 RES2   1.0000
    31 C15      9.0945   1.6288   5.2097   C.ar      2 RES2   0.0000
    32 C16      8.4659   0.3898   5.1670   C.ar      2 RES2   0.0000
    33 C17      7.1253   0.2764   5.5228   C.ar      2 RES2   0.0000
    34 C18      6.4133   1.4041   5.9214   C.ar      2 RES2   0.0000
    35 C19      7.0446   2.6451   5.9499   C.ar      2 RES2   0.0000
    36 C20      8.3852   2.7565   5.5940   C.ar      2 RES2   0.0000
    37 C21     10.8088   2.5755   3.0034   C.ar      2 RES2   0.0000
    38 C22      9.9337   3.6097   2.6760   C.ar      2 RES2   0.0000
    39 C23      9.9502   4.1447   1.3807   C.ar      2 RES2   0.0000
    40 C24     10.8375   3.6395   0.4356   C.ar      2 RES2   0.0000
    41 C25     11.6996   2.6053   0.7686   C.ar      2 RES2   0.0000
    42 C26     11.6858   2.0743   2.0497   C.ar      2 RES2   0.0000
    43 C27     11.6355   0.3321   4.5407   C.ar      2 RES2   0.0000
    44 C28     11.1656  -0.6364   3.6582   C.ar      2 RES2   0.0000
    45 C29     11.8184  -1.8655   3.5728   C.ar      2 RES2   0.0000
    46 C30     12.9586  -2.1121   4.3414   C.ar      2 RES2   0.0000
    47 C31     13.4165  -1.1336   5.2239   C.ar      2 RES2   0.0000
    48 C32     12.7610   0.0835   5.3236   C.ar      2 RES2   0.0000
    49 C33     11.5457   2.9733   5.7791   C.ar      2 RES2   0.0000
    50 C34     12.3461   4.0293   5.3577   C.ar      2 RES2   0.0000
    51 C35     13.0226   4.8089   6.2915   C.ar      2 RES2   0.0000
    52 C36     12.8872   4.5325   7.6437   C.ar      2 RES2   0.0000
    53 C37     12.0857   3.4764   8.0708   C.ar      2 RES2   0.0000
    54 C38     11.4223   2.6968   7.1313   C.ar      2 RES2   0.0000
    55 H9       8.9809  -0.4216   4.8894   H         2 RES2   0.0000
    56 H10      6.6786  -0.6165   5.5029   H         2 RES2   0.0000
    57 H11      5.4534   1.3226   6.1762   H         2 RES2   0.0000
    58 H12      6.5307   3.4565   6.2345   H         2 RES2   0.0000
    59 H13      8.8318   3.6494   5.6211   H         2 RES2   0.0000
    60 H14      9.3026   3.9696   3.3521   H         2 RES2   0.0000
    61 H15      9.3314   4.8885   1.1458   H         2 RES2   0.0000
    62 H16     10.8496   4.0273  -0.4868   H         2 RES2   0.0000
    63 H17     12.3390   2.2473   0.0868   H         2 RES2   0.0000
    64 H18     12.3089   1.3285   2.2931   H         2 RES2   0.0000
    65 H19     10.3570  -0.4634   3.1059   H         2 RES2   0.0000
    66 H20     11.4882  -2.5636   2.9365   H         2 RES2   0.0000
    67 H21     13.4256  -2.9912   4.2731   H         2 RES2   0.0000
    68 H22     14.2330  -1.3166   5.7791   H         2 RES2   0.0000
    69 H23     13.1018   0.7836   5.9484   H         2 RES2   0.0000
    70 H24     12.4366   4.2302   4.3827   H         2 RES2   0.0000
    71 H25     13.5926   5.5686   5.9897   H         2 RES2   0.0000
    72 H26     13.3728   5.0933   8.3227   H         2 RES2   0.0000
    73 H27     11.9976   3.2756   9.0458   H         2 RES2   0.0000
    74 H28     10.8417   1.9371   7.4388   H         2 RES2   0.0000
    75 O1      15.1706   2.0922   6.0495   O.3       3 RES3   0.0000
@<TRIPOS>BOND
     1     1     6    1
     2     2     8    3
     3     3     9    3
     4     4    10    3
     5     5    11    3
     6     6    12   ar
     7     7     1    1
     8     8     1    1
     9     9     1    1
    10    10     1    1
    11    11     1    1
    12    12    13   ar
    13    13    14   ar
    14    14    15   ar
    15    15    16   ar
    16    16     6   ar
    17    17     7   ar
    18    18    17   ar
    19    19    18   ar
    20    20    19   ar
    21    21     7   ar
    22    22    12    1
    23    23    13    1
    24    24    14    1
    25    25    15    1
    26    26    18    1
    27    27    19    1
    28    28    20    1
    29    29    21    1
    30    16    17    1
    31    20    21   ar
    32    30    31    1
    33    31    32   ar
    34    32    33   ar
    35    33    34   ar
    36    34    35   ar
    37    35    36   ar
    38    36    31   ar
    39    37    30    1
    40    38    37   ar
    41    39    38   ar
    42    40    39   ar
    43    41    40   ar
    44    42    37   ar
    45    43    30    1
    46    44    43   ar
    47    45    44   ar
    48    46    45   ar
    49    47    46   ar
    50    48    43   ar
    51    49    30    1
    52    50    49   ar
    53    51    50   ar
    54    52    51   ar
    55    53    52   ar
    56    54    49   ar
    57    55    32    1
    58    56    33    1
    59    57    34    1
    60    58    35    1
    61    59    36    1
    62    60    38    1
    63    61    39    1
    64    62    40    1
    65    63    41    1
    66    64    42    1
    67    65    44    1
    68    66    45    1
    69    67    46    1
    70    68    47    1
    71    69    48    1
    72    70    50    1
    73    71    51    1
    74    72    52    1
    75    73    53    1
    76    74    54    1
    77    41    42   ar
    78    47    48   ar
    79    53    54   ar
@<TRIPOS>SUBSTRUCTURE
     1 RES1        1 GROUP             0 ****  ****    0  
     2 RES2       30 GROUP             0 ****  ****    0  
     3 RES3       75 GROUP             0 ****  ****    0  
@<TRIPOS>CRYSIN
   12.0130   19.8880   14.4860   90.0000  100.7000   90.0000    14     1
