@<TRIPOS>MOLECULE
UFEBIU01
   154   156     4     0     0
SMALL
USER_CHARGES
****
Generated from the CSD

@<TRIPOS>ATOM
     1 Fe1      8.3694   4.5358  10.7067   Fe        1 RES1  -3.0000
     2 C1       7.7402   4.1814   8.9174   C.1       1 RES1   0.0000
     3 C2       9.7429   5.7053  10.0187   C.1       1 RES1   0.0000
     4 C3       7.1275   6.0156  10.8092   C.1       1 RES1   0.0000
     5 C4       9.0506   4.9200  12.4902   C.1       1 RES1   0.0000
     6 C5       7.0112   3.3545  11.4380   C.1       1 RES1   0.0000
     7 C6       9.5786   3.0130  10.5402   C.1       1 RES1   0.0000
     8 N1       7.3459   3.9301   7.8289   N.1       1 RES1   0.0000
     9 N2      10.5824   6.3918   9.6280   N.1       1 RES1   0.0000
    10 N3       6.3526   6.8651  10.8619   N.1       1 RES1   0.0000
    11 N4       9.4114   5.1748  13.5533   N.1       1 RES1   0.0000
    12 N5       6.2394   2.6333  11.8868   N.1       1 RES1   0.0000
    13 N6      10.2323   2.1046  10.4439   N.1       1 RES1   0.0000
    14 P1      10.9113  10.1766   8.0537   P.3       2 RES2   1.0000
    15 C7      11.4928   8.0040   6.5277   C.3       2 RES2   0.0000
    16 H1      11.4417   8.6524   5.7953   H         2 RES2   0.0000
    17 C8      12.7582   7.4788   6.6876   C.3       2 RES2   0.0000
    18 H2      13.0370   7.0662   5.8680   H         2 RES2   0.0000
    19 H3      13.3687   8.1809   6.9166   H         2 RES2   0.0000
    20 H4      12.7451   6.8234   7.3891   H         2 RES2   0.0000
    21 C9      10.4421   6.8026   6.3641   C.3       2 RES2   0.0000
    22 H5       9.5597   7.1632   6.2533   H         2 RES2   0.0000
    23 H6      10.6736   6.2791   5.5936   H         2 RES2   0.0000
    24 H7      10.4647   6.2479   7.1474   H         2 RES2   0.0000
    25 C10      8.6125  10.4345   6.6876   C.3       2 RES2   0.0000
    26 H8       8.3983   9.6544   7.2382   H         2 RES2   0.0000
    27 C11      8.3291  10.1502   5.2974   C.3       2 RES2   0.0000
    28 H9       7.4056   9.9041   5.2029   H         2 RES2   0.0000
    29 H10      8.5078  10.9286   4.7667   H         2 RES2   0.0000
    30 H11      8.8823   9.4256   4.9993   H         2 RES2   0.0000
    31 C12      7.7397  11.5856   7.0747   C.3       2 RES2   0.0000
    32 H12      7.8961  11.8110   7.9942   H         2 RES2   0.0000
    33 H13      7.9440  12.3432   6.5204   H         2 RES2   0.0000
    34 H14      6.8184  11.3429   6.9566   H         2 RES2   0.0000
    35 N7      11.1647   8.6229   7.8779   N.3       2 RES2   0.0000
    36 H15     11.1133   8.1132   8.5685   H         2 RES2   0.0000
    37 C13     10.0354  10.3271   9.6407   C.ar      2 RES2   0.0000
    38 C14      9.1605   9.3788  10.1077   C.ar      2 RES2   0.0000
    39 H16      9.0306   8.5917   9.6298   H         2 RES2   0.0000
    40 C15      8.4803   9.5903  11.2762   C.ar      2 RES2   0.0000
    41 H17      7.9202   8.9211  11.5997   H         2 RES2   0.0000
    42 C16      8.5917  10.6790  11.9341   C.ar      2 RES2   0.0000
    43 H18      8.0042  10.8454  12.6356   H         2 RES2   0.0000
    44 C17      9.5748  11.6290  11.6270   C.ar      2 RES2   0.0000
    45 H19      9.7780  12.3311  12.2012   H         2 RES2   0.0000
    46 C18     10.2427  11.4504  10.3876   C.ar      2 RES2   0.0000
    47 H20     10.8269  12.1057  10.0823   H         2 RES2   0.0000
    48 N8      10.0320  10.8194   6.8857   N.3       2 RES2   0.0000
    49 H21     10.3877  11.4002   6.3605   H         2 RES2   0.0000
    50 C19     12.3967  11.1696   8.1614   C.ar      2 RES2   0.0000
    51 C20     12.3930  12.5027   7.8143   C.ar      2 RES2   0.0000
    52 H22     11.6629  12.8737   7.3727   H         2 RES2   0.0000
    53 C21     13.5131  13.3036   8.1414   C.ar      2 RES2   0.0000
    54 H23     13.5147  14.2103   7.9379   H         2 RES2   0.0000
    55 C22     14.5945  12.7350   8.7575   C.ar      2 RES2   0.0000
    56 H24     15.3279  13.2603   8.9865   H         2 RES2   0.0000
    57 C23     14.6035  11.4504   9.0301   C.ar      2 RES2   0.0000
    58 H25     15.3680  11.0829   9.4117   H         2 RES2   0.0000
    59 C24     13.5243  10.6166   8.7684   C.ar      2 RES2   0.0000
    60 H26     13.5508   9.7151   8.9919   H         2 RES2   0.0000
    61 P2      13.2817  17.0188  11.6835   P.3       3 RES3   1.0000
    62 C25     14.6335  17.9584   9.5207   C.3       3 RES3   0.0000
    63 H27     13.7561  18.3363   9.3027   H         3 RES3   0.0000
    64 C26     15.2090  17.2927   8.2886   C.3       3 RES3   0.0000
    65 H28     15.3105  17.9428   7.5908   H         3 RES3   0.0000
    66 H29     16.0645  16.9130   8.4994   H         3 RES3   0.0000
    67 H30     14.6149  16.5975   7.9942   H         3 RES3   0.0000
    68 C27     15.5673  19.0869   9.9842   C.3       3 RES3   0.0000
    69 H31     15.6659  19.7301   9.2790   H         3 RES3   0.0000
    70 H32     15.1931  19.5134  10.7583   H         3 RES3   0.0000
    71 H33     16.4271  18.7194  10.2059   H         3 RES3   0.0000
    72 C28     11.2596  15.9907  10.2295   C.3       3 RES3   0.0000
    73 H34     11.8997  15.2505  10.2295   H         3 RES3   0.0000
    74 C29     11.0513  16.4363   8.8574   C.3       3 RES3   0.0000
    75 H35     11.8854  16.7292   8.4849   H         3 RES3   0.0000
    76 H36     10.7030  15.7099   8.3341   H         3 RES3   0.0000
    77 H37     10.4256  17.1644   8.8483   H         3 RES3   0.0000
    78 C30     10.0156  15.5383  10.8365   C.3       3 RES3   0.0000
    79 H38     10.1859  15.2522  11.7378   H         3 RES3   0.0000
    80 H39      9.3826  16.2594  10.8437   H         3 RES3   0.0000
    81 H40      9.6600  14.8049  10.3294   H         3 RES3   0.0000
    82 N9      14.4743  16.9511  10.6111   N.3       3 RES3   0.0000
    83 H41     15.0428  16.3097  10.6656   H         3 RES3   0.0000
    84 C31     13.3848  15.5019  12.6283   C.ar      3 RES3   0.0000
    85 C32     14.0945  14.3854  12.2521   C.ar      3 RES3   0.0000
    86 H42     14.6047  14.4132  11.4761   H         3 RES3   0.0000
    87 C33     14.0637  13.2360  12.9918   C.ar      3 RES3   0.0000
    88 H43     14.5799  12.5027  12.7446   H         3 RES3   0.0000
    89 C34     13.2701  13.1806  14.0967   C.ar      3 RES3   0.0000
    90 H44     13.2096  12.3831  14.5728   H         3 RES3   0.0000
    91 C35     12.5535  14.2693  14.5219   C.ar      3 RES3   0.0000
    92 H45     12.0547  14.2207  15.3052   H         3 RES3   0.0000
    93 C36     12.5753  15.4273  13.7968   C.ar      3 RES3   0.0000
    94 H46     12.0680  16.1589  14.0639   H         3 RES3   0.0000
    95 N10     11.8268  17.1245  11.0364   N.3       3 RES3   0.0000
    96 H47     11.3630  17.8387  11.1490   H         3 RES3   0.0000
    97 C37     13.4540  18.4126  12.8046   C.ar      3 RES3   0.0000
    98 C38     12.4881  19.3764  12.9845   C.ar      3 RES3   0.0000
    99 H48     11.6805  19.3296  12.5265   H         3 RES3   0.0000
   100 C39     12.7505  20.4305  13.8695   C.ar      3 RES3   0.0000
   101 H49     12.1195  21.1048  13.9804   H         3 RES3   0.0000
   102 C40     13.9200  20.4773  14.5710   C.ar      3 RES3   0.0000
   103 H50     14.0747  21.1759  15.1670   H         3 RES3   0.0000
   104 C41     14.8203  19.5533  14.4129   C.ar      3 RES3   0.0000
   105 H51     15.6179  19.5966  14.8908   H         3 RES3   0.0000
   106 C42     14.6036  18.5010  13.5333   C.ar      3 RES3   0.0000
   107 H52     15.2545  17.8422  13.4406   H         3 RES3   0.0000
   108 P3       7.2133   0.4150   5.7072   P.3       4 RES4   1.0000
   109 C43      9.4215  -1.0748   5.6481   C.3       4 RES4   0.0000
   110 H53      9.5854  -0.5131   6.4350   H         4 RES4   0.0000
   111 C44     10.6040  -0.9795   4.7322   C.3       4 RES4   0.0000
   112 H54     11.3904  -1.2881   5.1902   H         4 RES4   0.0000
   113 H55     10.4529  -1.5221   3.9562   H         4 RES4   0.0000
   114 H56     10.7297  -0.0659   4.4651   H         4 RES4   0.0000
   115 C45      9.1942  -2.5397   6.1206   C.3       4 RES4   0.0000
   116 H57      9.9861  -2.8604   6.5604   H         4 RES4   0.0000
   117 H58      8.4557  -2.5675   6.7330   H         4 RES4   0.0000
   118 H59      9.0020  -3.0945   5.3610   H         4 RES4   0.0000
   119 C46      8.8145   2.4929   4.8849   C.3       4 RES4   0.0000
   120 H60      9.0749   1.8220   4.2215   H         4 RES4   0.0000
   121 C47     10.0723   2.9471   5.6245   C.3       4 RES4   0.0000
   122 H61     10.6607   3.3909   5.0102   H         4 RES4   0.0000
   123 H62      9.8278   3.5539   6.3278   H         4 RES4   0.0000
   124 H63     10.5160   2.1843   5.9988   H         4 RES4   0.0000
   125 C48      8.0367   3.5660   4.1852   C.3       4 RES4   0.0000
   126 H64      8.5936   3.9855   3.5237   H         4 RES4   0.0000
   127 H65      7.2700   3.1794   3.7581   H         4 RES4   0.0000
   128 H66      7.7510   4.2230   4.8249   H         4 RES4   0.0000
   129 N11      8.2235  -0.6189   4.9975   N.3       4 RES4   0.0000
   130 H67      8.0433  -0.9067   4.2070   H         4 RES4   0.0000
   131 C49      5.7318   0.5114   4.7068   C.ar      4 RES4   0.0000
   132 C50      5.3736  -0.4126   3.7781   C.ar      4 RES4   0.0000
   133 H68      5.9428  -1.1268   3.6000   H         4 RES4   0.0000
   134 C51      4.1778  -0.3086   3.0930   C.ar      4 RES4   0.0000
   135 H69      3.9279  -0.9639   2.4842   H         4 RES4   0.0000
   136 C52      3.3657   0.7732   3.3238   C.ar      4 RES4   0.0000
   137 H70      2.6000   0.9032   2.8113   H         4 RES4   0.0000
   138 C53      3.6938   1.6643   4.3233   C.ar      4 RES4   0.0000
   139 H71      3.1061   2.3560   4.5214   H         4 RES4   0.0000
   140 C54      4.8488   1.5602   5.0230   C.ar      4 RES4   0.0000
   141 H72      5.0526   2.1670   5.6972   H         4 RES4   0.0000
   142 N12      7.9789   1.8237   5.9189   N.3       4 RES4   0.0000
   143 H73      7.8975   2.2138   6.6803   H         4 RES4   0.0000
   144 C55      6.7100  -0.1075   7.3364   C.ar      4 RES4   0.0000
   145 C56      5.8140  -1.1147   7.4254   C.ar      4 RES4   0.0000
   146 H74      5.4425  -1.4892   6.6603   H         4 RES4   0.0000
   147 C57      5.4385  -1.6001   8.7448   C.ar      4 RES4   0.0000
   148 H75      4.8062  -2.2797   8.8175   H         4 RES4   0.0000
   149 C58      5.9695  -1.1026   9.8279   C.ar      4 RES4   0.0000
   150 H76      5.8232  -1.5030  10.6529   H         4 RES4   0.0000
   151 C59      6.6797  -0.0797   9.7352   C.ar      4 RES4   0.0000
   152 H77      6.9248   0.3571  10.5184   H         4 RES4   0.0000
   153 C60      7.1356   0.4577   8.4849   C.ar      4 RES4   0.0000
   154 H78      7.7151   1.1858   8.4685   H         4 RES4   0.0000
@<TRIPOS>BOND
     1     1     2    1
     2     2     8    3
     3     3     1    1
     4     4     1    1
     5     5     1    1
     6     6     1    1
     7     7     1    1
     8     9     3    3
     9    10     4    3
    10    11     5    3
    11    12     6    3
    12    13     7    3
    13    14    35    1
    14    15    16    1
    15    17    15    1
    16    18    17    1
    17    19    17    1
    18    20    17    1
    19    21    15    1
    20    22    21    1
    21    23    21    1
    22    24    21    1
    23    25    26    1
    24    27    25    1
    25    28    27    1
    26    29    27    1
    27    30    27    1
    28    31    25    1
    29    32    31    1
    30    33    31    1
    31    34    31    1
    32    35    15    1
    33    36    35    1
    34    37    14    1
    35    38    37   ar
    36    39    38    1
    37    40    38   ar
    38    41    40    1
    39    42    40   ar
    40    43    42    1
    41    44    42   ar
    42    45    44    1
    43    46    37   ar
    44    47    46    1
    45    48    14    1
    46    49    48    1
    47    50    14    1
    48    51    50   ar
    49    52    51    1
    50    53    51   ar
    51    54    53    1
    52    55    53   ar
    53    56    55    1
    54    57    55   ar
    55    58    57    1
    56    59    50   ar
    57    60    59    1
    58    25    48    1
    59    44    46   ar
    60    57    59   ar
    61    61    82    1
    62    62    63    1
    63    64    62    1
    64    65    64    1
    65    66    64    1
    66    67    64    1
    67    68    62    1
    68    69    68    1
    69    70    68    1
    70    71    68    1
    71    72    73    1
    72    74    72    1
    73    75    74    1
    74    76    74    1
    75    77    74    1
    76    78    72    1
    77    79    78    1
    78    80    78    1
    79    81    78    1
    80    82    62    1
    81    83    82    1
    82    84    61    1
    83    85    84   ar
    84    86    85    1
    85    87    85   ar
    86    88    87    1
    87    89    87   ar
    88    90    89    1
    89    91    89   ar
    90    92    91    1
    91    93    84   ar
    92    94    93    1
    93    95    61    1
    94    96    95    1
    95    97    61    1
    96    98    97   ar
    97    99    98    1
    98   100    98   ar
    99   101   100    1
   100   102   100   ar
   101   103   102    1
   102   104   102   ar
   103   105   104    1
   104   106    97   ar
   105   107   106    1
   106    72    95    1
   107    91    93   ar
   108   104   106   ar
   109   108   129    1
   110   109   110    1
   111   111   109    1
   112   112   111    1
   113   113   111    1
   114   114   111    1
   115   115   109    1
   116   116   115    1
   117   117   115    1
   118   118   115    1
   119   119   120    1
   120   121   119    1
   121   122   121    1
   122   123   121    1
   123   124   121    1
   124   125   119    1
   125   126   125    1
   126   127   125    1
   127   128   125    1
   128   129   109    1
   129   130   129    1
   130   131   108    1
   131   132   131   ar
   132   133   132    1
   133   134   132   ar
   134   135   134    1
   135   136   134   ar
   136   137   136    1
   137   138   136   ar
   138   139   138    1
   139   140   131   ar
   140   141   140    1
   141   142   108    1
   142   143   142    1
   143   144   108    1
   144   145   144   ar
   145   146   145    1
   146   147   145   ar
   147   148   147    1
   148   149   147   ar
   149   150   149    1
   150   151   149   ar
   151   152   151    1
   152   153   144   ar
   153   154   153    1
   154   119   142    1
   155   138   140   ar
   156   151   153   ar
@<TRIPOS>SUBSTRUCTURE
     1 RES1        1 GROUP             0 ****  ****    0  
     2 RES2       14 GROUP             0 ****  ****    0  
     3 RES3       61 GROUP             0 ****  ****    0  
     4 RES4      108 GROUP             0 ****  ****    0  
@<TRIPOS>CRYSIN
   21.1950   17.3360   18.4810   90.0000  100.4780   90.0000     9     1
