@<TRIPOS>MOLECULE
UGIPAD
    75    84     1     0     0
SMALL
NO_CHARGES
****
Generated from the CSD

@<TRIPOS>ATOM
     1 C1      -0.0414   3.0866   9.4270   C.3       1 RES1   0.0000
     2 H1      -0.2482   2.9782   8.4655   H         1 RES1   0.0000
     3 H2      -0.8916   3.0866   9.9341   H         1 RES1   0.0000
     4 C2       0.7038   4.3661   9.6594   C.ar      1 RES1   0.0000
     5 C3       0.4907   5.5014   8.8858   C.ar      1 RES1   0.0000
     6 H3      -0.1738   5.4912   8.2066   H         1 RES1   0.0000
     7 C4       1.2342   6.6414   9.0967   C.ar      1 RES1   0.0000
     8 H4       1.0676   7.4306   8.5958   H         1 RES1   0.0000
     9 C5       2.2262   6.6075  10.0535   C.ar      1 RES1   0.0000
    10 H5       2.7787   7.3656  10.2055   H         1 RES1   0.0000
    11 C6       2.4010   5.4543  10.7839   C.ar      1 RES1   0.0000
    12 H6       3.1018   5.4340  11.4244   H         1 RES1   0.0000
    13 C7       2.3714   1.4327   8.9106   C.2       1 RES1   0.0000
    14 H7       2.2588   1.0249   8.0592   H         1 RES1   0.0000
    15 C8       3.6112   1.8521   9.3946   C.2       1 RES1   0.0000
    16 C9       4.8240   1.6949   8.6454   C.2       1 RES1   0.0000
    17 H8       4.7963   1.2457   7.8080   H         1 RES1   0.0000
    18 C10      6.0057   2.1703   9.0998   C.2       1 RES1   0.0000
    19 H9       6.7982   2.0538   8.5911   H         1 RES1   0.0000
    20 C11      6.0485   2.8396  10.3357   C.2       1 RES1   0.0000
    21 H10      6.8603   3.2048  10.6707   H         1 RES1   0.0000
    22 C12      4.8812   2.9474  11.0413   C.2       1 RES1   0.0000
    23 H11      4.9167   3.3901  11.8803   H         1 RES1   0.0000
    24 C13     -0.0598   0.2856  10.0690   C.ar      1 RES1   0.0000
    25 C14      0.3401  -0.9453   9.5526   C.ar      1 RES1   0.0000
    26 H12      1.1694  -1.0151   9.0951   H         1 RES1   0.0000
    27 C15     -0.4476  -2.0569   9.6984   C.ar      1 RES1   0.0000
    28 H13     -0.1582  -2.8914   9.3464   H         1 RES1   0.0000
    29 C16     -1.6569  -1.9710  10.3543   C.ar      1 RES1   0.0000
    30 H14     -2.2057  -2.7416  10.4412   H         1 RES1   0.0000
    31 C17     -2.0747  -0.7588  10.8862   C.ar      1 RES1   0.0000
    32 H15     -2.9060  -0.6997  11.3437   H         1 RES1   0.0000
    33 C18     -1.2716   0.3625  10.7498   C.ar      1 RES1   0.0000
    34 H16     -1.5503   1.1905  11.1235   H         1 RES1   0.0000
    35 C19      0.9763   0.6942  13.8404   C.2       1 RES1   0.0000
    36 H17      0.8817   0.0059  14.4871   H         1 RES1   0.0000
    37 C20      0.0093   1.6864  13.6481   C.2       1 RES1   0.0000
    38 C21     -1.2540   1.6797  14.3072   C.2       1 RES1   0.0000
    39 H18     -1.4780   0.9441  14.8670   H         1 RES1   0.0000
    40 C22     -2.1460   2.6884  14.1614   C.2       1 RES1   0.0000
    41 H19     -2.9836   2.6549  14.6080   H         1 RES1   0.0000
    42 C23     -1.8250   3.7827  13.3488   C.2       1 RES1   0.0000
    43 H20     -2.4085   4.5274  13.2651   H         1 RES1   0.0000
    44 C24     -0.6239   3.7269  12.6789   C.2       1 RES1   0.0000
    45 H21     -0.4104   4.4564  12.1098   H         1 RES1   0.0000
    46 C25      3.9002   1.2788  13.7334   C.3       1 RES1   0.0000
    47 H22      4.0320   0.6859  14.5150   H         1 RES1   0.0000
    48 H23      4.6935   1.2122  13.1441   H         1 RES1   0.0000
    49 C26      3.6825   2.6872  14.1707   C.ar      1 RES1   0.0000
    50 C27      4.2285   3.2088  15.3477   C.ar      1 RES1   0.0000
    51 H24      4.8103   2.6746  15.8765   H         1 RES1   0.0000
    52 C28      3.9255   4.4948  15.7447   C.ar      1 RES1   0.0000
    53 H25      4.3322   4.8723  16.5155   H         1 RES1   0.0000
    54 C29      3.0261   5.2208  15.0066   C.ar      1 RES1   0.0000
    55 H26      2.7592   6.0904  15.2826   H         1 RES1   0.0000
    56 C30      2.5185   4.6584  13.8544   C.ar      1 RES1   0.0000
    57 H27      1.8809   5.1581  13.3581   H         1 RES1   0.0000
    58 C31      2.7551  -0.8213  12.1330   C.ar      1 RES1   0.0000
    59 C32      1.9514  -1.9233  12.4122   C.ar      1 RES1   0.0000
    60 H28      1.2259  -1.8409  13.0185   H         1 RES1   0.0000
    61 C33      2.2115  -3.1485  11.7996   C.ar      1 RES1   0.0000
    62 H29      1.6838  -3.9085  12.0183   H         1 RES1   0.0000
    63 C34      3.2312  -3.2622  10.8785   C.ar      1 RES1   0.0000
    64 H30      3.3756  -4.0878  10.4319   H         1 RES1   0.0000
    65 C35      4.0394  -2.1801  10.6071   C.ar      1 RES1   0.0000
    66 H31      4.7527  -2.2666   9.9868   H         1 RES1   0.0000
    67 C36      3.8132  -0.9707  11.2367   C.ar      1 RES1   0.0000
    68 H32      4.3855  -0.2345  11.0568   H         1 RES1   0.0000
    69 N1       1.6362   4.3470  10.6463   N.ar      1 RES1   0.0000
    70 N2       3.6815   2.4736  10.6377   N.2       1 RES1   0.0000
    71 N3       0.2748   2.7237  12.7620   N.2       1 RES1   0.0000
    72 N4       2.8675   3.4482  13.3896   N.ar      1 RES1   0.0000
    73 P1       1.0482   1.7217  10.0046   P.3       1 RES1   0.0000
    74 P2       2.3547   0.8193  12.8104   P.3       1 RES1   0.0000
    75 Fe1      1.9905   2.6382  11.7139   Fe        1 RES1   0.0000
@<TRIPOS>BOND
     1     1     2    1
     2     3     1    1
     3     4     1    1
     4     5     4   ar
     5     6     5    1
     6     7     5   ar
     7     8     7    1
     8     9     7   ar
     9    10     9    1
    10    11     9   ar
    11    12    11    1
    12    13    14    1
    13    15    13    2
    14    16    15    1
    15    17    16    1
    16    18    16    2
    17    19    18    1
    18    20    18    1
    19    21    20    1
    20    22    20    2
    21    23    22    1
    22    24    25   ar
    23    25    26    1
    24    27    25   ar
    25    28    27    1
    26    29    27   ar
    27    30    29    1
    28    31    29   ar
    29    32    31    1
    30    33    24   ar
    31    34    33    1
    32    35    36    1
    33    37    35    2
    34    38    37    1
    35    39    38    1
    36    40    38    2
    37    41    40    1
    38    42    40    1
    39    43    42    1
    40    44    42    2
    41    45    44    1
    42    46    47    1
    43    48    46    1
    44    49    46    1
    45    50    49   ar
    46    51    50    1
    47    52    50   ar
    48    53    52    1
    49    54    52   ar
    50    55    54    1
    51    56    54   ar
    52    57    56    1
    53    58    59   ar
    54    59    60    1
    55    61    59   ar
    56    62    61    1
    57    63    61   ar
    58    64    63    1
    59    65    63   ar
    60    66    65    1
    61    67    58   ar
    62    68    67    1
    63    69     4   ar
    64    70    15    1
    65    71    37    1
    66    72    49   ar
    67    73     1    1
    68    74    35    1
    69    75    69    1
    70    11    69   ar
    71    13    73    1
    72    22    70    1
    73    24    73    1
    74    31    33   ar
    75    44    71    1
    76    46    74    1
    77    56    72   ar
    78    58    74    1
    79    65    67   ar
    80    70    75    1
    81    71    75    1
    82    72    75    1
    83    73    75    1
    84    74    75    1
@<TRIPOS>SUBSTRUCTURE
     1 RES1        1 GROUP             0 ****  ****    0  
@<TRIPOS>CRYSIN
    9.9744   19.7099   15.5352   90.0000   93.4240   90.0000    14     1
