@<TRIPOS>MOLECULE
UGOLIN
    85    89     4     0     0
SMALL
USER_CHARGES
****
Generated from the CSD

@<TRIPOS>ATOM
     1 C1      14.8679  11.2891  11.0520   C.ar      1 RES1   0.0000
     2 H1      15.2782  10.9850  11.8300   H         1 RES1   0.0000
     3 C2      15.4355  11.0062   9.8543   C.ar      1 RES1   0.0000
     4 H2      16.2199  10.5097   9.8128   H         1 RES1   0.0000
     5 C3      14.8480  11.4546   8.7141   C.ar      1 RES1   0.0000
     6 H3      15.2222  11.2526   7.8886   H         1 RES1   0.0000
     7 C4      13.6877  12.2167   8.7854   C.ar      1 RES1   0.0000
     8 H4      13.2900  12.5554   8.0153   H         1 RES1   0.0000
     9 C5      13.1436  12.4534  10.0325   C.ar      1 RES1   0.0000
    10 C6      11.8585  13.2001  10.2226   C.3       1 RES1   0.0000
    11 H5      11.7772  13.8949   9.5495   H         1 RES1   0.0000
    12 H6      11.1067  12.5939  10.1295   H         1 RES1   0.0000
    13 C7      12.6610  15.0592  11.5786   C.3       1 RES1   0.0000
    14 H7      12.0628  15.8175  11.6597   H         1 RES1   0.0000
    15 H8      13.1183  15.1343  10.7273   H         1 RES1   0.0000
    16 C8      13.6732  15.1304  12.6733   C.ar      1 RES1   0.0000
    17 C9      14.3727  16.2755  12.9425   C.ar      1 RES1   0.0000
    18 H9      14.2064  17.0491  12.4516   H         1 RES1   0.0000
    19 C10     15.3144  16.2832  13.9362   C.ar      1 RES1   0.0000
    20 H10     15.7969  17.0588  14.1164   H         1 RES1   0.0000
    21 C11     15.5439  15.1439  14.6588   C.ar      1 RES1   0.0000
    22 H11     16.1548  15.1400  15.3596   H         1 RES1   0.0000
    23 C12     14.8462  14.0084  14.3242   C.ar      1 RES1   0.0000
    24 H12     15.0270  13.2194  14.7815   H         1 RES1   0.0000
    25 C13     10.4741  14.0392  12.0952   C.3       1 RES1   0.0000
    26 H13      9.9083  13.2848  11.8676   H         1 RES1   0.0000
    27 H14     10.0981  14.8340  11.6835   H         1 RES1   0.0000
    28 C14     10.5229  14.2124  13.5938   C.3       1 RES1   0.0000
    29 H15     10.9964  15.0303  13.8076   H         1 RES1   0.0000
    30 H16      9.6191  14.2894  13.9382   H         1 RES1   0.0000
    31 C15     11.7790  13.4638  15.6007   C.3       1 RES1   0.0000
    32 H17     12.4478  12.8095  15.8604   H         1 RES1   0.0000
    33 H18     12.2309  14.3164  15.4962   H         1 RES1   0.0000
    34 C16     10.7741  13.5889  16.7156   C.ar      1 RES1   0.0000
    35 C17      9.9427  14.6974  16.8502   C.ar      1 RES1   0.0000
    36 H19     10.0132  15.4018  16.2464   H         1 RES1   0.0000
    37 C18      9.0137  14.7590  17.8697   C.ar      1 RES1   0.0000
    38 H20      8.4588  15.5018  17.9449   H         1 RES1   0.0000
    39 C19      8.9034  13.7236  18.7743   C.ar      1 RES1   0.0000
    40 H21      8.2690  13.7602  19.4533   H         1 RES1   0.0000
    41 C20      9.7258  12.6497  18.6694   C.ar      1 RES1   0.0000
    42 H22      9.6625  11.9588  19.2890   H         1 RES1   0.0000
    43 C21     10.6638  12.5728  17.6420   C.ar      1 RES1   0.0000
    44 H23     11.2205  11.8299  17.5806   H         1 RES1   0.0000
    45 C22     10.2897  11.9030  14.4549   C.3       1 RES1   0.0000
    46 H24      9.4023  12.2379  14.6568   H         1 RES1   0.0000
    47 H25     10.5915  11.3892  15.2190   H         1 RES1   0.0000
    48 C23     10.2066  10.9947  13.2632   C.ar      1 RES1   0.0000
    49 C24      9.1366  10.1671  13.0929   C.ar      1 RES1   0.0000
    50 H26      8.4064  10.2229  13.6631   H         1 RES1   0.0000
    51 C25      9.1492   9.2434  12.0636   C.ar      1 RES1   0.0000
    52 H27      8.4299   8.6679  11.9309   H         1 RES1   0.0000
    53 C26     10.2481   9.1972  11.2420   C.ar      1 RES1   0.0000
    54 H28     10.2897   8.5794  10.5492   H         1 RES1   0.0000
    55 C27     11.2766  10.0632  11.4519   C.ar      1 RES1   0.0000
    56 H29     12.0194  10.0228  10.8916   H         1 RES1   0.0000
    57 Fe1     12.7446  12.3728  12.9177   Fe        1 RES1   2.0000
    58 N1      13.7310  11.9935  11.1504   N.ar      1 RES1   0.0000
    59 N2      11.8551  13.8094  11.5821   N.3       1 RES1   0.0000
    60 N3      13.9125  14.0015  13.3558   N.ar      1 RES1   0.0000
    61 N4      11.2077  13.0552  14.2534   N.3       1 RES1   0.0000
    62 N5      11.2603  10.9879  12.4498   N.ar      1 RES1   0.0000
    63 O1      13.6058  11.2855  14.0556   O.3       1 RES1   0.0000
    64 C28     13.6244   9.9246  14.2767   C.3       1 RES1   0.0000
    65 H30     13.9588   9.5551  13.4433   H         1 RES1   0.0000
    66 H31     12.6864   9.6783  14.3084   H         1 RES1   0.0000
    67 P1       9.4433  18.1761  13.0015   P.3       2 RES2  -1.0000
    68 F1       9.8143  17.5283  14.3975   F         2 RES2   0.0000
    69 F2      10.8428  17.7516  12.4377   F         2 RES2   0.0000
    70 F3       9.0534  18.8216  11.6294   F         2 RES2   0.0000
    71 F4       8.0366  18.5964  13.5839   F         2 RES2   0.0000
    72 F5       8.8275  16.7947  12.5228   F         2 RES2   0.0000
    73 F6      10.0511  19.5558  13.4889   F         2 RES2   0.0000
    74 P2      11.6017   6.4400   8.4150   P.3       3 RES3  -1.0000
    75 F7      10.1605   6.8760   8.9285   F         3 RES3   0.0000
    76 F8      11.2567   6.9051   6.9796   F         3 RES3   0.0000
    77 F9      10.9729   5.0306   8.0114   F         3 RES3   0.0000
    78 F10     11.8549   5.9044   9.8405   F         3 RES3   0.0000
    79 F11     13.0027   5.9467   7.9203   F         3 RES3   0.0000
    80 F12     12.1315   7.8077   8.7913   F         3 RES3   0.0000
    81 C29     14.3944   8.8854  15.5575   C.2       4 RES4   0.0000
    82 H32     14.0781   7.9694  15.6149   H         4 RES4   0.0000
    83 H33     15.3559   8.9662  15.6525   H         4 RES4   0.0000
    84 O2      13.5431   9.9497  16.2919   O.3       4 RES4   0.0000
    85 H34     12.7478   9.8188  16.1375   H         4 RES4   0.0000
@<TRIPOS>BOND
     1     1     2    1
     2     3     1   ar
     3     4     3    1
     4     5     3   ar
     5     6     5    1
     6     7     5   ar
     7     8     7    1
     8     9     7   ar
     9    10     9    1
    10    11    10    1
    11    12    10    1
    12    13    14    1
    13    15    13    1
    14    16    13    1
    15    17    16   ar
    16    18    17    1
    17    19    17   ar
    18    20    19    1
    19    21    19   ar
    20    22    21    1
    21    23    21   ar
    22    24    23    1
    23    25    26    1
    24    27    25    1
    25    28    25    1
    26    29    28    1
    27    30    28    1
    28    31    32    1
    29    33    31    1
    30    34    31    1
    31    35    34   ar
    32    36    35    1
    33    37    35   ar
    34    38    37    1
    35    39    37   ar
    36    40    39    1
    37    41    39   ar
    38    42    41    1
    39    43    34   ar
    40    44    43    1
    41    45    46    1
    42    47    45    1
    43    48    45    1
    44    49    48   ar
    45    50    49    1
    46    51    49   ar
    47    52    51    1
    48    53    51   ar
    49    54    53    1
    50    55    53   ar
    51    56    55    1
    52    57    58    1
    53    58     1   ar
    54    59    10    1
    55    60    16   ar
    56    61    28    1
    57    62    48   ar
    58    63    57    1
    59    64    63    1
    60    65    64    1
    61    66    64    1
    62     9    58   ar
    63    13    59    1
    64    23    60   ar
    65    25    59    1
    66    31    61    1
    67    41    43   ar
    68    45    61    1
    69    55    62   ar
    70    57    59    1
    71    57    60    1
    72    57    61    1
    73    57    62    1
    74    67    68    1
    75    69    67    1
    76    70    67    1
    77    71    67    1
    78    72    67    1
    79    73    67    1
    80    74    75    1
    81    76    74    1
    82    77    74    1
    83    78    74    1
    84    79    74    1
    85    80    74    1
    86    81    82    1
    87    83    81    1
    88    84    81    1
    89    85    84    1
@<TRIPOS>SUBSTRUCTURE
     1 RES1        1 GROUP             0 ****  ****    0  
     2 RES2       67 GROUP             0 ****  ****    0  
     3 RES3       74 GROUP             0 ****  ****    0  
     4 RES4       81 GROUP             0 ****  ****    0  
@<TRIPOS>CRYSIN
   18.0743   19.2450   19.7958   90.0000   90.0000   90.0000    61     1
