@<TRIPOS>MOLECULE
UGOLUZ
    84    89     3     0     0
SMALL
USER_CHARGES
****
Generated from the CSD

@<TRIPOS>ATOM
     1 C1       3.3031   5.1796   4.5039   C.ar      1 RES1   0.0000
     2 H1       3.1214   5.9617   4.9722   H         1 RES1   0.0000
     3 C2       2.6213   4.0409   4.8387   C.ar      1 RES1   0.0000
     4 H2       2.0114   4.0333   5.5422   H         1 RES1   0.0000
     5 C3       2.8660   2.9118   4.1093   C.ar      1 RES1   0.0000
     6 H3       2.4054   2.1278   4.3026   H         1 RES1   0.0000
     7 C4       3.7943   2.9291   3.0830   C.ar      1 RES1   0.0000
     8 H4       3.9634   2.1642   2.5828   H         1 RES1   0.0000
     9 C5       4.4618   4.1042   2.8219   C.ar      1 RES1   0.0000
    10 C6       5.4603   4.1790   1.7059   C.3       1 RES1   0.0000
    11 H5       4.9907   4.1157   0.8589   H         1 RES1   0.0000
    12 H6       6.0576   3.4179   1.7697   H         1 RES1   0.0000
    13 C7       6.2681   6.0441   0.3727   C.3       1 RES1   0.0000
    14 H7       6.3562   5.3502  -0.2989   H         1 RES1   0.0000
    15 H8       7.0201   6.6518   0.2810   H         1 RES1   0.0000
    16 C8       4.9673   6.7994   0.1654   C.ar      1 RES1   0.0000
    17 C9       4.4240   7.0180  -1.0682   C.ar      1 RES1   0.0000
    18 H9       4.8216   6.6787  -1.8374   H         1 RES1   0.0000
    19 C10      3.2600   7.7636  -1.1379   C.ar      1 RES1   0.0000
    20 H10      2.8624   7.9323  -1.9610   H         1 RES1   0.0000
    21 C11      2.7004   8.2486  -0.0040   C.ar      1 RES1   0.0000
    22 H11      1.9214   8.7509  -0.0518   H         1 RES1   0.0000
    23 C12      3.2708   8.0033   1.1957   C.ar      1 RES1   0.0000
    24 H12      2.8696   8.3311   1.9690   H         1 RES1   0.0000
    25 C13      7.6588   5.2064   2.2161   C.3       1 RES1   0.0000
    26 H13      8.2219   5.9636   1.9969   H         1 RES1   0.0000
    27 H14      8.0312   4.4147   1.7936   H         1 RES1   0.0000
    28 C14      7.6066   5.0147   3.7247   C.3       1 RES1   0.0000
    29 H15      7.1100   4.2058   3.9279   H         1 RES1   0.0000
    30 H16      8.5079   4.9055   4.0655   H         1 RES1   0.0000
    31 C15      6.4102   5.7585   5.7435   C.3       1 RES1   0.0000
    32 H17      5.9532   4.9093   5.6338   H         1 RES1   0.0000
    33 H18      5.7463   6.4103   6.0105   H         1 RES1   0.0000
    34 C16      7.4087   5.6109   6.8754   C.ar      1 RES1   0.0000
    35 C17      8.2399   4.5144   6.9810   C.ar      1 RES1   0.0000
    36 H19      8.1859   3.8281   6.3573   H         1 RES1   0.0000
    37 C18      9.1610   4.4358   8.0193   C.ar      1 RES1   0.0000
    38 H20      9.7133   3.6940   8.0950   H         1 RES1   0.0000
    39 C19      9.2528   5.4595   8.9360   C.ar      1 RES1   0.0000
    40 H21      9.8807   5.4173   9.6196   H         1 RES1   0.0000
    41 C20      8.4198   6.5330   8.8404   C.ar      1 RES1   0.0000
    42 H22      8.4720   7.2154   9.4701   H         1 RES1   0.0000
    43 C21      7.5058   6.6154   7.8180   C.ar      1 RES1   0.0000
    44 H23      6.9445   7.3553   7.7622   H         1 RES1   0.0000
    45 C22      7.8909   7.3074   4.5896   C.3       1 RES1   0.0000
    46 H24      8.7778   6.9585   4.7709   H         1 RES1   0.0000
    47 H25      7.6102   7.8135   5.3688   H         1 RES1   0.0000
    48 C23      7.9736   8.2352   3.4198   C.ar      1 RES1   0.0000
    49 C24      9.0549   9.0576   3.2444   C.ar      1 RES1   0.0000
    50 H26      9.7979   8.9867   3.7984   H         1 RES1   0.0000
    51 C25      9.0207  10.0007   2.2181   C.ar      1 RES1   0.0000
    52 H27      9.7403  10.5720   2.0806   H         1 RES1   0.0000
    53 C26      7.9142  10.0755   1.4189   C.ar      1 RES1   0.0000
    54 H28      7.8621  10.7042   0.7354   H         1 RES1   0.0000
    55 C27      6.8942   9.2109   1.6441   C.ar      1 RES1   0.0000
    56 H29      6.1439   9.2608   1.0961   H         1 RES1   0.0000
    57 Fe1      5.3773   6.8962   3.1029   Fe        1 RES1   2.0000
    58 N1       4.2297   5.2122   3.5174   N.ar      1 RES1   0.0000
    59 N2       6.2735   5.4403   1.7187   N.3       1 RES1   0.0000
    60 N3       4.4114   7.2882   1.2894   N.ar      1 RES1   0.0000
    61 N4       6.9625   6.1687   4.4088   N.3       1 RES1   0.0000
    62 N5       6.9085   8.2908   2.6206   N.ar      1 RES1   0.0000
    63 O1       4.5229   7.9803   4.2428   O.3       1 RES1   0.0000
    64 C28      4.2531   9.7496   5.7574   C.3       1 RES1   0.0000
    65 H30      4.2855   9.0998   6.4649   H         1 RES1   0.0000
    66 H31      3.4597  10.2825   5.8491   H         1 RES1   0.0000
    67 H32      5.0249  10.3151   5.8072   H         1 RES1   0.0000
    68 C29      4.2351   9.1573   4.6454   C.3       1 RES1   0.0000
    69 H33      4.7766   9.7285   4.0794   H         1 RES1   0.0000
    70 H34      3.3229   9.2838   4.3385   H         1 RES1   0.0000
    71 P1       0.3249  10.6383   3.0748   P.3       2 RES2  -1.0000
    72 F1       0.9292   9.2468   3.5519   F         2 RES2   0.0000
    73 F2       1.7181  11.0551   2.4911   F         2 RES2   0.0000
    74 F3      -0.2969  12.0333   2.5927   F         2 RES2   0.0000
    75 F4      -1.0687  10.2269   3.6509   F         2 RES2   0.0000
    76 F5      -0.0576  10.0026   1.7019   F         2 RES2   0.0000
    77 F6       0.7232  11.3004   4.4501   F         2 RES2   0.0000
    78 P2       2.7220   6.5330   8.4904   P.3       3 RES3  -1.0000
    79 F7       2.1445   5.0703   8.0751   F         3 RES3   0.0000
    80 F8       2.9073   6.0211   9.9105   F         3 RES3   0.0000
    81 F9       2.3964   6.9317   7.0488   F         3 RES3   0.0000
    82 F10      4.1145   6.0269   8.0512   F         3 RES3   0.0000
    83 F11      1.2486   6.8876   8.9580   F         3 RES3   0.0000
    84 F12      3.1106   7.9132   8.8304   F         3 RES3   0.0000
@<TRIPOS>BOND
     1     1     2    1
     2     3     1   ar
     3     4     3    1
     4     5     3   ar
     5     6     5    1
     6     7     5   ar
     7     8     7    1
     8     9     7   ar
     9    10     9    1
    10    11    10    1
    11    12    10    1
    12    13    14    1
    13    15    13    1
    14    16    13    1
    15    17    16   ar
    16    18    17    1
    17    19    17   ar
    18    20    19    1
    19    21    19   ar
    20    22    21    1
    21    23    21   ar
    22    24    23    1
    23    25    26    1
    24    27    25    1
    25    28    25    1
    26    29    28    1
    27    30    28    1
    28    31    32    1
    29    33    31    1
    30    34    31    1
    31    35    34   ar
    32    36    35    1
    33    37    35   ar
    34    38    37    1
    35    39    37   ar
    36    40    39    1
    37    41    39   ar
    38    42    41    1
    39    43    34   ar
    40    44    43    1
    41    45    46    1
    42    47    45    1
    43    48    45    1
    44    49    48   ar
    45    50    49    1
    46    51    49   ar
    47    52    51    1
    48    53    51   ar
    49    54    53    1
    50    55    53   ar
    51    56    55    1
    52    57    58    1
    53    58     1   ar
    54    59    10    1
    55    60    16   ar
    56    61    28    1
    57    62    48   ar
    58    63    57    1
    59    64    65    1
    60    66    64    1
    61    67    64    1
    62    68    63    1
    63    69    68    1
    64    70    68    1
    65     9    58   ar
    66    13    59    1
    67    23    60   ar
    68    25    59    1
    69    31    61    1
    70    41    43   ar
    71    45    61    1
    72    55    62   ar
    73    57    59    1
    74    57    60    1
    75    57    61    1
    76    57    62    1
    77    64    68    1
    78    71    72    1
    79    73    71    1
    80    74    71    1
    81    75    71    1
    82    76    71    1
    83    77    71    1
    84    78    79    1
    85    80    78    1
    86    81    78    1
    87    82    78    1
    88    83    78    1
    89    84    78    1
@<TRIPOS>SUBSTRUCTURE
     1 RES1        1 GROUP             0 ****  ****    0  
     2 RES2       71 GROUP             0 ****  ****    0  
     3 RES3       78 GROUP             0 ****  ****    0  
@<TRIPOS>CRYSIN
   17.9910   19.1695   19.9287   90.0000   90.0000   90.0000    61     1
