@<TRIPOS>MOLECULE
UGOLEJ
    85    90     3     0     0
SMALL
USER_CHARGES
****
Generated from the CSD

@<TRIPOS>ATOM
     1 C1       5.8509   1.7613   1.2282   C.ar      1 RES1   0.0000
     2 H1       6.2589   1.5092   2.0473   H         1 RES1   0.0000
     3 C2       6.4476   1.4135   0.0384   C.ar      1 RES1   0.0000
     4 H2       7.2546   0.9131   0.0409   H         1 RES1   0.0000
     5 C3       5.8760   1.7911  -1.1565   C.ar      1 RES1   0.0000
     6 H3       6.2714   1.5415  -1.9831   H         1 RES1   0.0000
     7 C4       4.7122   2.5431  -1.1298   C.ar      1 RES1   0.0000
     8 H4       4.3141   2.8419  -1.9383   H         1 RES1   0.0000
     9 C5       4.1404   2.8519   0.0863   C.ar      1 RES1   0.0000
    10 C6       2.8336   3.5868   0.2394   C.3       1 RES1   0.0000
    11 H5       2.7543   4.2903  -0.4539   H         1 RES1   0.0000
    12 H6       2.0755   2.9596   0.1364   H         1 RES1   0.0000
    13 C7       3.6022   5.4688   1.5831   C.3       1 RES1   0.0000
    14 H7       2.9853   6.2361   1.6792   H         1 RES1   0.0000
    15 H8       4.0616   5.5546   0.7110   H         1 RES1   0.0000
    16 C8       4.6183   5.5157   2.6795   C.ar      1 RES1   0.0000
    17 C9       5.3275   6.6686   2.9719   C.ar      1 RES1   0.0000
    18 H9       5.1665   7.4682   2.4837   H         1 RES1   0.0000
    19 C10      6.2703   6.6471   3.9776   C.ar      1 RES1   0.0000
    20 H10      6.7496   7.4340   4.2057   H         1 RES1   0.0000
    21 C11      6.5051   5.4667   4.6456   C.ar      1 RES1   0.0000
    22 H11      7.1525   5.4293   5.3395   H         1 RES1   0.0000
    23 C12      5.7909   4.3401   4.2948   C.ar      1 RES1   0.0000
    24 H12      5.9670   3.5215   4.7434   H         1 RES1   0.0000
    25 C13      1.4280   4.4190   2.0988   C.3       1 RES1   0.0000
    26 H13      0.8596   3.6373   1.8837   H         1 RES1   0.0000
    27 H14      1.0333   5.2205   1.6714   H         1 RES1   0.0000
    28 C14      1.5084   4.6113   3.5995   C.3       1 RES1   0.0000
    29 H15      1.9771   5.4597   3.8005   H         1 RES1   0.0000
    30 H16      0.5945   4.6681   3.9759   H         1 RES1   0.0000
    31 C15      1.3549   2.2891   4.4619   C.3       1 RES1   0.0000
    32 H17      1.6977   1.7617   5.2265   H         1 RES1   0.0000
    33 H18      0.4477   2.6103   4.6966   H         1 RES1   0.0000
    34 C16      1.2674   1.4101   3.2633   C.ar      1 RES1   0.0000
    35 C17      0.2076   0.5397   3.0847   C.ar      1 RES1   0.0000
    36 H19     -0.5390   0.5619   3.6700   H         1 RES1   0.0000
    37 C18      0.2530  -0.3630   2.0401   C.ar      1 RES1   0.0000
    38 H20     -0.4602  -0.9720   1.8974   H         1 RES1   0.0000
    39 C19      1.3535  -0.3628   1.2099   C.ar      1 RES1   0.0000
    40 H21      1.4094  -0.9815   0.4909   H         1 RES1   0.0000
    41 C20      2.3649   0.5323   1.4242   C.ar      1 RES1   0.0000
    42 H22      3.1196   0.5183   0.8474   H         1 RES1   0.0000
    43 C21      2.8279   3.8936   5.5703   C.3       1 RES1   0.0000
    44 H23      3.2503   4.7820   5.4602   H         1 RES1   0.0000
    45 H24      3.5386   3.2538   5.8265   H         1 RES1   0.0000
    46 C22      1.8161   3.9729   6.6968   C.ar      1 RES1   0.0000
    47 C23      1.7555   2.9282   7.6130   C.ar      1 RES1   0.0000
    48 H25      2.3621   2.2002   7.5446   H         1 RES1   0.0000
    49 C24      0.8084   2.9491   8.6287   C.ar      1 RES1   0.0000
    50 H26      0.7665   2.2306   9.2491   H         1 RES1   0.0000
    51 C25     -0.0670   4.0020   8.7418   C.ar      1 RES1   0.0000
    52 H27     -0.7217   4.0018   9.4303   H         1 RES1   0.0000
    53 C26      0.0016   5.0630   7.8563   C.ar      1 RES1   0.0000
    54 H28     -0.5981   5.7957   7.9439   H         1 RES1   0.0000
    55 C27      0.9541   5.0561   6.8334   C.ar      1 RES1   0.0000
    56 H29      1.0136   5.7900   6.2336   H         1 RES1   0.0000
    57 C28      4.4330   0.4393   4.2137   C.3       1 RES1   0.0000
    58 H30      4.8728  -0.0266   3.4596   H         1 RES1   0.0000
    59 H31      3.4760   0.1841   4.2194   H         1 RES1   0.0000
    60 C29      5.0771   0.0256   5.5109   C.3       1 RES1   0.0000
    61 H32      5.1450  -0.9606   5.5537   H         1 RES1   0.0000
    62 H33      5.9903   0.4044   5.5693   H         1 RES1   0.0000
    63 O1       4.5499   1.8203   4.0477   O.3       1 RES1   0.0000
    64 O2       4.2741   0.5097   6.6004   O.3       1 RES1   0.0000
    65 Fe1      3.6518   2.8614   2.8706   Fe        1 RES1   2.0000
    66 N1       4.6991   2.4535   1.2489   N.ar      1 RES1   0.0000
    67 N2       2.8121   4.2000   1.5981   N.3       1 RES1   0.0000
    68 N3       4.8470   4.3723   3.3282   N.ar      1 RES1   0.0000
    69 N4       2.2476   3.4649   4.2375   N.3       1 RES1   0.0000
    70 N5       2.3243   1.4393   2.4323   N.ar      1 RES1   0.0000
    71 H34      4.8209   1.1238   7.0362   H         1 RES1   0.0000
    72 P1      15.4459   3.2779   1.4970   P.3       2 RES2  -1.0000
    73 F1      16.1696   4.6058   1.9649   F         2 RES2   0.0000
    74 F2      15.1959   3.9230   0.0645   F         2 RES2   0.0000
    75 F3      16.8467   2.7018   0.9699   F         2 RES2   0.0000
    76 F4      14.0459   3.8436   2.0039   F         2 RES2   0.0000
    77 F5      14.7110   1.9473   1.0202   F         2 RES2   0.0000
    78 F6      15.7049   2.6256   2.9162   F         2 RES2   0.0000
    79 P2      17.4550  -0.9712   6.6107   P.3       3 RES3  -1.0000
    80 F7      16.8528   0.4334   6.1313   F         3 RES3   0.0000
    81 F8      17.8547  -0.3286   8.0028   F         3 RES3   0.0000
    82 F9      18.8753  -0.5689   6.0063   F         3 RES3   0.0000
    83 F10     16.0249  -1.3761   7.2070   F         3 RES3   0.0000
    84 F11     17.0448  -1.6231   5.2068   F         3 RES3   0.0000
    85 F12     18.0549  -2.3777   7.0812   F         3 RES3   0.0000
@<TRIPOS>BOND
     1     1     2    1
     2     3     1   ar
     3     4     3    1
     4     5     3   ar
     5     6     5    1
     6     7     5   ar
     7     8     7    1
     8     9     7   ar
     9    10     9    1
    10    11    10    1
    11    12    10    1
    12    13    14    1
    13    15    13    1
    14    16    13    1
    15    17    16   ar
    16    18    17    1
    17    19    17   ar
    18    20    19    1
    19    21    19   ar
    20    22    21    1
    21    23    21   ar
    22    24    23    1
    23    25    26    1
    24    27    25    1
    25    28    25    1
    26    29    28    1
    27    30    28    1
    28    31    32    1
    29    33    31    1
    30    34    31    1
    31    35    34   ar
    32    36    35    1
    33    37    35   ar
    34    38    37    1
    35    39    37   ar
    36    40    39    1
    37    41    39   ar
    38    42    41    1
    39    43    44    1
    40    45    43    1
    41    46    43    1
    42    47    46   ar
    43    48    47    1
    44    49    47   ar
    45    50    49    1
    46    51    49   ar
    47    52    51    1
    48    53    51   ar
    49    54    53    1
    50    55    46   ar
    51    56    55    1
    52    57    58    1
    53    59    57    1
    54    60    57    1
    55    61    60    1
    56    62    60    1
    57    63    57    1
    58    64    60    1
    59    65    63    1
    60    66     1   ar
    61    67    10    1
    62    68    16   ar
    63    69    28    1
    64    70    34   ar
    65    71    64    1
    66     9    66   ar
    67    13    67    1
    68    23    68   ar
    69    25    67    1
    70    31    69    1
    71    41    70   ar
    72    43    69    1
    73    53    55   ar
    74    65    66    1
    75    65    67    1
    76    65    68    1
    77    65    69    1
    78    65    70    1
    79    72    73    1
    80    74    72    1
    81    75    72    1
    82    76    72    1
    83    77    72    1
    84    78    72    1
    85    79    80    1
    86    81    79    1
    87    82    79    1
    88    83    79    1
    89    84    79    1
    90    85    79    1
@<TRIPOS>SUBSTRUCTURE
     1 RES1        1 GROUP             0 ****  ****    0  
     2 RES2       72 GROUP             0 ****  ****    0  
     3 RES3       79 GROUP             0 ****  ****    0  
@<TRIPOS>CRYSIN
   17.9081   18.9837   19.4800   90.0000   90.0000   90.0000    61     1
