@<TRIPOS>MOLECULE
UGOLOT
    84    89     3     0     0
SMALL
USER_CHARGES
****
Generated from the CSD

@<TRIPOS>ATOM
     1 C1      14.6658   1.6785  11.1096   C.ar      1 RES1   0.0000
     2 H1      15.0526   1.4025  11.9330   H         1 RES1   0.0000
     3 C2      15.2956   1.3533   9.9285   C.ar      1 RES1   0.0000
     4 H2      16.0963   0.8400   9.9353   H         1 RES1   0.0000
     5 C3      14.7528   1.7789   8.7373   C.ar      1 RES1   0.0000
     6 H3      15.1759   1.5649   7.9142   H         1 RES1   0.0000
     7 C4      13.5881   2.5202   8.7475   C.ar      1 RES1   0.0000
     8 H4      13.2063   2.8296   7.9338   H         1 RES1   0.0000
     9 C5      12.9859   2.8045   9.9555   C.ar      1 RES1   0.0000
    10 C6      11.6830   3.5430  10.0953   C.3       1 RES1   0.0000
    11 H5      11.6084   4.2416   9.3967   H         1 RES1   0.0000
    12 H6      10.9221   2.9165   9.9980   H         1 RES1   0.0000
    13 C7      12.4878   5.4129  11.4232   C.3       1 RES1   0.0000
    14 H7      11.8891   6.1953  11.5197   H         1 RES1   0.0000
    15 H8      12.9453   5.4856  10.5483   H         1 RES1   0.0000
    16 C8      13.5114   5.4376  12.5203   C.ar      1 RES1   0.0000
    17 C9      14.2556   6.5691  12.7951   C.ar      1 RES1   0.0000
    18 H9      14.1250   7.3638  12.2914   H         1 RES1   0.0000
    19 C10     15.1895   6.5308  13.8100   C.ar      1 RES1   0.0000
    20 H10     15.7031   7.3015  14.0226   H         1 RES1   0.0000
    21 C11     15.3673   5.3582  14.5105   C.ar      1 RES1   0.0000
    22 H11     15.9980   5.3138  15.2193   H         1 RES1   0.0000
    23 C12     14.6254   4.2556  14.1736   C.ar      1 RES1   0.0000
    24 H12     14.7737   3.4412  14.6376   H         1 RES1   0.0000
    25 C13     10.2832   4.4247  11.9410   C.3       1 RES1   0.0000
    26 H13      9.6943   3.6564  11.7312   H         1 RES1   0.0000
    27 H14      9.9123   5.2326  11.5060   H         1 RES1   0.0000
    28 C14     10.3661   4.6261  13.4394   C.3       1 RES1   0.0000
    29 H15     10.8631   5.4591  13.6349   H         1 RES1   0.0000
    30 H16      9.4530   4.7173  13.8131   H         1 RES1   0.0000
    31 C15     10.1177   2.3284  14.2996   C.3       1 RES1   0.0000
    32 H17     10.4128   1.8084  15.0881   H         1 RES1   0.0000
    33 H18      9.2153   2.6862  14.4927   H         1 RES1   0.0000
    34 C16     10.0410   1.4214  13.1178   C.ar      1 RES1   0.0000
    35 C17      8.9772   0.5554  12.9465   C.ar      1 RES1   0.0000
    36 H19      8.2251   0.5927  13.5272   H         1 RES1   0.0000
    37 C18      9.0246  -0.3655  11.9202   C.ar      1 RES1   0.0000
    38 H20      8.3037  -0.9665  11.7782   H         1 RES1   0.0000
    39 C19     10.1409  -0.3996  11.1010   C.ar      1 RES1   0.0000
    40 H21     10.2036  -1.0401  10.4014   H         1 RES1   0.0000
    41 C20     11.1511   0.4978  11.3096   C.ar      1 RES1   0.0000
    42 H22     11.9087   0.4738  10.7383   H         1 RES1   0.0000
    43 C21     11.6483   3.8743  15.4230   C.3       1 RES1   0.0000
    44 H23     12.3448   3.2166  15.6736   H         1 RES1   0.0000
    45 H24     12.0910   4.7532  15.3192   H         1 RES1   0.0000
    46 C22     10.6458   3.9703  16.5522   C.ar      1 RES1   0.0000
    47 C23     10.5775   2.9348  17.4838   C.ar      1 RES1   0.0000
    48 H25     11.1777   2.2029  17.4186   H         1 RES1   0.0000
    49 C24      9.6414   2.9646  18.5052   C.ar      1 RES1   0.0000
    50 H26      9.5995   2.2520  19.1303   H         1 RES1   0.0000
    51 C25      8.7743   4.0232  18.6143   C.ar      1 RES1   0.0000
    52 H27      8.1250   4.0358  19.3066   H         1 RES1   0.0000
    53 C26      8.8487   5.0671  17.7171   C.ar      1 RES1   0.0000
    54 H28      8.2537   5.8027  17.8025   H         1 RES1   0.0000
    55 C27      9.7858   5.0539  16.6889   C.ar      1 RES1   0.0000
    56 H29      9.8372   5.7838  16.0830   H         1 RES1   0.0000
    57 C28     13.1859   0.3722  14.0779   C.3       1 RES1   0.0000
    58 H30     13.5459  -0.0849  13.2765   H         1 RES1   0.0000
    59 H31     12.2251   0.1454  14.1578   H         1 RES1   0.0000
    60 C29     13.9123  -0.0985  15.2888   C.3       1 RES1   0.0000
    61 H32     14.8595   0.1378  15.2134   H         1 RES1   0.0000
    62 H33     13.8229  -1.0722  15.3662   H         1 RES1   0.0000
    63 H34     13.5316   0.3285  16.0849   H         1 RES1   0.0000
    64 N1      13.5175   2.3771  11.1239   N.ar      1 RES1   0.0000
    65 N2      11.6701   4.1625  11.4469   N.3       1 RES1   0.0000
    66 N3      13.6878   4.2943  13.1981   N.ar      1 RES1   0.0000
    67 N4      11.0585   3.4671  14.0851   N.3       1 RES1   0.0000
    68 N5      11.1125   1.4199  12.3012   N.ar      1 RES1   0.0000
    69 O1      13.3287   1.7540  13.9306   O.3       1 RES1   0.0000
    70 Fe1     12.4721   2.8089  12.7430   Fe        1 RES1   2.0000
    71 F1       6.1447   3.7291   9.8072   F         2 RES2   0.0000
    72 F2       7.8239   2.6503  10.7851   F         2 RES2   0.0000
    73 F3       6.6577   2.5989  12.7160   F         2 RES2   0.0000
    74 F4       4.9326   3.6640  11.7077   F         2 RES2   0.0000
    75 F5       6.9997   4.5308  11.7009   F         2 RES2   0.0000
    76 F6       5.7722   1.7569  10.8219   F         2 RES2   0.0000
    77 P1       6.3678   3.1267  11.2628   P.3       2 RES2  -1.0000
    78 F7      10.6887   8.0471  12.2853   F         3 RES3   0.0000
    79 F8       8.6480   7.0778  12.4151   F         3 RES3   0.0000
    80 F9       7.8483   8.9055  13.4684   F         3 RES3   0.0000
    81 F10      9.8821   9.8776  13.3354   F         3 RES3   0.0000
    82 F11      9.6607   7.8363  14.2845   F         3 RES3   0.0000
    83 F12      8.8723   9.1073  11.4717   F         3 RES3   0.0000
    84 P2       9.2701   8.4785  12.8717   P.3       3 RES3  -1.0000
@<TRIPOS>BOND
     1     1     2    1
     2     3     1   ar
     3     4     3    1
     4     5     3   ar
     5     6     5    1
     6     7     5   ar
     7     8     7    1
     8     9     7   ar
     9    10     9    1
    10    11    10    1
    11    12    10    1
    12    13    14    1
    13    15    13    1
    14    16    13    1
    15    17    16   ar
    16    18    17    1
    17    19    17   ar
    18    20    19    1
    19    21    19   ar
    20    22    21    1
    21    23    21   ar
    22    24    23    1
    23    25    26    1
    24    27    25    1
    25    28    25    1
    26    29    28    1
    27    30    28    1
    28    31    32    1
    29    33    31    1
    30    34    31    1
    31    35    34   ar
    32    36    35    1
    33    37    35   ar
    34    38    37    1
    35    39    37   ar
    36    40    39    1
    37    41    39   ar
    38    42    41    1
    39    43    44    1
    40    45    43    1
    41    46    43    1
    42    47    46   ar
    43    48    47    1
    44    49    47   ar
    45    50    49    1
    46    51    49   ar
    47    52    51    1
    48    53    51   ar
    49    54    53    1
    50    55    46   ar
    51    56    55    1
    52    57    58    1
    53    59    57    1
    54    60    57    1
    55    61    60    1
    56    62    60    1
    57    63    60    1
    58    64     1   ar
    59    65    10    1
    60    66    16   ar
    61    67    28    1
    62    68    34   ar
    63    69    57    1
    64    70    64    1
    65     9    64   ar
    66    13    65    1
    67    23    66   ar
    68    25    65    1
    69    31    67    1
    70    41    68   ar
    71    43    67    1
    72    53    55   ar
    73    65    70    1
    74    66    70    1
    75    67    70    1
    76    68    70    1
    77    69    70    1
    78    71    77    1
    79    72    77    1
    80    73    77    1
    81    74    77    1
    82    75    77    1
    83    76    77    1
    84    78    84    1
    85    79    84    1
    86    80    84    1
    87    81    84    1
    88    82    84    1
    89    83    84    1
@<TRIPOS>SUBSTRUCTURE
     1 RES1        1 GROUP             0 ****  ****    0  
     2 RES2       71 GROUP             0 ****  ****    0  
     3 RES3       78 GROUP             0 ****  ****    0  
@<TRIPOS>CRYSIN
   17.8729   18.8767   19.5847   90.0000   90.0000   90.0000    61     1
