@<TRIPOS>MOLECULE
UGOMUA01
    87    92     3     0     0
SMALL
USER_CHARGES
****
Generated from the CSD

@<TRIPOS>ATOM
     1 C1      15.0213   4.4836   4.6315   C.ar      1 RES1   0.0000
     2 H1      15.1476   3.7166   5.1408   H         1 RES1   0.0000
     3 C2      15.6383   6.6892   4.1122   C.ar      1 RES1   0.0000
     4 H2      16.1675   7.4409   4.2572   H         1 RES1   0.0000
     5 C3      14.6825   6.6949   3.1098   C.ar      1 RES1   0.0000
     6 H3      14.5727   7.4428   2.5664   H         1 RES1   0.0000
     7 C4      13.8952   5.5769   2.9301   C.ar      1 RES1   0.0000
     8 C5      12.8351   5.5502   1.8679   C.3       1 RES1   0.0000
     9 H4      12.2364   6.3019   2.0068   H         1 RES1   0.0000
    10 H5      13.2562   5.6646   1.0024   H         1 RES1   0.0000
    11 C6      12.0972   3.6995   0.4980   C.3       1 RES1   0.0000
    12 H6      12.0276   4.3997  -0.1711   H         1 RES1   0.0000
    13 H7      11.3538   3.0870   0.3744   H         1 RES1   0.0000
    14 C7      13.3935   2.9649   0.3341   C.ar      1 RES1   0.0000
    15 C8      13.9996   2.7818  -0.8836   C.ar      1 RES1   0.0000
    16 H8      13.6407   3.1691  -1.6505   H         1 RES1   0.0000
    17 C9      15.7994   5.5788   4.8811   C.ar      1 RES1   0.0000
    18 H9      16.4275   5.5654   5.5655   H         1 RES1   0.0000
    19 C10     15.6603   1.4825   0.1832   C.ar      1 RES1   0.0000
    20 H10     16.4256   0.9540   0.1490   H         1 RES1   0.0000
    21 C11     15.0432   1.7190   1.3687   C.ar      1 RES1   0.0000
    22 H11     15.4131   1.3718   2.1477   H         1 RES1   0.0000
    23 C12     10.6416   4.5084   2.3248   C.3       1 RES1   0.0000
    24 H12     10.0905   3.7510   2.0732   H         1 RES1   0.0000
    25 H13     10.2736   5.3040   1.9122   H         1 RES1   0.0000
    26 C13     10.6434   4.6649   3.8288   C.3       1 RES1   0.0000
    27 H14     11.1140   5.4796   4.0639   H         1 RES1   0.0000
    28 H15      9.7298   4.7469   4.1424   H         1 RES1   0.0000
    29 C14     11.8519   3.9017   5.8580   C.3       1 RES1   0.0000
    30 H16     12.3005   4.7565   5.7628   H         1 RES1   0.0000
    31 H17     12.5238   3.2492   6.1130   H         1 RES1   0.0000
    32 C15     10.8503   4.0143   6.9842   C.ar      1 RES1   0.0000
    33 C16     10.0191   5.1209   7.1214   C.ar      1 RES1   0.0000
    34 H18     10.0777   5.8230   6.5136   H         1 RES1   0.0000
    35 C17      9.1091   5.1781   8.1601   C.ar      1 RES1   0.0000
    36 H19      8.5506   5.9184   8.2426   H         1 RES1   0.0000
    37 C18      9.0230   4.1517   9.0759   C.ar      1 RES1   0.0000
    38 H20      8.4042   4.1936   9.7683   H         1 RES1   0.0000
    39 C19      9.8506   3.0699   8.9592   C.ar      1 RES1   0.0000
    40 H21      9.8048   2.3811   9.5791   H         1 RES1   0.0000
    41 C20     15.1440   2.0243  -0.9621   C.ar      1 RES1   0.0000
    42 H22     15.5614   1.8812  -1.7814   H         1 RES1   0.0000
    43 C21     10.7624   2.9993   7.9145   C.ar      1 RES1   0.0000
    44 H23     11.3209   2.2590   7.8400   H         1 RES1   0.0000
    45 C22     10.3670   2.3620   4.6640   C.3       1 RES1   0.0000
    46 H24      9.4753   2.7054   4.8308   H         1 RES1   0.0000
    47 H25     10.6324   1.8488   5.4427   H         1 RES1   0.0000
    48 C23     10.3139   1.4472   3.4862   C.ar      1 RES1   0.0000
    49 C24      9.2482   0.6010   3.2829   C.ar      1 RES1   0.0000
    50 H26      8.5085   0.6315   3.8465   H         1 RES1   0.0000
    51 C25      9.2903  -0.2938   2.2343   C.ar      1 RES1   0.0000
    52 H27      8.5744  -0.8662   2.0773   H         1 RES1   0.0000
    53 C26     10.3926  -0.3301   1.4311   C.ar      1 RES1   0.0000
    54 H28     10.4420  -0.9349   0.7266   H         1 RES1   0.0000
    55 C27     11.4198   0.5342   1.6767   C.ar      1 RES1   0.0000
    56 H29     12.1723   0.5018   1.1312   H         1 RES1   0.0000
    57 O1      13.7204   1.7305   4.3739   O.3       1 RES1   0.0000
    58 Fe1     12.9010   2.8172   3.2240   Fe        1 RES1   2.0000
    59 N1      14.0723   4.4817   3.6670   N.ar      1 RES1   0.0000
    60 N2      12.0368   4.2953   1.8522   N.3       1 RES1   0.0000
    61 N3      13.9167   2.4408   1.4509   N.ar      1 RES1   0.0000
    62 N4      11.2945   3.5072   4.5126   N.3       1 RES1   0.0000
    63 N5      11.3850   1.4304   2.6823   N.ar      1 RES1   0.0000
    64 C28     14.7009  -1.4100   6.1150   C.3       1 RES1   0.0000
    65 H30     15.4204  -1.8545   5.6601   H         1 RES1   0.0000
    66 H31     13.9080  -1.9499   6.0647   H         1 RES1   0.0000
    67 H32     14.9371  -1.2745   7.0349   H         1 RES1   0.0000
    68 C29     14.4537  -0.1450   5.4951   C.3       1 RES1   0.0000
    69 H33     14.7009   0.4236   6.2398   H         1 RES1   0.0000
    70 H34     15.2337  -0.1202   4.9174   H         1 RES1   0.0000
    71 C30     13.8623   0.5361   4.9757   C.3       1 RES1   0.0000
    72 H35     13.1043   0.5762   5.5816   H         1 RES1   0.0000
    73 H36     13.5565  -0.0382   4.2572   H         1 RES1   0.0000
    74 P1      18.1191  18.0946   3.0815   P.3       2 RES2  -1.0000
    75 F1      17.5464  19.4935   3.5607   F         2 RES2   0.0000
    76 F2      16.6800  17.6648   2.5986   F         2 RES2   0.0000
    77 F3      18.7004  16.6827   2.6145   F         2 RES2   0.0000
    78 F4      19.5610  18.5014   3.5915   F         2 RES2   0.0000
    79 F5      17.7915  17.4644   4.5045   F         2 RES2   0.0000
    80 F6      18.4562  18.6952   1.6729   F         2 RES2   0.0000
    81 P2      11.7481  16.0434  18.6240   P.3       3 RES3  -1.0000
    82 F7      10.2851  16.4122  19.1292   F         3 RES3   0.0000
    83 F8      11.2275  14.5823  18.2867   F         3 RES3   0.0000
    84 F9      13.1775  15.6412  18.1337   F         3 RES3   0.0000
    85 F10     12.1595  17.4862  18.9046   F         3 RES3   0.0000
    86 F11     11.3502  16.4330  17.1597   F         3 RES3   0.0000
    87 F12     12.0752  15.5763  20.0656   F         3 RES3   0.0000
@<TRIPOS>BOND
     1     1     2    1
     2     3     4    1
     3     5     3   ar
     4     6     5    1
     5     7     5   ar
     6     8     7    1
     7     9     8    1
     8    10     8    1
     9    11    12    1
    10    13    11    1
    11    14    11    1
    12    15    14   ar
    13    16    15    1
    14    17     1   ar
    15    18    17    1
    16    19    20    1
    17    21    19   ar
    18    22    21    1
    19    23    24    1
    20    25    23    1
    21    26    23    1
    22    27    26    1
    23    28    26    1
    24    29    30    1
    25    31    29    1
    26    32    29    1
    27    33    32   ar
    28    34    33    1
    29    35    33   ar
    30    36    35    1
    31    37    35   ar
    32    38    37    1
    33    39    37   ar
    34    40    39    1
    35    41    15   ar
    36    42    41    1
    37    43    32   ar
    38    44    43    1
    39    45    46    1
    40    47    45    1
    41    48    45    1
    42    49    48   ar
    43    50    49    1
    44    51    49   ar
    45    52    51    1
    46    53    51   ar
    47    54    53    1
    48    55    53   ar
    49    56    55    1
    50    57    58    1
    51    58    59    1
    52    59     1   ar
    53    60     8    1
    54    61    14   ar
    55    62    26    1
    56    63    48   ar
    57    64    65    1
    58    66    64    1
    59    67    64    1
    60    68    64    1
    61    69    68    1
    62    70    68    1
    63    71    57    1
    64    72    71    1
    65    73    71    1
    66     3    17   ar
    67     7    59   ar
    68    11    60    1
    69    19    41   ar
    70    21    61   ar
    71    23    60    1
    72    29    62    1
    73    39    43   ar
    74    45    62    1
    75    55    63   ar
    76    58    60    1
    77    58    61    1
    78    58    62    1
    79    58    63    1
    80    68    71    1
    81    74    75    1
    82    76    74    1
    83    77    74    1
    84    78    74    1
    85    79    74    1
    86    80    74    1
    87    81    82    1
    88    83    81    1
    89    84    81    1
    90    85    81    1
    91    86    81    1
    92    87    81    1
@<TRIPOS>SUBSTRUCTURE
     1 RES1        1 GROUP             0 ****  ****    0  
     2 RES2       74 GROUP             0 ****  ****    0  
     3 RES3       81 GROUP             0 ****  ****    0  
@<TRIPOS>CRYSIN
   18.3097   19.0793   20.1284   90.0000   90.0000   90.0000    61     1
