@<TRIPOS>MOLECULE
UGOMIO
    90    95     3     0     0
SMALL
USER_CHARGES
****
Generated from the CSD

@<TRIPOS>ATOM
     1 C1      15.2230  17.2642   8.3281   C.ar      1 RES1   0.0000
     2 H1      15.5331  17.5668   7.4829   H         1 RES1   0.0000
     3 C2      15.9384  17.5739   9.4577   C.ar      1 RES1   0.0000
     4 H2      16.7120  18.1228   9.4004   H         1 RES1   0.0000
     5 C3      15.5234  17.0794  10.6737   C.ar      1 RES1   0.0000
     6 H3      16.0127  17.2755  11.4637   H         1 RES1   0.0000
     7 C4      14.3917  16.2972  10.7328   C.ar      1 RES1   0.0000
     8 H4      14.1107  15.9221  11.5603   H         1 RES1   0.0000
     9 C5      13.6717  16.0632   9.5866   C.ar      1 RES1   0.0000
    10 C6      12.3444  15.3593   9.5427   C.3       1 RES1   0.0000
    11 H5      12.3166  14.6454  10.2261   H         1 RES1   0.0000
    12 H6      11.6136  16.0007   9.7315   H         1 RES1   0.0000
    13 C7      12.9215  13.4749   8.0967   C.3       1 RES1   0.0000
    14 H7      13.3454  13.2882   8.9708   H         1 RES1   0.0000
    15 H8      12.2837  12.7419   7.9066   H         1 RES1   0.0000
    16 C8      13.9713  13.4933   7.0396   C.ar      1 RES1   0.0000
    17 C9      14.7693  12.3944   6.7831   C.ar      1 RES1   0.0000
    18 H9      14.6690  11.6013   7.2976   H         1 RES1   0.0000
    19 C10     15.7134  12.4561   5.7742   C.ar      1 RES1   0.0000
    20 H10     16.2598  11.7048   5.5772   H         1 RES1   0.0000
    21 C11     15.8459  13.6323   5.0577   C.ar      1 RES1   0.0000
    22 H11     16.4832  13.6985   4.3553   H         1 RES1   0.0000
    23 C12     15.0434  14.7070   5.3746   C.ar      1 RES1   0.0000
    24 H12     15.1523  15.5195   4.8933   H         1 RES1   0.0000
    25 C13     10.7357  14.6105   7.7952   C.3       1 RES1   0.0000
    26 H13     10.2150  15.4084   8.0682   H         1 RES1   0.0000
    27 H14     10.3487  13.8154   8.2396   H         1 RES1   0.0000
    28 C14     10.6901  14.4441   6.2874   C.3       1 RES1   0.0000
    29 H15     11.1029  13.5796   6.0383   H         1 RES1   0.0000
    30 H16      9.7482  14.4326   5.9851   H         1 RES1   0.0000
    31 C15     10.5464  16.7648   5.4270   C.3       1 RES1   0.0000
    32 H17     10.8539  17.2812   4.6391   H         1 RES1   0.0000
    33 H18      9.6182  16.4665   5.2520   H         1 RES1   0.0000
    34 C16     10.5572  17.6496   6.6282   C.ar      1 RES1   0.0000
    35 C17      9.5553  18.5723   6.8656   C.ar      1 RES1   0.0000
    36 H19      8.7908  18.6097   6.3024   H         1 RES1   0.0000
    37 C18      9.6834  19.4366   7.9334   C.ar      1 RES1   0.0000
    38 H20      9.0013  20.0704   8.1233   H         1 RES1   0.0000
    39 C19     10.8140  19.3688   8.7225   C.ar      1 RES1   0.0000
    40 H21     10.9253  19.9630   9.4556   H         1 RES1   0.0000
    41 C20     11.7724  18.4371   8.4387   C.ar      1 RES1   0.0000
    42 H22     12.5509  18.3988   8.9826   H         1 RES1   0.0000
    43 C21     11.9532  15.1275   4.2503   C.3       1 RES1   0.0000
    44 H23     12.6919  15.7342   3.9927   H         1 RES1   0.0000
    45 H24     12.3331  14.2179   4.3435   H         1 RES1   0.0000
    46 C22     10.9418  15.1074   3.1311   C.ar      1 RES1   0.0000
    47 C23     10.9623  16.1259   2.1824   C.ar      1 RES1   0.0000
    48 H25     11.6008  16.8250   2.2565   H         1 RES1   0.0000
    49 C24     10.0537  16.1282   1.1239   C.ar      1 RES1   0.0000
    50 H26     10.0722  16.8288   0.4828   H         1 RES1   0.0000
    51 C25      9.1337  15.1162   1.0108   C.ar      1 RES1   0.0000
    52 H27      8.5180  15.1151   0.2877   H         1 RES1   0.0000
    53 C26      9.0970  14.0956   1.9455   C.ar      1 RES1   0.0000
    54 H28      8.4558  13.3994   1.8643   H         1 RES1   0.0000
    55 C27      9.9957  14.0882   2.9996   C.ar      1 RES1   0.0000
    56 H29      9.9679  13.3841   3.6380   H         1 RES1   0.0000
    57 C28     13.6290  18.5834   5.4769   C.3       1 RES1   0.0000
    58 H30     13.9477  19.0544   6.2866   H         1 RES1   0.0000
    59 H31     12.6864  18.8416   5.3131   H         1 RES1   0.0000
    60 C29     14.4874  18.9520   4.2846   C.3       1 RES1   0.0000
    61 H32     14.1747  18.4371   3.4980   H         1 RES1   0.0000
    62 H33     15.4196  18.6748   4.4696   H         1 RES1   0.0000
    63 C30     14.4810  20.4267   3.9318   C.3       1 RES1   0.0000
    64 H34     13.5651  20.6991   3.6715   H         1 RES1   0.0000
    65 H35     14.7422  20.9560   4.7258   H         1 RES1   0.0000
    66 C31     15.4379  20.7189   2.7931   C.3       1 RES1   0.0000
    67 H36     16.3532  20.5036   3.0724   H         1 RES1   0.0000
    68 H37     15.3830  21.6691   2.5560   H         1 RES1   0.0000
    69 H38     15.1962  20.1739   2.0161   H         1 RES1   0.0000
    70 O1      13.7312  17.1852   5.6505   O.3       1 RES1   0.0000
    71 N1      14.0927  16.5407   8.3945   N.ar      1 RES1   0.0000
    72 N2      12.1703  14.7716   8.1823   N.3       1 RES1   0.0000
    73 N3      14.1116  14.6456   6.3408   N.ar      1 RES1   0.0000
    74 N4      11.4238  15.5673   5.6050   N.3       1 RES1   0.0000
    75 N5      11.6506  17.5615   7.4038   N.ar      1 RES1   0.0000
    76 Fe1     12.9224  16.1387   6.8721   Fe        1 RES1   2.0000
    77 P1       6.8120  15.9317   8.2798   P.3       2 RES2  -1.0000
    78 F1       6.1319  17.3475   8.5443   F         2 RES2   0.0000
    79 F2       5.4403  15.3829   7.6614   F         2 RES2   0.0000
    80 F3       7.5026  14.5224   8.0002   F         2 RES2   0.0000
    81 F4       8.1863  16.4792   8.9107   F         2 RES2   0.0000
    82 F5       7.2785  16.4257   6.8319   F         2 RES2   0.0000
    83 F6       6.3696  15.4352   9.7309   F         2 RES2   0.0000
    84 P2       9.4698  10.5244   6.6697   P.3       3 RES3  -1.0000
    85 F7       8.9814  11.9824   7.1149   F         3 RES3   0.0000
    86 F8       7.9811  10.1742   6.1989   F         3 RES3   0.0000
    87 F9       9.9565   9.0792   6.2115   F         3 RES3   0.0000
    88 F10     10.9594  10.8829   7.1321   F         3 RES3   0.0000
    89 F11      9.7932  11.1033   5.2098   F         3 RES3   0.0000
    90 F12      9.1371   9.9673   8.1228   F         3 RES3   0.0000
@<TRIPOS>BOND
     1     1     2    1
     2     3     1   ar
     3     4     3    1
     4     5     3   ar
     5     6     5    1
     6     7     5   ar
     7     8     7    1
     8     9     7   ar
     9    10     9    1
    10    11    10    1
    11    12    10    1
    12    13    14    1
    13    15    13    1
    14    16    13    1
    15    17    16   ar
    16    18    17    1
    17    19    17   ar
    18    20    19    1
    19    21    19   ar
    20    22    21    1
    21    23    21   ar
    22    24    23    1
    23    25    26    1
    24    27    25    1
    25    28    25    1
    26    29    28    1
    27    30    28    1
    28    31    32    1
    29    33    31    1
    30    34    31    1
    31    35    34   ar
    32    36    35    1
    33    37    35   ar
    34    38    37    1
    35    39    37   ar
    36    40    39    1
    37    41    39   ar
    38    42    41    1
    39    43    44    1
    40    45    43    1
    41    46    43    1
    42    47    46   ar
    43    48    47    1
    44    49    47   ar
    45    50    49    1
    46    51    49   ar
    47    52    51    1
    48    53    51   ar
    49    54    53    1
    50    55    46   ar
    51    56    55    1
    52    57    58    1
    53    59    57    1
    54    60    57    1
    55    61    60    1
    56    62    60    1
    57    63    60    1
    58    64    63    1
    59    65    63    1
    60    66    63    1
    61    67    66    1
    62    68    66    1
    63    69    66    1
    64    70    57    1
    65    71     1   ar
    66    72    10    1
    67    73    16   ar
    68    74    28    1
    69    75    34   ar
    70    76    70    1
    71     9    71   ar
    72    13    72    1
    73    23    73   ar
    74    25    72    1
    75    31    74    1
    76    41    75   ar
    77    43    74    1
    78    53    55   ar
    79    71    76    1
    80    72    76    1
    81    73    76    1
    82    74    76    1
    83    75    76    1
    84    77    78    1
    85    79    77    1
    86    80    77    1
    87    81    77    1
    88    82    77    1
    89    83    77    1
    90    84    85    1
    91    86    84    1
    92    87    84    1
    93    88    84    1
    94    89    84    1
    95    90    84    1
@<TRIPOS>SUBSTRUCTURE
     1 RES1        1 GROUP             0 ****  ****    0  
     2 RES2       77 GROUP             0 ****  ****    0  
     3 RES3       84 GROUP             0 ****  ****    0  
@<TRIPOS>CRYSIN
   18.3065   19.1694   19.7073   90.0000   90.0000   90.0000    61     1
