@<TRIPOS>MOLECULE
UGOMIO01
    90    95     3     0     0
SMALL
USER_CHARGES
****
Generated from the CSD

@<TRIPOS>ATOM
     1 C1      12.3457  11.6973  18.5810   C.ar      1 RES1   0.0000
     2 H1      12.0188  11.3334  17.7895   H         1 RES1   0.0000
     3 O1      13.7432  11.6926  15.6853   O.3       1 RES1   0.0000
     4 C2      11.6586  11.4743  19.7423   C.ar      1 RES1   0.0000
     5 H2      10.8957  10.9441  19.7503   H         1 RES1   0.0000
     6 C3      12.1203  12.0475  20.8857   C.ar      1 RES1   0.0000
     7 H3      11.6604  11.9243  21.6832   H         1 RES1   0.0000
     8 C4      13.2544  12.8007  20.8677   C.ar      1 RES1   0.0000
     9 H4      13.5647  13.2037  21.6472   H         1 RES1   0.0000
    10 C5      13.9360  12.9584  19.6834   C.ar      1 RES1   0.0000
    11 C6      15.2659  13.6615  19.5740   C.3       1 RES1   0.0000
    12 H5      15.3213  14.3698  20.2361   H         1 RES1   0.0000
    13 H6      15.9862  13.0335  19.7383   H         1 RES1   0.0000
    14 C7      14.6471  15.5137  18.1275   C.3       1 RES1   0.0000
    15 H7      15.2751  16.2323  17.9534   H         1 RES1   0.0000
    16 H8      14.2297  15.6884  18.9868   H         1 RES1   0.0000
    17 C8      13.5924  15.5274  17.0691   C.ar      1 RES1   0.0000
    18 C9      12.8130  16.6490  16.8481   C.ar      1 RES1   0.0000
    19 H9      12.9349  17.4159  17.3618   H         1 RES1   0.0000
    20 C10     11.8544  16.6196  15.8606   C.ar      1 RES1   0.0000
    21 H10     11.3243  17.3650  15.6967   H         1 RES1   0.0000
    22 C11     11.6900  15.4849  15.1251   C.ar      1 RES1   0.0000
    23 H11     11.0564  15.4516  14.4435   H         1 RES1   0.0000
    24 C12     12.4620  14.4030  15.3989   C.ar      1 RES1   0.0000
    25 H12     12.3364  13.6244  14.9052   H         1 RES1   0.0000
    26 C13     16.8207  14.3913  17.7875   C.3       1 RES1   0.0000
    27 H13     17.3364  13.6185  18.0673   H         1 RES1   0.0000
    28 H14     17.2034  15.1797  18.2033   H         1 RES1   0.0000
    29 C14     16.8700  14.5245  16.2790   C.3       1 RES1   0.0000
    30 H15     16.4424  15.3558  16.0185   H         1 RES1   0.0000
    31 H16     17.7963  14.5615  15.9906   H         1 RES1   0.0000
    32 C15     15.6519  13.7946  14.2434   C.3       1 RES1   0.0000
    33 H17     15.2271  14.6613  14.3355   H         1 RES1   0.0000
    34 H18     14.9648  13.1607  13.9837   H         1 RES1   0.0000
    35 C16     16.6659  13.8787  13.1211   C.ar      1 RES1   0.0000
    36 C17     17.5525  14.9312  12.9909   C.ar      1 RES1   0.0000
    37 H19     17.5488  15.6160  13.6200   H         1 RES1   0.0000
    38 C18     18.4502  14.9743  11.9270   C.ar      1 RES1   0.0000
    39 H20     19.0412  15.6864  11.8470   H         1 RES1   0.0000
    40 C19     18.4594  13.9765  11.0055   C.ar      1 RES1   0.0000
    41 H21     19.0560  14.0078  10.2919   H         1 RES1   0.0000
    42 C20     17.6005  12.9298  11.1214   C.ar      1 RES1   0.0000
    43 H22     17.6190  12.2451  10.4918   H         1 RES1   0.0000
    44 C21     16.6973  12.8770  12.1708   C.ar      1 RES1   0.0000
    45 H23     16.1081  12.1610  12.2348   H         1 RES1   0.0000
    46 C22     17.0815  12.2126  15.4493   C.3       1 RES1   0.0000
    47 H24     17.9866  12.5249  15.2990   H         1 RES1   0.0000
    48 H25     16.8100  11.7071  14.6673   H         1 RES1   0.0000
    49 C23     17.0719  11.3076  16.6406   C.ar      1 RES1   0.0000
    50 C24     18.0863  10.4100  16.8620   C.ar      1 RES1   0.0000
    51 H26     18.8325  10.3924  16.3064   H         1 RES1   0.0000
    52 C25     17.9810   9.5316  17.9234   C.ar      1 RES1   0.0000
    53 H27     18.6571   8.9173  18.0973   H         1 RES1   0.0000
    54 C26     16.8746   9.5785  18.7070   C.ar      1 RES1   0.0000
    55 H28     16.7823   8.9857  19.4185   H         1 RES1   0.0000
    56 C27     15.9049  10.4863  18.4535   C.ar      1 RES1   0.0000
    57 H29     15.1569  10.5098  19.0048   H         1 RES1   0.0000
    58 Fe1     14.5568  12.7731  16.8443   Fe        1 RES1   2.0000
    59 N1      13.4728  12.4171  18.5413   N.ar      1 RES1   0.0000
    60 N2      15.3948  14.2322  18.2096   N.3       1 RES1   0.0000
    61 N3      13.4112  14.4126  16.3639   N.ar      1 RES1   0.0000
    62 N4      16.1875  13.3853  15.5970   N.3       1 RES1   0.0000
    63 N5      15.9868  11.3624  17.4257   N.ar      1 RES1   0.0000
    64 C28     12.2533   8.4399  12.8784   C.3       1 RES1   0.0000
    65 H30     11.4332   8.7862  13.2402   H         1 RES1   0.0000
    66 H31     12.1166   7.5361  12.5866   H         1 RES1   0.0000
    67 H32     12.5267   8.9799  12.1328   H         1 RES1   0.0000
    68 C29     13.2526   8.4673  13.8718   C.3       1 RES1   0.0000
    69 H33     14.0597   8.0565  13.5240   H         1 RES1   0.0000
    70 H34     12.9571   7.9469  14.6354   H         1 RES1   0.0000
    71 C30     13.4835  10.4178  15.2710   C.3       1 RES1   0.0000
    72 H35     13.9988   9.8759  15.8886   H         1 RES1   0.0000
    73 H36     12.5581  10.2868  15.5308   H         1 RES1   0.0000
    74 C31     13.5610   9.8544  14.3175   C.3       1 RES1   0.0000
    75 H37     14.4920   9.9659  14.0677   H         1 RES1   0.0000
    76 H38     13.0642  10.4061  13.6939   H         1 RES1   0.0000
    77 P1      11.6283  13.0099  11.5422   P.3       2 RES2  -1.0000
    78 F1      12.2552  11.6255  11.2154   F         2 RES2   0.0000
    79 F2      13.0006  13.5258  12.1372   F         2 RES2   0.0000
    80 F3      10.9630  14.4028  11.8786   F         2 RES2   0.0000
    81 F4      10.2436  12.5075  10.9345   F         2 RES2   0.0000
    82 F5      12.0202  13.5539  10.1180   F         2 RES2   0.0000
    83 F6      11.1857  12.5075  12.9775   F         2 RES2   0.0000
    84 P2      18.1323  18.5279  16.8329   P.3       3 RES3  -1.0000
    85 F7      17.8628  17.9486  15.3845   F         3 RES3   0.0000
    86 F8      19.6059  18.8800  16.4017   F         3 RES3   0.0000
    87 F9      18.4373  19.0941  18.2434   F         3 RES3   0.0000
    88 F10     16.6626  18.1554  17.2238   F         3 RES3   0.0000
    89 F11     18.6284  17.0985  17.2998   F         3 RES3   0.0000
    90 F12     17.6476  19.9441  16.3489   F         3 RES3   0.0000
@<TRIPOS>BOND
     1     1     2    1
     2     3    58    1
     3     4     1   ar
     4     5     4    1
     5     6     4   ar
     6     7     6    1
     7     8     6   ar
     8     9     8    1
     9    10     8   ar
    10    11    10    1
    11    12    11    1
    12    13    11    1
    13    14    15    1
    14    16    14    1
    15    17    14    1
    16    18    17   ar
    17    19    18    1
    18    20    18   ar
    19    21    20    1
    20    22    20   ar
    21    23    22    1
    22    24    22   ar
    23    25    24    1
    24    26    27    1
    25    28    26    1
    26    29    26    1
    27    30    29    1
    28    31    29    1
    29    32    33    1
    30    34    32    1
    31    35    32    1
    32    36    35   ar
    33    37    36    1
    34    38    36   ar
    35    39    38    1
    36    40    38   ar
    37    41    40    1
    38    42    40   ar
    39    43    42    1
    40    44    35   ar
    41    45    44    1
    42    46    47    1
    43    48    46    1
    44    49    46    1
    45    50    49   ar
    46    51    50    1
    47    52    50   ar
    48    53    52    1
    49    54    52   ar
    50    55    54    1
    51    56    54   ar
    52    57    56    1
    53    58    59    1
    54    59     1   ar
    55    60    11    1
    56    61    17   ar
    57    62    29    1
    58    63    49   ar
    59    64    65    1
    60    66    64    1
    61    67    64    1
    62    68    64    1
    63    69    68    1
    64    70    68    1
    65    71     3    1
    66    72    71    1
    67    73    71    1
    68    74    68    1
    69    75    74    1
    70    76    74    1
    71    10    59   ar
    72    14    60    1
    73    24    61   ar
    74    26    60    1
    75    32    62    1
    76    42    44   ar
    77    46    62    1
    78    56    63   ar
    79    58    60    1
    80    58    61    1
    81    58    62    1
    82    58    63    1
    83    71    74    1
    84    77    78    1
    85    79    77    1
    86    80    77    1
    87    81    77    1
    88    82    77    1
    89    83    77    1
    90    84    85    1
    91    86    84    1
    92    87    84    1
    93    88    84    1
    94    89    84    1
    95    90    84    1
@<TRIPOS>SUBSTRUCTURE
     1 RES1        1 GROUP             0 ****  ****    0  
     2 RES2       77 GROUP             0 ****  ****    0  
     3 RES3       84 GROUP             0 ****  ****    0  
@<TRIPOS>CRYSIN
   18.4705   19.5640   19.9882   90.0000   90.0000   90.0000    61     1
