@<TRIPOS>MOLECULE
UGOMUA
    87    92     3     0     0
SMALL
USER_CHARGES
****
Generated from the CSD

@<TRIPOS>ATOM
     1 C1       5.8499  11.1297   1.4490   C.ar      1 RES1   0.0000
     2 H1       6.2163  10.8430   2.2772   H         1 RES1   0.0000
     3 C2       6.5042  10.8182   0.2813   C.ar      1 RES1   0.0000
     4 H2       7.2953  10.2932   0.2985   H         1 RES1   0.0000
     5 C3       5.9977  11.2772  -0.9158   C.ar      1 RES1   0.0000
     6 H3       6.4375  11.0701  -1.7316   H         1 RES1   0.0000
     7 C4       4.8459  12.0401  -0.9224   C.ar      1 RES1   0.0000
     8 H4       4.5009  12.3912  -1.7356   H         1 RES1   0.0000
     9 C5       4.2119  12.2795   0.2673   C.ar      1 RES1   0.0000
    10 C6       2.8935  13.0107   0.3831   C.3       1 RES1   0.0000
    11 H5       2.8286  13.7142  -0.3104   H         1 RES1   0.0000
    12 H6       2.1398  12.3799   0.2629   H         1 RES1   0.0000
    13 C7       3.6550  14.8835   1.7439   C.3       1 RES1   0.0000
    14 H7       4.0639  15.0090   0.8520   H         1 RES1   0.0000
    15 H8       3.0551  15.6527   1.9135   H         1 RES1   0.0000
    16 C8       4.7309  14.8602   2.7793   C.ar      1 RES1   0.0000
    17 C9       5.5607  15.9477   2.9918   C.ar      1 RES1   0.0000
    18 H9       5.4755  16.7261   2.4532   H         1 RES1   0.0000
    19 C10      6.5121  15.8954   3.9891   C.ar      1 RES1   0.0000
    20 H10      7.0813  16.6379   4.1591   H         1 RES1   0.0000
    21 C11      6.6184  14.7396   4.7351   C.ar      1 RES1   0.0000
    22 H11      7.2539  14.6825   5.4381   H         1 RES1   0.0000
    23 C12      5.8033  13.6733   4.4590   C.ar      1 RES1   0.0000
    24 H12      5.9035  12.8735   4.9597   H         1 RES1   0.0000
    25 C13      1.4546  13.8643   2.2158   C.3       1 RES1   0.0000
    26 H13      0.8739  13.0968   1.9866   H         1 RES1   0.0000
    27 H14      1.0861  14.6769   1.7870   H         1 RES1   0.0000
    28 C14      1.5108  14.0465   3.7185   C.3       1 RES1   0.0000
    29 H15      1.9852  14.8889   3.9318   H         1 RES1   0.0000
    30 H16      0.5916  14.1120   4.0781   H         1 RES1   0.0000
    31 C15      1.3028  11.7274   4.5669   C.3       1 RES1   0.0000
    32 H17      1.6166  11.1995   5.3432   H         1 RES1   0.0000
    33 H18      0.3956  12.0647   4.7759   H         1 RES1   0.0000
    34 C16      1.2287  10.8396   3.3704   C.ar      1 RES1   0.0000
    35 C17      0.1685   9.9769   3.1717   C.ar      1 RES1   0.0000
    36 H19     -0.5844   9.9966   3.7519   H         1 RES1   0.0000
    37 C18      0.2187   9.0869   2.1199   C.ar      1 RES1   0.0000
    38 H20     -0.5017   8.4879   1.9629   H         1 RES1   0.0000
    39 C19      1.3285   9.0773   1.2950   C.ar      1 RES1   0.0000
    40 H21      1.3900   8.4672   0.5693   H         1 RES1   0.0000
    41 C20      2.3441   9.9724   1.5474   C.ar      1 RES1   0.0000
    42 H22      3.1073   9.9629   0.9805   H         1 RES1   0.0000
    43 C21      2.8034  13.2955   5.7024   C.3       1 RES1   0.0000
    44 H23      3.5137  12.6502   5.9441   H         1 RES1   0.0000
    45 H24      3.2295  14.1833   5.6021   H         1 RES1   0.0000
    46 C22      1.8135  13.3653   6.8441   C.ar      1 RES1   0.0000
    47 C23      1.7610  12.3182   7.7665   C.ar      1 RES1   0.0000
    48 H25      2.3646  11.5880   7.6856   H         1 RES1   0.0000
    49 C24      0.8340  12.3345   8.7997   C.ar      1 RES1   0.0000
    50 H26      0.7966  11.6124   9.4153   H         1 RES1   0.0000
    51 C25     -0.0309  13.3989   8.9310   C.ar      1 RES1   0.0000
    52 H27     -0.6707  13.4064   9.6347   H         1 RES1   0.0000
    53 C26      0.0288  14.4573   8.0407   C.ar      1 RES1   0.0000
    54 H28     -0.5628  15.1930   8.1423   H         1 RES1   0.0000
    55 C27      0.9480  14.4504   7.0005   C.ar      1 RES1   0.0000
    56 H29      0.9890  15.1817   6.3968   H         1 RES1   0.0000
    57 C28      4.3863   9.8112   4.3811   C.3       1 RES1   0.0000
    58 H30      4.6879   9.3605   3.5522   H         1 RES1   0.0000
    59 H31      3.4471   9.5481   4.5564   H         1 RES1   0.0000
    60 C29      5.2615   9.4033   5.5403   C.3       1 RES1   0.0000
    61 H32      6.1786   9.7433   5.3867   H         1 RES1   0.0000
    62 H33      4.9180   9.8240   6.3671   H         1 RES1   0.0000
    63 C30      5.3190   7.9080   5.7366   C.3       1 RES1   0.0000
    64 H34      4.4182   7.5683   5.9184   H         1 RES1   0.0000
    65 H35      5.9053   7.7016   6.4937   H         1 RES1   0.0000
    66 H36      5.6697   7.4858   4.9261   H         1 RES1   0.0000
    67 N1       4.7039  11.8310   1.4446   N.ar      1 RES1   0.0000
    68 N2       2.8456  13.6185   1.7423   N.3       1 RES1   0.0000
    69 N3       4.8596  13.7303   3.4919   N.ar      1 RES1   0.0000
    70 N4       2.2217  12.8902   4.3645   N.3       1 RES1   0.0000
    71 N5       2.3058  10.8659   2.5660   N.ar      1 RES1   0.0000
    72 O1       4.4770  11.2127   4.2297   O.3       1 RES1   0.0000
    73 Fe1      3.6323  12.2585   3.0308   Fe        1 RES1   2.0000
    74 F1       8.1864   9.8936   3.5787   F         2 RES2   0.0000
    75 F2       7.2877   8.0517   2.6162   F         2 RES2   0.0000
    76 F3       9.3103   7.0342   2.6894   F         2 RES2   0.0000
    77 F4      10.2069   8.8731   3.6513   F         2 RES2   0.0000
    78 F5       8.4042   7.8654   4.5778   F         2 RES2   0.0000
    79 F6       9.0963   9.0488   1.6884   F         2 RES2   0.0000
    80 P1       8.7480   8.4680   3.1276   P.3       2 RES2  -1.0000
    81 F7      -2.7672  15.1128   9.9225   F         3 RES3   0.0000
    82 F8      -0.9908  16.1095  10.8574   F         3 RES3   0.0000
    83 F9      -2.0584  16.1284  12.8582   F         3 RES3   0.0000
    84 F10     -3.8631  15.1492  11.8995   F         3 RES3   0.0000
    85 F11     -1.8237  14.2091  11.7510   F         3 RES3   0.0000
    86 F12     -3.0213  17.0613  11.0442   F         3 RES3   0.0000
    87 P2      -2.4310  15.6336  11.3929   P.3       3 RES3  -1.0000
@<TRIPOS>BOND
     1     1     2    1
     2     3     1   ar
     3     4     3    1
     4     5     3   ar
     5     6     5    1
     6     7     5   ar
     7     8     7    1
     8     9     7   ar
     9    10     9    1
    10    11    10    1
    11    12    10    1
    12    13    14    1
    13    15    13    1
    14    16    13    1
    15    17    16   ar
    16    18    17    1
    17    19    17   ar
    18    20    19    1
    19    21    19   ar
    20    22    21    1
    21    23    21   ar
    22    24    23    1
    23    25    26    1
    24    27    25    1
    25    28    25    1
    26    29    28    1
    27    30    28    1
    28    31    32    1
    29    33    31    1
    30    34    31    1
    31    35    34   ar
    32    36    35    1
    33    37    35   ar
    34    38    37    1
    35    39    37   ar
    36    40    39    1
    37    41    39   ar
    38    42    41    1
    39    43    44    1
    40    45    43    1
    41    46    43    1
    42    47    46   ar
    43    48    47    1
    44    49    47   ar
    45    50    49    1
    46    51    49   ar
    47    52    51    1
    48    53    51   ar
    49    54    53    1
    50    55    46   ar
    51    56    55    1
    52    57    58    1
    53    59    57    1
    54    60    57    1
    55    61    60    1
    56    62    60    1
    57    63    60    1
    58    64    63    1
    59    65    63    1
    60    66    63    1
    61    67     1   ar
    62    68    10    1
    63    69    16   ar
    64    70    28    1
    65    71    34   ar
    66    72    57    1
    67    73    67    1
    68     9    67   ar
    69    13    68    1
    70    23    69   ar
    71    25    68    1
    72    31    70    1
    73    41    71   ar
    74    43    70    1
    75    53    55   ar
    76    68    73    1
    77    69    73    1
    78    70    73    1
    79    71    73    1
    80    72    73    1
    81    74    80    1
    82    75    80    1
    83    76    80    1
    84    77    80    1
    85    78    80    1
    86    79    80    1
    87    81    87    1
    88    82    87    1
    89    83    87    1
    90    84    87    1
    91    85    87    1
    92    86    87    1
@<TRIPOS>SUBSTRUCTURE
     1 RES1        1 GROUP             0 ****  ****    0  
     2 RES2       74 GROUP             0 ****  ****    0  
     3 RES3       81 GROUP             0 ****  ****    0  
@<TRIPOS>CRYSIN
   17.9819   18.7660   19.7676   90.0000   90.0000   90.0000    61     1
