@<TRIPOS>MOLECULE
UGOMAG
    90    95     3     0     0
SMALL
USER_CHARGES
****
Generated from the CSD

@<TRIPOS>ATOM
     1 C1      15.1362   1.7016   1.4931   C.ar      1 RES1   0.0000
     2 H1      15.4698   1.3812   2.3235   H         1 RES1   0.0000
     3 C2      15.8626   1.4746   0.3359   C.ar      1 RES1   0.0000
     4 H2      16.6769   0.9868   0.3669   H         1 RES1   0.0000
     5 C3      15.3906   1.9644  -0.8611   C.ar      1 RES1   0.0000
     6 H3      15.8776   1.8190  -1.6647   H         1 RES1   0.0000
     7 C4      14.1986   2.6722  -0.8836   C.ar      1 RES1   0.0000
     8 H4      13.8657   3.0266  -1.7002   H         1 RES1   0.0000
     9 C5      13.5061   2.8533   0.2897   C.ar      1 RES1   0.0000
    10 C6      12.1861   3.5758   0.3968   C.3       1 RES1   0.0000
    11 H5      12.1227   4.2813  -0.2959   H         1 RES1   0.0000
    12 H6      11.4368   2.9416   0.2722   H         1 RES1   0.0000
    13 C7      12.9622   5.4257   1.7714   C.3       1 RES1   0.0000
    14 H7      12.3824   6.2022   1.9724   H         1 RES1   0.0000
    15 H8      13.3536   5.5644   0.8738   H         1 RES1   0.0000
    16 C8      14.0655   5.3597   2.7854   C.ar      1 RES1   0.0000
    17 C9      14.9527   6.4101   2.9605   C.ar      1 RES1   0.0000
    18 H9      14.8936   7.1834   2.4122   H         1 RES1   0.0000
    19 C10     15.9230   6.3212   3.9394   C.ar      1 RES1   0.0000
    20 H10     16.5343   7.0343   4.0808   H         1 RES1   0.0000
    21 C11     15.9881   5.1716   4.7100   C.ar      1 RES1   0.0000
    22 H11     16.6294   5.0983   5.4063   H         1 RES1   0.0000
    23 C12     15.1137   4.1347   4.4560   C.ar      1 RES1   0.0000
    24 H12     15.1881   3.3322   4.9585   H         1 RES1   0.0000
    25 C13     10.7348   4.4393   2.2207   C.3       1 RES1   0.0000
    26 H13     10.1492   3.6775   1.9803   H         1 RES1   0.0000
    27 H14     10.3778   5.2568   1.7909   H         1 RES1   0.0000
    28 C14     10.7758   4.6140   3.7236   C.3       1 RES1   0.0000
    29 H15     11.2448   5.4569   3.9447   H         1 RES1   0.0000
    30 H16      9.8510   4.6757   4.0729   H         1 RES1   0.0000
    31 C15     10.5600   2.3137   4.6079   C.3       1 RES1   0.0000
    32 H17      9.6645   2.6586   4.8520   H         1 RES1   0.0000
    33 H18     10.8954   1.7718   5.3648   H         1 RES1   0.0000
    34 C16     10.4387   1.4444   3.3946   C.ar      1 RES1   0.0000
    35 C17      9.3389   0.6266   3.2019   C.ar      1 RES1   0.0000
    36 H19      8.5927   0.6680   3.7889   H         1 RES1   0.0000
    37 C18      9.3514  -0.2513   2.1335   C.ar      1 RES1   0.0000
    38 H20      8.6092  -0.8227   1.9724   H         1 RES1   0.0000
    39 C19     10.4577  -0.2885   1.3035   C.ar      1 RES1   0.0000
    40 H21     10.4912  -0.8963   0.5740   H         1 RES1   0.0000
    41 C20     11.5083   0.5638   1.5446   C.ar      1 RES1   0.0000
    42 H22     12.2635   0.5359   0.9684   H         1 RES1   0.0000
    43 C21     12.0791   3.8828   5.7063   C.3       1 RES1   0.0000
    44 H23     12.7921   3.2417   5.9487   H         1 RES1   0.0000
    45 H24     12.5031   4.7700   5.5917   H         1 RES1   0.0000
    46 C22     11.0972   3.9640   6.8522   C.ar      1 RES1   0.0000
    47 C23     11.0628   2.9294   7.7842   C.ar      1 RES1   0.0000
    48 H25     11.6709   2.2039   7.7060   H         1 RES1   0.0000
    49 C24     10.1430   2.9490   8.8321   C.ar      1 RES1   0.0000
    50 H26     10.1181   2.2341   9.4575   H         1 RES1   0.0000
    51 C25      9.2683   4.0104   8.9569   C.ar      1 RES1   0.0000
    52 H27      8.6348   4.0209   9.6646   H         1 RES1   0.0000
    53 C26      9.3128   5.0555   8.0558   C.ar      1 RES1   0.0000
    54 H28      8.7189   5.7908   8.1557   H         1 RES1   0.0000
    55 C27     10.2218   5.0397   7.0037   C.ar      1 RES1   0.0000
    56 H29     10.2461   5.7625   6.3865   H         1 RES1   0.0000
    57 C28     13.6055   0.2932   4.2972   C.3       1 RES1   0.0000
    58 H30     13.9645  -0.1057   3.4655   H         1 RES1   0.0000
    59 H31     12.6586   0.0189   4.3885   H         1 RES1   0.0000
    60 C29     14.4042  -0.1974   5.4932   C.3       1 RES1   0.0000
    61 H32     15.3308   0.1736   5.4280   H         1 RES1   0.0000
    62 C30     14.4966  -1.7172   5.5015   C.3       1 RES1   0.0000
    63 H33     13.6005  -2.0982   5.6193   H         1 RES1   0.0000
    64 H34     15.0747  -2.0058   6.2386   H         1 RES1   0.0000
    65 H35     14.8735  -2.0265   4.6508   H         1 RES1   0.0000
    66 C31     13.7787   0.2979   6.7901   C.3       1 RES1   0.0000
    67 H36     13.7926   1.2774   6.8066   H         1 RES1   0.0000
    68 H37     14.2882  -0.0491   7.5522   H         1 RES1   0.0000
    69 H38     12.8525  -0.0170   6.8461   H         1 RES1   0.0000
    70 O1      13.6932   1.7012   4.2299   O.3       1 RES1   0.0000
    71 Fe1     12.8832   2.7931   3.0442   Fe        1 RES1   2.0000
    72 N1      13.9687   2.3654   1.4655   N.ar      1 RES1   0.0000
    73 N2      12.1315   4.1809   1.7582   N.3       1 RES1   0.0000
    74 N3      14.1549   4.2328   3.5100   N.ar      1 RES1   0.0000
    75 N4      11.4838   3.4603   4.3783   N.3       1 RES1   0.0000
    76 N5      11.5048   1.4431   2.5757   N.ar      1 RES1   0.0000
    77 F1       9.8419   7.8466   4.6148   F         2 RES2   0.0000
    78 F2      10.9121   8.0002   2.6242   F         2 RES2   0.0000
    79 F3       9.0779   8.9878   1.7246   F         2 RES2   0.0000
    80 F4       8.0155   8.8419   3.7161   F         2 RES2   0.0000
    81 F5      10.0391   9.8537   3.5850   F         2 RES2   0.0000
    82 F6       8.8888   6.9888   2.7584   F         2 RES2   0.0000
    83 P1       9.4609   8.4245   3.1664   P.3       2 RES2  -1.0000
    84 F7       7.4267   4.5727   1.9639   F         3 RES3   0.0000
    85 F8       8.1733   2.7558   0.8475   F         3 RES3   0.0000
    86 F9       6.0531   1.9601   0.7471   F         3 RES3   0.0000
    87 F10      5.3065   3.7587   1.8917   F         3 RES3   0.0000
    88 F11      6.9735   2.5063   2.7550   F         3 RES3   0.0000
    89 F12      6.5058   4.0243  -0.0176   F         3 RES3   0.0000
    90 P2       6.7361   3.2637   1.3738   P.3       3 RES3  -1.0000
@<TRIPOS>BOND
     1     1     2    1
     2     3     1   ar
     3     4     3    1
     4     5     3   ar
     5     6     5    1
     6     7     5   ar
     7     8     7    1
     8     9     7   ar
     9    10     9    1
    10    11    10    1
    11    12    10    1
    12    13    14    1
    13    15    13    1
    14    16    13    1
    15    17    16   ar
    16    18    17    1
    17    19    17   ar
    18    20    19    1
    19    21    19   ar
    20    22    21    1
    21    23    21   ar
    22    24    23    1
    23    25    26    1
    24    27    25    1
    25    28    25    1
    26    29    28    1
    27    30    28    1
    28    31    32    1
    29    33    31    1
    30    34    31    1
    31    35    34   ar
    32    36    35    1
    33    37    35   ar
    34    38    37    1
    35    39    37   ar
    36    40    39    1
    37    41    39   ar
    38    42    41    1
    39    43    44    1
    40    45    43    1
    41    46    43    1
    42    47    46   ar
    43    48    47    1
    44    49    47   ar
    45    50    49    1
    46    51    49   ar
    47    52    51    1
    48    53    51   ar
    49    54    53    1
    50    55    46   ar
    51    56    55    1
    52    57    58    1
    53    59    57    1
    54    60    57    1
    55    61    60    1
    56    62    60    1
    57    63    62    1
    58    64    62    1
    59    65    62    1
    60    66    60    1
    61    67    66    1
    62    68    66    1
    63    69    66    1
    64    70    57    1
    65    71    70    1
    66    72     1   ar
    67    73    10    1
    68    74    16   ar
    69    75    28    1
    70    76    34   ar
    71     9    72   ar
    72    13    73    1
    73    23    74   ar
    74    25    73    1
    75    31    75    1
    76    41    76   ar
    77    43    75    1
    78    53    55   ar
    79    71    72    1
    80    71    73    1
    81    71    74    1
    82    71    75    1
    83    71    76    1
    84    77    83    1
    85    78    83    1
    86    79    83    1
    87    80    83    1
    88    81    83    1
    89    82    83    1
    90    84    90    1
    91    85    90    1
    92    86    90    1
    93    87    90    1
    94    88    90    1
    95    89    90    1
@<TRIPOS>SUBSTRUCTURE
     1 RES1        1 GROUP             0 ****  ****    0  
     2 RES2       77 GROUP             0 ****  ****    0  
     3 RES3       84 GROUP             0 ****  ****    0  
@<TRIPOS>CRYSIN
   18.2901   18.8688   19.7237   90.0000   90.0000   90.0000    61     1
