@<TRIPOS>MOLECULE
UHECUH
    78    83     3     0     0
SMALL
USER_CHARGES
****
Generated from the CSD

@<TRIPOS>ATOM
     1 Fe1     -3.9785  12.8339  12.5183   Fe        1 RES1   2.0000
     2 S1      -5.9636  11.9005  12.3756   S.o       1 RES1   0.0000
     3 O1      -5.9753  10.5357  11.7936   O.2       1 RES1   0.0000
     4 N1      -3.0144  10.7386  10.6537   N.pl3     1 RES1   0.0000
     5 N2      -3.6372  12.4688   9.5771   N.pl3     1 RES1   0.0000
     6 N3      -4.6184  14.6043  10.2000   N.pl3     1 RES1   0.0000
     7 N4      -5.0177  15.5723  12.0510   N.pl3     1 RES1   0.0000
     8 C1      -3.5616  11.9695  10.8406   C.3       1 RES1   0.0000
     9 C2      -2.7722  10.4880   9.3052   C.2       1 RES1   0.0000
    10 C3      -3.1538  11.5699   8.6381   C.2       1 RES1   0.0000
    11 C4      -4.2358  13.7084   9.1348   C.3       1 RES1   0.0000
    12 C5      -4.5269  14.4166  11.5462   C.3       1 RES1   0.0000
    13 C6      -5.1591  15.8474   9.8880   C.2       1 RES1   0.0000
    14 C7      -5.4038  16.4552  11.0503   C.2       1 RES1   0.0000
    15 C8      -4.9348  16.0185  13.4265   C.3       1 RES1   0.0000
    16 C9      -6.8425  11.7728  13.9231   C.3       1 RES1   0.0000
    17 C10     -7.1737  12.8378  11.4574   C.3       1 RES1   0.0000
    18 H1      -2.4040   9.6947   8.9343   H         1 RES1   0.0000
    19 H2      -3.1052  11.7032   7.6988   H         1 RES1   0.0000
    20 H3      -3.5944  14.1763   8.5437   H         1 RES1   0.0000
    21 H4      -5.0396  13.4974   8.5963   H         1 RES1   0.0000
    22 H5      -5.3219  16.1951   9.0194   H         1 RES1   0.0000
    23 H6      -5.7707  17.3232  11.1701   H         1 RES1   0.0000
    24 H7      -5.6995  16.6173  13.6161   H         1 RES1   0.0000
    25 H8      -4.1040  16.5429  13.5448   H         1 RES1   0.0000
    26 H9      -7.7144  11.3529  13.7701   H         1 RES1   0.0000
    27 H10     -6.9731  12.6683  14.2996   H         1 RES1   0.0000
    28 H11     -6.3226  11.2271  14.5500   H         1 RES1   0.0000
    29 H12     -8.0357  12.3719  11.4830   H         1 RES1   0.0000
    30 H13     -6.8784  12.9289  10.5266   H         1 RES1   0.0000
    31 H14     -7.2712  13.7271  11.8586   H         1 RES1   0.0000
    32 N1B     -4.9426  14.9292  14.3829   N.pl3     1 RES1   0.0000
    33 N2B     -4.3198  13.1990  15.4595   N.pl3     1 RES1   0.0000
    34 N3B     -3.3386  11.0635  14.8366   N.pl3     1 RES1   0.0000
    35 N4B     -2.9393  10.0955  12.9856   N.pl3     1 RES1   0.0000
    36 C1B     -4.3954  13.6983  14.1960   C.3       1 RES1   0.0000
    37 C2B     -5.1847  15.1798  15.7314   C.2       1 RES1   0.0000
    38 C3B     -4.8032  14.0979  16.3985   C.2       1 RES1   0.0000
    39 C4B     -3.7211  11.9594  15.9017   C.3       1 RES1   0.0000
    40 C5B     -3.4301  11.2512  13.4903   C.3       1 RES1   0.0000
    41 C6B     -2.7979   9.8204  15.1486   C.2       1 RES1   0.0000
    42 C7B     -2.5532   9.2126  13.9863   C.2       1 RES1   0.0000
    43 C8B     -3.0222   9.6493  11.6101   C.3       1 RES1   0.0000
    44 H1B     -5.5530  15.9731  16.1023   H         1 RES1   0.0000
    45 H2B     -4.8518  13.9646  17.3378   H         1 RES1   0.0000
    46 H3B     -4.3625  11.4915  16.4929   H         1 RES1   0.0000
    47 H4B     -2.9174  12.1704  16.4403   H         1 RES1   0.0000
    48 H5B     -2.6350   9.4727  16.0172   H         1 RES1   0.0000
    49 H6B     -2.1863   8.3446  13.8665   H         1 RES1   0.0000
    50 H7B     -2.2575   9.0505  11.4204   H         1 RES1   0.0000
    51 H8B     -3.8530   9.1249  11.4918   H         1 RES1   0.0000
    52 S1B     -1.9934  13.7673  12.6610   S.o       1 RES1   0.0000
    53 O1B     -1.9817  15.1321  13.2430   O.2       1 RES1   0.0000
    54 C9B     -1.1145  13.8950  11.1135   C.3       1 RES1   0.0000
    55 C10B    -0.7833  12.8300  13.5792   C.3       1 RES1   0.0000
    56 H9B     -0.2426  14.3149  11.2665   H         1 RES1   0.0000
    57 H10B    -0.9839  12.9995  10.7369   H         1 RES1   0.0000
    58 H11B    -1.6344  14.4407  10.4866   H         1 RES1   0.0000
    59 H12B     0.0787  13.2959  13.5536   H         1 RES1   0.0000
    60 H13B    -1.0785  12.7389  14.5100   H         1 RES1   0.0000
    61 H14B    -0.6857  11.9407  13.1780   H         1 RES1   0.0000
    62 P1       1.0904   9.6779  11.3040   P.3       2 RES2  -1.0000
    63 F1       0.0107   9.6082  12.4725   F         2 RES2   0.0000
    64 F2       2.1584   9.7498  10.1180   F         2 RES2   0.0000
    65 F3       1.5797   8.1980  11.6553   F         2 RES2   0.0000
    66 F4       0.0195   9.0595  10.2800   F         2 RES2   0.0000
    67 F5       0.5909  11.1412  10.9320   F         2 RES2   0.0000
    68 F6       2.1445  10.2732  12.3210   F         2 RES2   0.0000
    69 S2       6.0775   7.5662  13.2575   S.o       3 RES3   0.0000
    70 O2       6.0695   6.6559  12.0614   O.2       3 RES3   0.0000
    71 C11      4.3773   7.9537  13.5921   C.3       3 RES3   0.0000
    72 C12      6.3715   6.5322  14.6751   C.3       3 RES3   0.0000
    73 H15      4.3111   8.4216  14.4511   H         3 RES3   0.0000
    74 H16      3.8546   7.1254  13.6312   H         3 RES3   0.0000
    75 H17      4.0268   8.5281  12.8788   H         3 RES3   0.0000
    76 H18      6.3562   7.0792  15.4876   H         3 RES3   0.0000
    77 H19      7.2475   6.1012  14.5888   H         3 RES3   0.0000
    78 H20      5.6743   5.8458  14.7303   H         3 RES3   0.0000
@<TRIPOS>BOND
     1     1     2    1
     2     2     3    2
     3     4     8    1
     4     5     8    1
     5     6    11    1
     6     7    12    1
     7     8     1    1
     8     9     4    1
     9    10     5    1
    10    11     5    1
    11    12     1    1
    12    13     6    1
    13    14     7    1
    14    15     7    1
    15    16     2    1
    16    17     2    1
    17    18     9    1
    18    19    10    1
    19    20    11    1
    20    21    11    1
    21    22    13    1
    22    23    14    1
    23    24    15    1
    24    25    15    1
    25    26    16    1
    26    27    16    1
    27    28    16    1
    28    29    17    1
    29    30    17    1
    30    31    17    1
    31    32    15    1
    32    33    36    1
    33    34    39    1
    34    35    40    1
    35    36     1    1
    36    37    32    1
    37    38    33    1
    38    39    33    1
    39    40     1    1
    40    41    34    1
    41    42    35    1
    42    43     4    1
    43    44    37    1
    44    45    38    1
    45    46    39    1
    46    47    39    1
    47    48    41    1
    48    49    42    1
    49    50    43    1
    50    51    43    1
    51    52     1    1
    52    53    52    2
    53    54    52    1
    54    55    52    1
    55    56    54    1
    56    57    54    1
    57    58    54    1
    58    59    55    1
    59    60    55    1
    60    61    55    1
    61     6    12    1
    62     9    10    2
    63    13    14    2
    64    32    36    1
    65    34    40    1
    66    35    43    1
    67    37    38    2
    68    41    42    2
    69    62    63    1
    70    64    62    1
    71    65    62    1
    72    66    62    1
    73    67    62    1
    74    68    62    1
    75    69    70    2
    76    71    69    1
    77    72    69    1
    78    73    71    1
    79    74    71    1
    80    75    71    1
    81    76    72    1
    82    77    72    1
    83    78    72    1
@<TRIPOS>SUBSTRUCTURE
     1 RES1        1 GROUP             0 ****  ****    0  
     2 RES2       62 GROUP             0 ****  ****    0  
     3 RES3       69 GROUP             0 ****  ****    0  
@<TRIPOS>CRYSIN
   11.7373   12.8339   13.1353   90.0000  107.6310   90.0000   231     1
