@<TRIPOS>MOLECULE
UHEDUG
    79    84     2     0     0
SMALL
NO_CHARGES
****
Generated from the CSD

@<TRIPOS>ATOM
     1 Fe1     -1.1582  10.9985  -3.4393   Fe        1 RES1   0.0000
     2 O1      -2.2193  11.9682  -4.7882   O.co2     1 RES1   0.0000
     3 O2      -0.9606  11.8900  -6.6291   O.co2     1 RES1   0.0000
     4 O3       0.6876  11.9923  -3.7657   O.co2     1 RES1   0.0000
     5 O4       0.0105  14.1132  -3.8070   O.co2     1 RES1   0.0000
     6 O5      -4.5253  10.0696   0.9880   O.2       1 RES1   0.0000
     7 O6      -2.5825   9.5444   1.9728   O.3       1 RES1   0.0000
     8 O7      -0.5050   5.6724  -1.2005   O.2       1 RES1   0.0000
     9 O8      -1.9014   5.5503  -2.9469   O.3       1 RES1   0.0000
    10 O9      -2.6561   7.1097   0.2950   O.2       1 RES1   0.0000
    11 N1      -3.0248   9.5091  -2.8696   N.3       1 RES1   0.0000
    12 N2      -0.4419   9.8896  -1.5877   N.3       1 RES1   0.0000
    13 N3      -1.8086  12.2229  -1.7513   N.ar      1 RES1   0.0000
    14 N4      -0.1154   9.2390  -4.1901   N.ar      1 RES1   0.0000
    15 C1      -1.6391  11.7241  -0.5133   C.ar      1 RES1   0.0000
    16 C2      -1.8227  12.4978   0.6228   C.ar      1 RES1   0.0000
    17 H1      -1.6462  12.1407   1.4853   H         1 RES1   0.0000
    18 C3      -2.2679  13.7999   0.4742   C.ar      1 RES1   0.0000
    19 H2      -2.4284  14.3392   1.2390   H         1 RES1   0.0000
    20 C4      -2.4768  14.3039  -0.7895   C.ar      1 RES1   0.0000
    21 H3      -2.7927  15.1915  -0.9081   H         1 RES1   0.0000
    22 C5      -2.2183  13.4996  -1.8840   C.ar      1 RES1   0.0000
    23 H4      -2.3329  13.8585  -2.7569   H         1 RES1   0.0000
    24 C6       0.2853   8.3179  -3.2950   C.ar      1 RES1   0.0000
    25 C7       1.1646   7.2953  -3.6298   C.ar      1 RES1   0.0000
    26 H5       1.4317   6.6560  -2.9810   H         1 RES1   0.0000
    27 C8       1.6460   7.2269  -4.9301   C.ar      1 RES1   0.0000
    28 H6       2.2545   6.5424  -5.1829   H         1 RES1   0.0000
    29 C9       1.2272   8.1707  -5.8525   C.ar      1 RES1   0.0000
    30 H7       1.5333   8.1368  -6.7515   H         1 RES1   0.0000
    31 C10      0.3597   9.1586  -5.4473   C.ar      1 RES1   0.0000
    32 H8       0.0851   9.8119  -6.0805   H         1 RES1   0.0000
    33 C11     -1.3168  10.2428  -0.4300   C.3       1 RES1   0.0000
    34 H9      -0.8145  10.0696   0.4169   H         1 RES1   0.0000
    35 C12     -0.3204   8.4392  -1.9126   C.3       1 RES1   0.0000
    36 H10      0.3062   8.0201  -1.2547   H         1 RES1   0.0000
    37 C13     -1.6812   7.6605  -1.8631   C.3       1 RES1   0.0000
    38 C14     -2.3420   7.9463  -0.5185   C.2       1 RES1   0.0000
    39 C15     -2.6533   9.4372  -0.3948   C.3       1 RES1   0.0000
    40 C16     -3.6283   9.7665  -1.5465   C.3       1 RES1   0.0000
    41 H11     -4.4460   9.2188  -1.4488   H         1 RES1   0.0000
    42 H12     -3.8912  10.7196  -1.4879   H         1 RES1   0.0000
    43 C17     -2.6853   8.0740  -2.9601   C.3       1 RES1   0.0000
    44 H13     -2.2959   7.8852  -3.8500   H         1 RES1   0.0000
    45 H14     -3.5115   7.5368  -2.8676   H         1 RES1   0.0000
    46 C18     -4.0422   9.8116  -3.8969   C.3       1 RES1   0.0000
    47 H15     -3.6654   9.6519  -4.7868   H         1 RES1   0.0000
    48 H16     -4.3134  10.7504  -3.8213   H         1 RES1   0.0000
    49 H17     -4.8221   9.2347  -3.7640   H         1 RES1   0.0000
    50 C19      0.9266  10.3840  -1.2638   C.3       1 RES1   0.0000
    51 H18      1.2604   9.9209  -0.4664   H         1 RES1   0.0000
    52 H19      0.8931  11.3473  -1.0918   H         1 RES1   0.0000
    53 H20      1.5253  10.2061  -2.0195   H         1 RES1   0.0000
    54 C20     -3.3803   9.7130   0.9185   C.2       1 RES1   0.0000
    55 C21     -3.1893   9.7922   3.2728   C.3       1 RES1   0.0000
    56 H21     -2.5252   9.6420   3.9777   H         1 RES1   0.0000
    57 H22     -3.9457   9.1824   3.4018   H         1 RES1   0.0000
    58 H23     -3.5063  10.7194   3.3145   H         1 RES1   0.0000
    59 C22     -1.2992   6.1797  -1.9465   C.2       1 RES1   0.0000
    60 C23     -1.4547   4.1744  -3.1595   C.3       1 RES1   0.0000
    61 H24     -1.9493   3.7838  -3.9099   H         1 RES1   0.0000
    62 H25     -1.6187   3.6489  -2.3491   H         1 RES1   0.0000
    63 H26     -0.4951   4.1706  -3.3640   H         1 RES1   0.0000
    64 C24     -1.8674  12.3790  -5.9490   C.2       1 RES1   0.0000
    65 C25     -2.6349  13.5493  -6.4662   C.3       1 RES1   0.0000
    66 H27     -2.2970  13.7954  -7.3535   H         1 RES1   0.0000
    67 H28     -2.5268  14.3078  -5.8551   H         1 RES1   0.0000
    68 H29     -3.5843  13.3146  -6.5313   H         1 RES1   0.0000
    69 C26      0.8887  13.2221  -3.9191   C.2       1 RES1   0.0000
    70 C27      2.3031  13.6613  -4.2669   C.3       1 RES1   0.0000
    71 H30      2.8851  12.8737  -4.3177   H         1 RES1   0.0000
    72 H31      2.6358  14.2697  -3.5751   H         1 RES1   0.0000
    73 H32      2.2997  14.1206  -5.1320   H         1 RES1   0.0000
    74 O10      0.3791  16.4589  -5.0122   O.3       2 RES2   0.0000
    75 H33      0.2860  15.6361  -4.5080   H         2 RES2   0.0000
    76 C28     -0.0317  16.3270  -6.3320   C.3       2 RES2   0.0000
    77 H34      0.1923  15.4300  -6.6564   H         2 RES2   0.0000
    78 H35      0.4229  16.9978  -6.8844   H         2 RES2   0.0000
    79 H36     -1.0014  16.4616  -6.3867   H         2 RES2   0.0000
@<TRIPOS>BOND
     1     1     2    1
     2     2    64    1
     3     3    64    2
     4     4     1    1
     5     5    69    2
     6     6    54    2
     7     7    54    1
     8     8    59    2
     9     9    59    1
    10    10    38    2
    11    11     1    1
    12    12     1    1
    13    13     1    1
    14    14     1    1
    15    15    13   ar
    16    16    15   ar
    17    17    16    1
    18    18    16   ar
    19    19    18    1
    20    20    18   ar
    21    21    20    1
    22    22    13   ar
    23    23    22    1
    24    24    14   ar
    25    25    24   ar
    26    26    25    1
    27    27    25   ar
    28    28    27    1
    29    29    27   ar
    30    30    29    1
    31    31    14   ar
    32    32    31    1
    33    33    12    1
    34    34    33    1
    35    35    12    1
    36    36    35    1
    37    37    35    1
    38    38    37    1
    39    39    33    1
    40    40    11    1
    41    41    40    1
    42    42    40    1
    43    43    11    1
    44    44    43    1
    45    45    43    1
    46    46    11    1
    47    47    46    1
    48    48    46    1
    49    49    46    1
    50    50    12    1
    51    51    50    1
    52    52    50    1
    53    53    50    1
    54    54    39    1
    55    55     7    1
    56    56    55    1
    57    57    55    1
    58    58    55    1
    59    59    37    1
    60    60     9    1
    61    61    60    1
    62    62    60    1
    63    63    60    1
    64    64    65    1
    65    65    66    1
    66    67    65    1
    67    68    65    1
    68    69     4    1
    69    70    69    1
    70    71    70    1
    71    72    70    1
    72    73    70    1
    73    15    33    1
    74    20    22   ar
    75    24    35    1
    76    29    31   ar
    77    37    43    1
    78    38    39    1
    79    39    40    1
    80    74    75    1
    81    76    74    1
    82    77    76    1
    83    78    76    1
    84    79    76    1
@<TRIPOS>SUBSTRUCTURE
     1 RES1        1 GROUP             0 ****  ****    0  
     2 RES2       74 GROUP             0 ****  ****    0  
@<TRIPOS>CRYSIN
    8.1506   13.8427   14.7284  112.4060  105.2780   90.7740     2     1
