@<TRIPOS>MOLECULE
UHEFAO
    83    89     1     0     0
SMALL
NO_CHARGES
****
Generated from the CSD

@<TRIPOS>ATOM
     1 Fe1      3.8892   6.0420  10.7117   Fe        1 RES1   0.0000
     2 N1       2.2174   4.5154  10.0370   N.3       1 RES1   0.0000
     3 N2       4.8122   5.1580   8.8350   N.3       1 RES1   0.0000
     4 N3       5.1115   4.3643  11.4022   N.ar      1 RES1   0.0000
     5 N4       3.2744   7.3580   9.0767   N.ar      1 RES1   0.0000
     6 O1       2.7770   7.0318  11.9868   O.co2     1 RES1   0.0000
     7 O2       3.7462   6.4618  13.8985   O.co2     1 RES1   0.0000
     8 O3       5.6604   7.2642  11.2871   O.3       1 RES1   0.0000
     9 O4       5.7241   9.3615  10.0796   O.2       1 RES1   0.0000
    10 O5       7.7792   8.3049  10.7956   O.2       1 RES1   0.0000
    11 O6       3.7272   0.7116  10.0580   O.3       1 RES1   0.0000
    12 O7       5.0581   0.9435   8.2713   O.2       1 RES1   0.0000
    13 O8       2.7945   4.9351   5.2237   O.3       1 RES1   0.0000
    14 O9       0.7552   4.8811   6.1399   O.2       1 RES1   0.0000
    15 O10      2.9179   2.3215   6.7534   O.2       1 RES1   0.0000
    16 S1       6.3752   8.4872  11.0067   S.o2      1 RES1   0.0000
    17 F1       6.7235   8.7090  13.6025   F         1 RES1   0.0000
    18 F2       5.0064   9.7248  12.8500   F         1 RES1   0.0000
    19 F3       6.9457  10.5310  12.5286   F         1 RES1   0.0000
    20 C1       5.6432   3.5574  10.4602   C.ar      1 RES1   0.0000
    21 C2       6.6045   2.6066  10.7493   C.ar      1 RES1   0.0000
    22 H1       6.9752   2.0767  10.0671   H         1 RES1   0.0000
    23 C3       7.0113   2.4502  12.0625   C.ar      1 RES1   0.0000
    24 H2       7.6634   1.8115  12.2876   H         1 RES1   0.0000
    25 C4       6.4444   3.2435  13.0325   C.ar      1 RES1   0.0000
    26 H3       6.6894   3.1355  13.9341   H         1 RES1   0.0000
    27 C5       5.5192   4.1951  12.6793   C.ar      1 RES1   0.0000
    28 H4       5.0699   4.8162  13.2889   H         1 RES1   0.0000
    29 C6       3.5094   6.9396   7.8166   C.ar      1 RES1   0.0000
    30 C7       3.3167   7.7650   6.7199   C.ar      1 RES1   0.0000
    31 H5       3.5112   7.4614   5.8511   H         1 RES1   0.0000
    32 C8       2.8321   9.0446   6.9307   C.ar      1 RES1   0.0000
    33 H6       2.6855   9.6232   6.2043   H         1 RES1   0.0000
    34 C9       2.5680   9.4576   8.2055   C.ar      1 RES1   0.0000
    35 H7       2.2204  10.3160   8.3650   H         1 RES1   0.0000
    36 C10      2.8175   8.5966   9.2595   C.ar      1 RES1   0.0000
    37 H8       2.6596   8.8961  10.1354   H         1 RES1   0.0000
    38 C11      5.0443   3.7079   9.0743   C.3       1 RES1   0.0000
    39 H9       5.6990   3.3788   8.4092   H         1 RES1   0.0000
    40 C12      3.9288   5.4938   7.6714   C.3       1 RES1   0.0000
    41 H10      4.4527   5.3983   6.8381   H         1 RES1   0.0000
    42 C13      2.6652   4.5831   7.5745   C.3       1 RES1   0.0000
    43 C14      3.1092   3.1313   7.6301   C.2       1 RES1   0.0000
    44 C15      3.7498   2.8342   8.9775   C.3       1 RES1   0.0000
    45 C16      2.6866   3.1224  10.0614   C.3       1 RES1   0.0000
    46 H11      1.9212   2.5245   9.9261   H         1 RES1   0.0000
    47 H12      3.0670   2.9274  10.9430   H         1 RES1   0.0000
    48 C17      1.6420   4.7917   8.7040   C.3       1 RES1   0.0000
    49 H13      1.3186   5.7161   8.6784   H         1 RES1   0.0000
    50 H14      0.8748   4.1999   8.5559   H         1 RES1   0.0000
    51 C18      1.1371   4.6630  11.0456   C.3       1 RES1   0.0000
    52 H15      0.4089   4.0591  10.8291   H         1 RES1   0.0000
    53 H16      0.8121   5.5760  11.0399   H         1 RES1   0.0000
    54 H17      1.4850   4.4480  11.9244   H         1 RES1   0.0000
    55 C19      6.1341   5.7983   8.5901   C.3       1 RES1   0.0000
    56 H18      6.5312   5.4239   7.7896   H         1 RES1   0.0000
    57 H19      6.7175   5.6345   9.3478   H         1 RES1   0.0000
    58 H20      6.0141   6.7535   8.4747   H         1 RES1   0.0000
    59 C20      4.2452   1.3876   9.0373   C.2       1 RES1   0.0000
    60 C21      4.2386  -0.6458  10.2252   C.3       1 RES1   0.0000
    61 H21      3.8034  -1.0644  10.9843   H         1 RES1   0.0000
    62 H22      5.1964  -0.6140  10.3776   H         1 RES1   0.0000
    63 H23      4.0553  -1.1610   9.4233   H         1 RES1   0.0000
    64 C22      1.9427   4.8210   6.2414   C.2       1 RES1   0.0000
    65 C23      2.1976   5.2163   3.9268   C.3       1 RES1   0.0000
    66 H24      2.8955   5.2796   3.2560   H         1 RES1   0.0000
    67 H25      1.7117   6.0540   3.9681   H         1 RES1   0.0000
    68 H26      1.5870   4.5000   3.6904   H         1 RES1   0.0000
    69 C24      2.9374   7.1286  13.2547   C.2       1 RES1   0.0000
    70 C25      1.9941   8.0884  13.9797   C.3       1 RES1   0.0000
    71 C26      0.7654   7.2683  14.3528   C.3       1 RES1   0.0000
    72 H27      1.0329   6.5219  14.9126   H         1 RES1   0.0000
    73 H28      0.3440   6.9316  13.5467   H         1 RES1   0.0000
    74 H29      0.1386   7.8273  14.8385   H         1 RES1   0.0000
    75 C27      1.5912   9.2731  13.1009   C.3       1 RES1   0.0000
    76 H30      2.3816   9.7804  12.8602   H         1 RES1   0.0000
    77 H31      0.9752   9.8415  13.5880   H         1 RES1   0.0000
    78 H32      1.1602   8.9458  12.2961   H         1 RES1   0.0000
    79 C28      2.6562   8.5925  15.2601   C.3       1 RES1   0.0000
    80 H33      2.9132   7.8364  15.8099   H         1 RES1   0.0000
    81 H34      2.0315   9.1498  15.7487   H         1 RES1   0.0000
    82 H35      3.4443   9.1107  15.0337   H         1 RES1   0.0000
    83 C29      6.2626   9.3976  12.5824   C.3       1 RES1   0.0000
@<TRIPOS>BOND
     1     1     2    1
     2     2    45    1
     3     3     1    1
     4     4     1    1
     5     5     1    1
     6     6     1    1
     7     7    69    2
     8     8     1    1
     9     9    16    2
    10    10    16    2
    11    11    59    1
    12    12    59    2
    13    13    64    1
    14    14    64    2
    15    15    43    2
    16    16     8    1
    17    17    83    1
    18    18    83    1
    19    19    83    1
    20    20     4   ar
    21    21    20   ar
    22    22    21    1
    23    23    21   ar
    24    24    23    1
    25    25    23   ar
    26    26    25    1
    27    27     4   ar
    28    28    27    1
    29    29     5   ar
    30    30    29   ar
    31    31    30    1
    32    32    30   ar
    33    33    32    1
    34    34    32   ar
    35    35    34    1
    36    36     5   ar
    37    37    36    1
    38    38     3    1
    39    39    38    1
    40    40     3    1
    41    41    40    1
    42    42    40    1
    43    43    42    1
    44    44    38    1
    45    45    44    1
    46    46    45    1
    47    47    45    1
    48    48     2    1
    49    49    48    1
    50    50    48    1
    51    51     2    1
    52    52    51    1
    53    53    51    1
    54    54    51    1
    55    55     3    1
    56    56    55    1
    57    57    55    1
    58    58    55    1
    59    59    44    1
    60    60    11    1
    61    61    60    1
    62    62    60    1
    63    63    60    1
    64    64    42    1
    65    65    13    1
    66    66    65    1
    67    67    65    1
    68    68    65    1
    69    69     6    1
    70    70    69    1
    71    71    70    1
    72    72    71    1
    73    73    71    1
    74    74    71    1
    75    75    70    1
    76    76    75    1
    77    77    75    1
    78    78    75    1
    79    79    70    1
    80    80    79    1
    81    81    79    1
    82    82    79    1
    83    83    16    1
    84    20    38    1
    85    25    27   ar
    86    29    40    1
    87    34    36   ar
    88    42    48    1
    89    43    44    1
@<TRIPOS>SUBSTRUCTURE
     1 RES1        1 GROUP             0 ****  ****    0  
@<TRIPOS>CRYSIN
    8.9008   12.7600   15.1260   72.0800   82.0500   89.6760     2     1
