@<TRIPOS>MOLECULE
UHEFOC
    76    82     3     0     0
SMALL
USER_CHARGES
****
Generated from the CSD

@<TRIPOS>ATOM
     1 Fe1      7.8005   0.0756   3.4883   Fe        1 RES1   1.0000
     2 Cl1      7.2428   1.7937   1.8831   Cl        1 RES1   0.0000
     3 O1       7.5939  -2.7997   7.9967   O.3       1 RES1   0.0000
     4 O2       5.8643  -1.2316   8.0426   O.3       1 RES1   0.0000
     5 O3       9.7464  -0.3588   8.7657   O.2       1 RES1   0.0000
     6 O4       7.7294   0.5050   9.2054   O.3       1 RES1   0.0000
     7 O5       4.4019  -3.2449   6.5466   O.2       1 RES1   0.0000
     8 O6       6.1212  -4.5463   5.9418   O.3       1 RES1   0.0000
     9 N1       6.4865   0.2369   5.2379   N.3       1 RES1   0.0000
    10 N2       8.7051  -1.5697   4.9214   N.3       1 RES1   0.0000
    11 N3       8.7995   1.5040   4.7350   N.ar      1 RES1   0.0000
    12 N4       6.0587  -1.1238   2.9524   N.ar      1 RES1   0.0000
    13 N5       9.1126  -1.0041   2.1979   N.ar      1 RES1   0.0000
    14 C1       7.2895   0.6225   6.4293   C.3       1 RES1   0.0000
    15 C2       8.0120  -0.5779   7.0996   C.3       1 RES1   0.0000
    16 C3       9.1646  -1.1238   6.2601   C.3       1 RES1   0.0000
    17 C4       7.7137  -2.6478   5.1162   C.3       1 RES1   0.0000
    18 C5       6.5057  -2.1896   5.9526   C.3       1 RES1   0.0000
    19 C6       5.6886  -1.0204   5.3429   C.3       1 RES1   0.0000
    20 C7       6.9796  -1.7153   7.3596   C.3       1 RES1   0.0000
    21 C8       5.5542   1.3642   4.9544   C.3       1 RES1   0.0000
    22 C9       8.3252   1.6475   5.9883   C.ar      1 RES1   0.0000
    23 C10      9.7805   2.3136   4.3201   C.ar      1 RES1   0.0000
    24 C11     10.3459   3.2775   5.1384   C.ar      1 RES1   0.0000
    25 C12      9.8477   3.4440   6.4165   C.ar      1 RES1   0.0000
    26 C13      8.8070   2.6233   6.8510   C.ar      1 RES1   0.0000
    27 C14      8.6112  -0.1367   8.4432   C.2       1 RES1   0.0000
    28 C15      8.1711   0.8701  10.5372   C.3       1 RES1   0.0000
    29 C16      9.9012  -2.1183   4.2310   C.3       1 RES1   0.0000
    30 C17      5.5393  -3.3644   6.1807   C.2       1 RES1   0.0000
    31 C18      5.2857  -5.7078   6.2011   C.3       1 RES1   0.0000
    32 C19      5.1959  -1.3695   3.9514   C.ar      1 RES1   0.0000
    33 C20      5.6916  -1.4401   1.6949   C.ar      1 RES1   0.0000
    34 C21      4.4733  -2.0335   1.4003   C.ar      1 RES1   0.0000
    35 C22      3.5932  -2.2908   2.4337   C.ar      1 RES1   0.0000
    36 C23      3.9489  -1.9383   3.7338   C.ar      1 RES1   0.0000
    37 C24      9.8786  -1.9730   2.7324   C.ar      1 RES1   0.0000
    38 C25      9.1598  -0.8132   0.8633   C.ar      1 RES1   0.0000
    39 C26      9.9811  -1.5450   0.0265   C.ar      1 RES1   0.0000
    40 C27     10.7823  -2.5282   0.5795   C.ar      1 RES1   0.0000
    41 C28     10.7295  -2.7452   1.9432   C.ar      1 RES1   0.0000
    42 H1       7.4388  -2.7651   8.7989   H         1 RES1   0.0000
    43 H2       5.9826  -1.3103   8.7013   H         1 RES1   0.0000
    44 H5       6.7004   1.0244   7.1033   H         1 RES1   0.0000
    45 H6       9.7676  -0.5279   6.1578   H         1 RES1   0.0000
    46 H7       9.5416  -1.8115   6.7059   H         1 RES1   0.0000
    47 H8       8.1162  -3.3841   5.5903   H         1 RES1   0.0000
    48 H9       7.3778  -2.9222   4.2642   H         1 RES1   0.0000
    49 H10      5.0144  -0.8861   5.8539   H         1 RES1   0.0000
    50 H11      5.0511   1.1516   4.2056   H         1 RES1   0.0000
    51 H12      6.0284   2.1477   4.7829   H         1 RES1   0.0000
    52 H13      4.9966   1.5020   5.6572   H         1 RES1   0.0000
    53 H14     10.0759   2.2310   3.4652   H         1 RES1   0.0000
    54 H15     11.0089   3.7644   4.8248   H         1 RES1   0.0000
    55 H16     10.1857   4.0943   7.0294   H         1 RES1   0.0000
    56 H17      8.4319   2.7211   7.6736   H         1 RES1   0.0000
    57 H18      8.8106   0.2828  10.8906   H         1 RES1   0.0000
    58 H19      7.4904   0.7698  11.1276   H         1 RES1   0.0000
    59 H20      8.4449   1.7439  10.5280   H         1 RES1   0.0000
    60 H21     10.6229  -1.6528   4.5431   H         1 RES1   0.0000
    61 H22     10.0458  -3.0809   4.4580   H         1 RES1   0.0000
    62 H23      5.8509  -6.4415   5.9543   H         1 RES1   0.0000
    63 H24      5.0679  -5.6874   7.1674   H         1 RES1   0.0000
    64 H25      4.6239  -5.6858   5.6196   H         1 RES1   0.0000
    65 H26      6.3432  -1.3072   1.0012   H         1 RES1   0.0000
    66 H27      4.2447  -2.2891   0.5522   H         1 RES1   0.0000
    67 H28      2.7630  -2.6897   2.2116   H         1 RES1   0.0000
    68 H29      3.4726  -2.1571   4.4204   H         1 RES1   0.0000
    69 H30      8.6416  -0.0754   0.5159   H         1 RES1   0.0000
    70 H31      9.9948  -1.3841  -0.9203   H         1 RES1   0.0000
    71 H32     11.3430  -3.0636  -0.0181   H         1 RES1   0.0000
    72 H33     11.2513  -3.3386   2.3399   H         1 RES1   0.0000
    73 Cl2      1.8707   2.3248   3.1127   Cl        2 RES2  -1.0000
    74 O7       4.7065   3.7501   2.7349   O.3       3 RES3   0.0000
    75 H3       5.3473   2.9332   2.5574   H         3 RES3   0.0000
    76 H4       3.8522   3.2757   2.6857   H         3 RES3   0.0000
@<TRIPOS>BOND
     1     1     2    1
     2     3    20    1
     3     4    20    1
     4     5    27    2
     5     6    27    1
     6     7    30    2
     7     8    30    1
     8     9     1    1
     9    10     1    1
    10    11     1    1
    11    12     1    1
    12    13     1    1
    13    14     9    1
    14    15    14    1
    15    16    10    1
    16    17    10    1
    17    18    17    1
    18    19     9    1
    19    20    15    1
    20    21     9    1
    21    22    11   ar
    22    23    11   ar
    23    24    23   ar
    24    25    24   ar
    25    26    22   ar
    26    27    15    1
    27    28     6    1
    28    29    10    1
    29    30    18    1
    30    31     8    1
    31    32    12   ar
    32    33    12   ar
    33    34    33   ar
    34    35    34   ar
    35    36    32   ar
    36    37    13   ar
    37    38    13   ar
    38    39    38   ar
    39    40    39   ar
    40    41    37   ar
    41    42     3    1
    42    43     4    1
    43    44    14    1
    44    45    16    1
    45    46    16    1
    46    47    17    1
    47    48    17    1
    48    49    19    1
    49    50    21    1
    50    51    21    1
    51    52    21    1
    52    53    23    1
    53    54    24    1
    54    55    25    1
    55    56    26    1
    56    57    28    1
    57    58    28    1
    58    59    28    1
    59    60    29    1
    60    61    29    1
    61    62    31    1
    62    63    31    1
    63    64    31    1
    64    65    33    1
    65    66    34    1
    66    67    35    1
    67    68    36    1
    68    69    38    1
    69    70    39    1
    70    71    40    1
    71    72    41    1
    72    14    22    1
    73    15    16    1
    74    18    19    1
    75    18    20    1
    76    19    32    1
    77    25    26   ar
    78    29    37    1
    79    35    36   ar
    80    40    41   ar
    81    74    75    1
    82    76    74    1
@<TRIPOS>SUBSTRUCTURE
     1 RES1        1 GROUP             0 ****  ****    0  
     2 RES2       73 GROUP             0 ****  ****    0  
     3 RES3       74 GROUP             0 ****  ****    0  
@<TRIPOS>CRYSIN
   13.3059   15.7110   14.7703   90.0000  109.2510   90.0000   231     1
