@<TRIPOS>MOLECULE
UHEGIX
    85    94     1     0     0
SMALL
USER_CHARGES
****
Generated from the CSD

@<TRIPOS>ATOM
     1 Fe1     -7.5255   4.2691 -11.2090   Fe        1 RES1   1.0000
     2 S1      -6.9020   2.3740 -13.8104   S.o2      1 RES1   0.0000
     3 O1      -6.7638   2.9243 -12.4101   O.3       1 RES1   0.0000
     4 O2      -6.8253   3.4897 -14.7589   O.2       1 RES1   0.0000
     5 O3      -8.1876   1.6928 -13.9166   O.2       1 RES1   0.0000
     6 O4      -5.7662   1.4580 -13.9921   O.3       1 RES1  -1.0000
     7 O5     -10.8220   3.9162  -7.0816   O.3       1 RES1   0.0000
     8 H1     -11.5535   4.2600  -6.8921   H         1 RES1   0.0000
     9 O6     -10.1033   6.1214  -7.2477   O.3       1 RES1   0.0000
    10 H2     -10.7827   6.1892  -6.7763   H         1 RES1   0.0000
    11 O7     -12.8502   4.4617  -9.7106   O.2       1 RES1   0.0000
    12 O8     -12.2319   6.5264  -9.1083   O.3       1 RES1   0.0000
    13 O9      -7.9713   3.0169  -5.8754   O.2       1 RES1   0.0000
    14 O10     -7.8792   5.2254  -5.6724   O.3       1 RES1   0.0000
    15 C1     -10.3279   3.5046  -9.9220   C.3       1 RES1   0.0000
    16 H3     -10.8822   2.8599  -9.4355   H         1 RES1   0.0000
    17 H4     -10.6409   3.5294 -10.8515   H         1 RES1   0.0000
    18 C2     -10.5063   4.9047  -9.2895   C.3       1 RES1   0.0000
    19 C3     -10.0475   4.8353  -7.8064   C.3       1 RES1   0.0000
    20 C4      -8.6087   4.3229  -7.8131   C.3       1 RES1   0.0000
    21 C5      -8.5201   2.9938  -8.4691   C.3       1 RES1   0.0000
    22 H5      -9.0969   2.3606  -7.9926   H         1 RES1   0.0000
    23 H6      -7.5982   2.6665  -8.4104   H         1 RES1   0.0000
    24 C6      -9.6769   6.0008 -10.0009   C.3       1 RES1   0.0000
    25 H7      -9.9417   6.8769  -9.6200   H         1 RES1   0.0000
    26 C7      -7.7343   5.4585  -8.4372   C.3       1 RES1   0.0000
    27 H8      -7.7905   6.2553  -7.8534   H         1 RES1   0.0000
    28 C8     -11.9957   5.2403  -9.4103   C.2       1 RES1   0.0000
    29 C9     -13.6080   6.9910  -9.1855   C.3       1 RES1   0.0000
    30 H9     -13.6197   7.9597  -9.2392   H         1 RES1   0.0000
    31 H10    -14.0893   6.7050  -8.3936   H         1 RES1   0.0000
    32 H11    -14.0321   6.6174  -9.9740   H         1 RES1   0.0000
    33 C10     -8.1256   4.1195  -6.3653   C.2       1 RES1   0.0000
    34 C11     -7.4588   5.0403  -4.3000   C.3       1 RES1   0.0000
    35 H12     -7.5272   5.8834  -3.8252   H         1 RES1   0.0000
    36 H13     -6.5388   4.7328  -4.2832   H         1 RES1   0.0000
    37 H14     -8.0273   4.3807  -3.8738   H         1 RES1   0.0000
    38 C12     -7.5416   7.1513 -10.1972   C.3       1 RES1   0.0000
    39 H15     -8.1695   7.6654 -10.7474   H         1 RES1   0.0000
    40 H16     -7.3595   7.6720  -9.3885   H         1 RES1   0.0000
    41 C13     -9.9542   6.0371 -11.4773   C.ar      1 RES1   0.0000
    42 C14    -10.9427   6.8273 -12.0309   C.ar      1 RES1   0.0000
    43 H17    -11.4690   7.3943 -11.4957   H         1 RES1   0.0000
    44 C15    -11.1268   6.7562 -13.3731   C.ar      1 RES1   0.0000
    45 H18    -11.7758   7.3067 -13.7724   H         1 RES1   0.0000
    46 C16    -10.4192   5.9297 -14.1465   C.ar      1 RES1   0.0000
    47 H19    -10.5883   5.8619 -15.0692   H         1 RES1   0.0000
    48 C17     -9.4351   5.1858 -13.5492   C.ar      1 RES1   0.0000
    49 H20     -8.9062   4.6287 -14.0911   H         1 RES1   0.0000
    50 C18     -6.2652   5.0370  -8.5429   C.ar      1 RES1   0.0000
    51 C19     -5.3229   5.4618  -7.6672   C.ar      1 RES1   0.0000
    52 H21     -5.5505   5.9925  -6.9256   H         1 RES1   0.0000
    53 C20     -3.9820   5.0767  -7.9088   C.ar      1 RES1   0.0000
    54 H22     -3.3017   5.3957  -7.3450   H         1 RES1   0.0000
    55 C21     -3.6586   4.2501  -8.9489   C.ar      1 RES1   0.0000
    56 H23     -2.7758   3.9741  -9.1184   H         1 RES1   0.0000
    57 C22     -4.7299   3.8468  -9.7408   C.ar      1 RES1   0.0000
    58 H24     -4.5328   3.2616 -10.4505   H         1 RES1   0.0000
    59 C23     -6.2607   6.9777 -10.9588   C.ar      1 RES1   0.0000
    60 C24     -5.2143   7.8886 -10.8464   C.ar      1 RES1   0.0000
    61 H25     -5.2735   8.5994 -10.2324   H         1 RES1   0.0000
    62 C25     -4.1250   7.7547 -11.6098   C.ar      1 RES1   0.0000
    63 H26     -3.4478   8.4060 -11.5913   H         1 RES1   0.0000
    64 C26     -4.0106   6.6785 -12.4000   C.ar      1 RES1   0.0000
    65 H27     -3.2280   6.5446 -12.9033   H         1 RES1   0.0000
    66 C27     -5.0362   5.7710 -12.4755   C.ar      1 RES1   0.0000
    67 H28     -4.9525   5.0337 -13.0526   H         1 RES1   0.0000
    68 C28     -8.8443   1.6614 -10.4991   C.3       1 RES1   0.0000
    69 H29     -9.0053   1.7407 -11.4622   H         1 RES1   0.0000
    70 H30     -7.9245   1.3423 -10.3851   H         1 RES1   0.0000
    71 C29     -9.7738   0.5885  -9.9623   C.ar      1 RES1   0.0000
    72 C30    -10.8809   0.3372 -10.6233   C.ar      1 RES1   0.0000
    73 H31    -11.1275   0.8232 -11.3883   H         1 RES1   0.0000
    74 C31    -11.6887  -0.7257 -10.1032   C.ar      1 RES1   0.0000
    75 H32    -12.4810  -0.9654 -10.5478   H         1 RES1   0.0000
    76 C32    -11.3238  -1.4002  -8.9556   C.ar      1 RES1   0.0000
    77 H33    -11.8512  -2.0928  -8.6050   H         1 RES1   0.0000
    78 C33    -10.1931  -1.0365  -8.3735   C.ar      1 RES1   0.0000
    79 H34     -9.9455  -1.4927  -7.5900   H         1 RES1   0.0000
    80 N1      -8.9296   3.0516  -9.9002   N.3       1 RES1   0.0000
    81 N2      -8.1986   5.8387  -9.7995   N.3       1 RES1   0.0000
    82 N3      -9.1917   5.2139 -12.2322   N.ar      1 RES1   0.0000
    83 N4      -6.0192   4.2038  -9.5982   N.ar      1 RES1   0.0000
    84 N5      -6.1652   5.9065 -11.7423   N.ar      1 RES1   0.0000
    85 N6      -9.3739  -0.0479  -8.8181   N.ar      1 RES1   0.0000
@<TRIPOS>BOND
     1     1     3    1
     2     2     3    1
     3     4     2    2
     4     5     2    2
     5     6     2    1
     6     7     8    1
     7     9    10    1
     8    11    28    2
     9    12    28    1
    10    13    33    2
    11    14    33    1
    12    15    16    1
    13    17    15    1
    14    18    15    1
    15    19     7    1
    16    20    19    1
    17    21    20    1
    18    22    21    1
    19    23    21    1
    20    24    18    1
    21    25    24    1
    22    26    20    1
    23    27    26    1
    24    28    18    1
    25    29    12    1
    26    30    29    1
    27    31    29    1
    28    32    29    1
    29    33    20    1
    30    34    14    1
    31    35    34    1
    32    36    34    1
    33    37    34    1
    34    38    39    1
    35    40    38    1
    36    41    24    1
    37    42    41   ar
    38    43    42    1
    39    44    42   ar
    40    45    44    1
    41    46    44   ar
    42    47    46    1
    43    48    46   ar
    44    49    48    1
    45    50    26    1
    46    51    50   ar
    47    52    51    1
    48    53    51   ar
    49    54    53    1
    50    55    53   ar
    51    56    55    1
    52    57    55   ar
    53    58    57    1
    54    59    38    1
    55    60    59   ar
    56    61    60    1
    57    62    60   ar
    58    63    62    1
    59    64    62   ar
    60    65    64    1
    61    66    64   ar
    62    67    66    1
    63    68    69    1
    64    70    68    1
    65    71    68    1
    66    72    71   ar
    67    73    72    1
    68    74    72   ar
    69    75    74    1
    70    76    74   ar
    71    77    76    1
    72    78    76   ar
    73    79    78    1
    74    80     1    1
    75    81     1    1
    76    82     1    1
    77    83     1    1
    78    84     1    1
    79    85    71   ar
    80     9    19    1
    81    15    80    1
    82    18    19    1
    83    21    80    1
    84    24    81    1
    85    26    81    1
    86    38    81    1
    87    41    82   ar
    88    48    82   ar
    89    50    83   ar
    90    57    83   ar
    91    59    84   ar
    92    66    84   ar
    93    68    80    1
    94    78    85   ar
@<TRIPOS>SUBSTRUCTURE
     1 RES1        1 GROUP             0 ****  ****    0  
@<TRIPOS>CRYSIN
   12.5210   16.5310   16.7790   90.0000   90.8500   90.0000   231     1
