@<TRIPOS>MOLECULE
UHEZUD
    77    82     1     0     0
SMALL
NO_CHARGES
****
Generated from the CSD

@<TRIPOS>ATOM
     1 C1       1.5276  -2.4858   5.9853   C.ar      1 RES1   0.0000
     2 C2       2.7055  -3.2815   5.8483   C.ar      1 RES1   0.0000
     3 C3       2.9237  -4.2699   6.7866   C.ar      1 RES1   0.0000
     4 H1       3.6853  -4.7962   6.6959   H         1 RES1   0.0000
     5 C4       2.0705  -4.5313   7.8672   C.ar      1 RES1   0.0000
     6 C5       0.9617  -3.7474   8.0043   C.ar      1 RES1   0.0000
     7 H2       0.3810  -3.9014   8.7155   H         1 RES1   0.0000
     8 C6       0.6750  -2.7124   7.0974   C.ar      1 RES1   0.0000
     9 C7      -0.5923  -2.0337   7.2108   C.2       1 RES1   0.0000
    10 H3      -1.2151  -2.3998   7.7962   H         1 RES1   0.0000
    11 C8      -2.3746  -0.6429   6.5122   C.3       1 RES1   0.0000
    12 H4      -2.5081   0.2957   6.7204   H         1 RES1   0.0000
    13 H5      -2.8658  -1.1719   7.1605   H         1 RES1   0.0000
    14 C9      -2.8828  -0.9400   5.1085   C.3       1 RES1   0.0000
    15 H6      -2.6478  -1.8545   4.8883   H         1 RES1   0.0000
    16 H7      -3.8517  -0.8849   5.1181   H         1 RES1   0.0000
    17 C10     -2.3663  -0.0367   4.0037   C.3       1 RES1   0.0000
    18 H8      -2.8347  -0.2440   3.1801   H         1 RES1   0.0000
    19 H9      -2.5627   0.8849   4.2314   H         1 RES1   0.0000
    20 C11     -0.4724   0.6807   2.6688   C.3       1 RES1   0.0000
    21 H10     -0.8027   1.5830   2.8036   H         1 RES1   0.0000
    22 H11     -0.8356   0.3463   1.8337   H         1 RES1   0.0000
    23 C12      1.0433   0.6949   2.6005   C.3       1 RES1   0.0000
    24 H12      1.3710  -0.1693   2.3048   H         1 RES1   0.0000
    25 H13      1.3410   1.3675   1.9690   H         1 RES1   0.0000
    26 C13      2.6135   1.7120   4.0803   C.2       1 RES1   0.0000
    27 H14      2.9719   2.0942   3.3121   H         1 RES1   0.0000
    28 C14      3.2961   1.9840   5.3149   C.ar      1 RES1   0.0000
    29 C15      4.4388   2.8073   5.2545   C.ar      1 RES1   0.0000
    30 H15      4.6641   3.2089   4.4466   H         1 RES1   0.0000
    31 C16      5.2241   3.0325   6.3483   C.ar      1 RES1   0.0000
    32 C17      4.8633   2.3980   7.5391   C.ar      1 RES1   0.0000
    33 H16      5.3972   2.5405   8.2868   H         1 RES1   0.0000
    34 C18      3.7623   1.5701   7.6806   C.ar      1 RES1   0.0000
    35 C19      2.9321   1.3708   6.5443   C.ar      1 RES1   0.0000
    36 C20      3.6940  -3.0104   4.7030   C.3       1 RES1   0.0000
    37 C21      4.1929  -1.5600   4.7926   C.3       1 RES1   0.0000
    38 H17      4.8097  -1.3895   4.0782   H         1 RES1   0.0000
    39 H18      4.6332  -1.4247   5.6348   H         1 RES1   0.0000
    40 H19      3.4467  -0.9597   4.7220   H         1 RES1   0.0000
    41 C22      4.9230  -3.9270   4.7796   C.3       1 RES1   0.0000
    42 H20      5.5166  -3.7288   4.0505   H         1 RES1   0.0000
    43 H21      4.6424  -4.8435   4.7237   H         1 RES1   0.0000
    44 H22      5.3798  -3.7816   5.6120   H         1 RES1   0.0000
    45 C23      3.0323  -3.2389   3.3421   C.3       1 RES1   0.0000
    46 H23      3.6679  -3.0637   2.6438   H         1 RES1   0.0000
    47 H24      2.2824  -2.6471   3.2485   H         1 RES1   0.0000
    48 H25      2.7326  -4.1488   3.2811   H         1 RES1   0.0000
    49 C24      2.3764  -5.6680   8.8186   C.3       1 RES1   0.0000
    50 H26      3.1939  -6.0956   8.5541   H         1 RES1   0.0000
    51 H27      1.6594  -6.3067   8.7953   H         1 RES1   0.0000
    52 H28      2.4687  -5.3228   9.7097   H         1 RES1   0.0000
    53 C25      6.4650   3.9014   6.2977   C.3       1 RES1   0.0000
    54 H29      6.8717   3.9300   7.1670   H         1 RES1   0.0000
    55 H30      6.2225   4.7907   6.0293   H         1 RES1   0.0000
    56 H31      7.0878   3.5342   5.6658   H         1 RES1   0.0000
    57 C26      3.4562   0.8410   8.9898   C.3       1 RES1   0.0000
    58 C27      4.4358   1.2213  10.0974   C.3       1 RES1   0.0000
    59 H32      4.2118   0.7453  10.8996   H         1 RES1   0.0000
    60 H33      4.3824   2.1667  10.2607   H         1 RES1   0.0000
    61 H34      5.3278   0.9927   9.8287   H         1 RES1   0.0000
    62 C28      3.5723  -0.6711   8.7779   C.3       1 RES1   0.0000
    63 H35      3.3804  -1.1257   9.6005   H         1 RES1   0.0000
    64 H36      4.4632  -0.8871   8.4938   H         1 RES1   0.0000
    65 H37      2.9459  -0.9487   8.1059   H         1 RES1   0.0000
    66 C29      2.0437   1.1905   9.4830   C.3       1 RES1   0.0000
    67 H38      1.8672   0.7255  10.3047   H         1 RES1   0.0000
    68 H39      1.4002   0.9267   8.8214   H         1 RES1   0.0000
    69 H40      1.9812   2.1370   9.6315   H         1 RES1   0.0000
    70 N1      -0.9063  -0.1781   3.7768   N.3       1 RES1   0.0000
    71 H41     -0.7692  -1.0366   3.5077   H         1 RES1   0.0000
    72 N2       1.5600   0.9952   3.9312   N.2       1 RES1   0.0000
    73 N3      -0.9409  -0.9724   6.5810   N.2       1 RES1   0.0000
    74 O1       1.2119  -1.5964   5.0757   O.3       1 RES1   0.0000
    75 O2       1.8844   0.5875   6.6320   O.3       1 RES1   0.0000
    76 Cl1     -0.6879   2.2409   5.9711   Cl        1 RES1   0.0000
    77 Fe1      0.4331   0.1640   5.4861   Fe        1 RES1   0.0000
@<TRIPOS>BOND
     1     1     2   ar
     2     2     3   ar
     3     3     4    1
     4     5     3   ar
     5     6     5   ar
     6     7     6    1
     7     8     1   ar
     8     9     8    1
     9    10     9    1
    10    11    12    1
    11    13    11    1
    12    14    11    1
    13    15    14    1
    14    16    14    1
    15    17    14    1
    16    18    17    1
    17    19    17    1
    18    20    21    1
    19    22    20    1
    20    23    20    1
    21    24    23    1
    22    25    23    1
    23    26    27    1
    24    28    26    1
    25    29    28   ar
    26    30    29    1
    27    31    29   ar
    28    32    31   ar
    29    33    32    1
    30    34    32   ar
    31    35    28   ar
    32    36     2    1
    33    37    36    1
    34    38    37    1
    35    39    37    1
    36    40    37    1
    37    41    36    1
    38    42    41    1
    39    43    41    1
    40    44    41    1
    41    45    36    1
    42    46    45    1
    43    47    45    1
    44    48    45    1
    45    49     5    1
    46    50    49    1
    47    51    49    1
    48    52    49    1
    49    53    31    1
    50    54    53    1
    51    55    53    1
    52    56    53    1
    53    57    34    1
    54    58    57    1
    55    59    58    1
    56    60    58    1
    57    61    58    1
    58    62    57    1
    59    63    62    1
    60    64    62    1
    61    65    62    1
    62    66    57    1
    63    67    66    1
    64    68    66    1
    65    69    66    1
    66    70    17    1
    67    71    70    1
    68    72    23    1
    69    73     9    2
    70    74     1    1
    71    75    35    1
    72    76    77    1
    73    77    70    1
    74     6     8   ar
    75    11    73    1
    76    20    70    1
    77    26    72    2
    78    34    35   ar
    79    72    77    1
    80    73    77    1
    81    74    77    1
    82    75    77    1
@<TRIPOS>SUBSTRUCTURE
     1 RES1        1 GROUP             0 ****  ****    0  
@<TRIPOS>CRYSIN
   16.3850   10.9930   16.8490   90.0000  104.6700   90.0000    14     1
