@<TRIPOS>MOLECULE
UJUFUB
   185   202     5     0     0
SMALL
NO_CHARGES
****
Generated from the CSD

@<TRIPOS>ATOM
     1 N1       6.2433   5.5841  15.5442   N.2       1 RES1   0.0000
     2 N2       4.2490   3.5942  15.6546   N.2       1 RES1   0.0000
     3 N3       4.7130   2.9401  12.9429   N.2       1 RES1   0.0000
     4 N4       6.6951   4.9430  12.8306   N.2       1 RES1   0.0000
     5 C1       5.8601   5.7859  16.8692   C.2       1 RES1   0.0000
     6 C2       4.8378   5.1025  17.5391   C.2       1 RES1   0.0000
     7 C3       4.0950   4.0709  16.9365   C.2       1 RES1   0.0000
     8 C4       3.0423   3.3436  17.6308   C.2       1 RES1   0.0000
     9 H1       2.7294   3.5128  18.5104   H         1 RES1   0.0000
    10 C5       2.5944   2.3837  16.7906   C.2       1 RES1   0.0000
    11 H2       1.9283   1.7328  16.9740   H         1 RES1   0.0000
    12 C6       3.3405   2.5512  15.5423   C.2       1 RES1   0.0000
    13 C7       3.1341   1.7426  14.4307   C.2       1 RES1   0.0000
    14 C8       3.7587   1.9460  13.2011   C.2       1 RES1   0.0000
    15 C9       3.6753   1.0283  12.0783   C.2       1 RES1   0.0000
    16 H3       3.0759   0.2978  11.9941   H         1 RES1   0.0000
    17 C10      4.6059   1.4074  11.1781   C.2       1 RES1   0.0000
    18 H4       4.7978   0.9828  10.3509   H         1 RES1   0.0000
    19 C11      5.2568   2.5887  11.7190   C.2       1 RES1   0.0000
    20 C12      6.3480   3.2037  11.1070   C.2       1 RES1   0.0000
    21 C13      6.9662   4.3703  11.6160   C.2       1 RES1   0.0000
    22 C14      7.9251   5.1513  10.8768   C.2       1 RES1   0.0000
    23 H5       8.2835   4.9495  10.0216   H         1 RES1   0.0000
    24 C15      8.2085   6.2203  11.6385   C.2       1 RES1   0.0000
    25 H6       8.7914   6.9362  11.4083   H         1 RES1   0.0000
    26 C16      7.4678   6.0836  12.8680   C.2       1 RES1   0.0000
    27 C17      7.5472   6.9639  13.9628   C.2       1 RES1   0.0000
    28 C18      7.0235   6.6840  15.2335   C.2       1 RES1   0.0000
    29 C19      7.1514   7.5610  16.3639   C.2       1 RES1   0.0000
    30 H7       7.6375   8.3778  16.3938   H         1 RES1   0.0000
    31 C20      6.4370   6.9997  17.3932   C.2       1 RES1   0.0000
    32 H8       6.3412   7.3413  18.2746   H         1 RES1   0.0000
    33 C21      4.3404   5.6394  18.8473   C.ar      1 RES1   0.0000
    34 C22      3.1136   6.3407  18.8491   C.ar      1 RES1   0.0000
    35 H9       2.6268   6.4481  18.0407   H         1 RES1   0.0000
    36 C23      2.6157   6.8760  20.0338   C.ar      1 RES1   0.0000
    37 H10      1.8006   7.3657  20.0263   H         1 RES1   0.0000
    38 C24      3.2762   6.7068  21.1884   C.ar      1 RES1   0.0000
    39 H11      2.9099   7.0582  21.9913   H         1 RES1   0.0000
    40 C25      4.4902   6.0283  21.2334   C.ar      1 RES1   0.0000
    41 H12      4.9521   5.9307  22.0587   H         1 RES1   0.0000
    42 C26      5.0267   5.4849  20.0450   C.ar      1 RES1   0.0000
    43 N5       6.2420   4.7413  20.0394   N.am      1 RES1   0.0000
    44 C27      7.2627   4.8682  20.9190   C.2       1 RES1   0.0000
    45 O1       7.2268   5.5662  21.9183   O.2       1 RES1   0.0000
    46 C28      8.4452   3.9749  20.6476   C.ar      1 RES1   0.0000
    47 C29      9.2759   3.6495  21.7368   C.ar      1 RES1   0.0000
    48 H13      9.0910   4.0026  22.5995   H         1 RES1   0.0000
    49 C30     10.3609   2.8132  21.5515   C.ar      1 RES1   0.0000
    50 H14     10.9167   2.5887  22.2888   H         1 RES1   0.0000
    51 C31     10.6384   2.3007  20.2883   C.ar      1 RES1   0.0000
    52 H15     11.3772   1.7133  20.1760   H         1 RES1   0.0000
    53 C32      9.8664   2.6261  19.1954   C.ar      1 RES1   0.0000
    54 C33      8.7706   3.4819  19.3750   C.ar      1 RES1   0.0000
    55 H16      8.2418   3.7309  18.6264   H         1 RES1   0.0000
    56 C34     10.1577   2.0989  17.8049   C.3       1 RES1   0.0000
    57 H17     10.8605   1.4058  17.8648   H         1 RES1   0.0000
    58 H18      9.3399   1.6726  17.4456   H         1 RES1   0.0000
    59 N6      10.6028   3.1598  16.8654   N.3       1 RES1   0.0000
    60 C35      8.0815   8.3436  13.6896   C.ar      1 RES1   0.0000
    61 C36      7.1596   9.2987  13.2666   C.ar      1 RES1   0.0000
    62 H19      6.2450   9.0563  13.1749   H         1 RES1   0.0000
    63 C37      7.5575  10.6118  12.9709   C.ar      1 RES1   0.0000
    64 H20      6.9195  11.2626  12.7033   H         1 RES1   0.0000
    65 C38      8.8877  10.9404  13.0739   C.ar      1 RES1   0.0000
    66 H21      9.1706  11.8190  12.8493   H         1 RES1   0.0000
    67 C39      9.8283  10.0097  13.5006   C.ar      1 RES1   0.0000
    68 H22     10.7399  10.2619  13.5885   H         1 RES1   0.0000
    69 C40      9.4312   8.6983  13.8019   C.ar      1 RES1   0.0000
    70 N7      10.3350   7.6895  14.2585   N.am      1 RES1   0.0000
    71 C41     11.6869   7.8034  14.4194   C.2       1 RES1   0.0000
    72 O2      12.3080   8.8203  14.0657   O.2       1 RES1   0.0000
    73 C42     12.3989   6.6807  15.0670   C.ar      1 RES1   0.0000
    74 C43     13.8027   6.6856  14.9341   C.ar      1 RES1   0.0000
    75 H23     14.2284   7.3804  14.4456   H         1 RES1   0.0000
    76 C44     14.5703   5.6752  15.5161   C.ar      1 RES1   0.0000
    77 H24     15.5150   5.6850  15.4244   H         1 RES1   0.0000
    78 C45     13.9511   4.6599  16.2273   C.ar      1 RES1   0.0000
    79 H25     14.4720   3.9603  16.6034   H         1 RES1   0.0000
    80 C46     12.5478   4.6648  16.3938   C.ar      1 RES1   0.0000
    81 C47     11.8013   5.6703  15.8324   C.ar      1 RES1   0.0000
    82 H26     10.8609   5.6817  15.9671   H         1 RES1   0.0000
    83 C48     11.9484   3.5519  17.2696   C.3       1 RES1   0.0000
    84 H27     12.5394   2.7579  17.2285   H         1 RES1   0.0000
    85 H28     11.9244   3.8610  18.2091   H         1 RES1   0.0000
    86 N8       6.8958   2.8539  14.6721   N.ar      1 RES1   0.0000
    87 C49      6.6168   1.5229  14.5542   C.ar      1 RES1   0.0000
    88 H29      5.7142   1.2642  14.4101   H         1 RES1   0.0000
    89 C50      7.5720   0.5369  14.6328   C.ar      1 RES1   0.0000
    90 H30      7.3305  -0.3759  14.5336   H         1 RES1   0.0000
    91 C51      8.8948   0.8933  14.8574   C.ar      1 RES1   0.0000
    92 H31      9.5775   0.2327  14.8705   H         1 RES1   0.0000
    93 C52      9.2045   2.2437  15.0632   C.ar      1 RES1   0.0000
    94 C53      8.1840   3.1679  14.9322   C.ar      1 RES1   0.0000
    95 H32      8.4033   4.0856  15.0333   H         1 RES1   0.0000
    96 C54     10.5956   2.6586  15.4880   C.3       1 RES1   0.0000
    97 H33     11.2054   1.8809  15.4188   H         1 RES1   0.0000
    98 H34     10.9277   3.3648  14.8798   H         1 RES1   0.0000
    99 C55      7.0113   2.5594   9.9168   C.ar      1 RES1   0.0000
   100 C56      8.1766   1.8060  10.1956   C.ar      1 RES1   0.0000
   101 H35      8.4421   1.6661  11.0958   H         1 RES1   0.0000
   102 C57      8.9361   1.2724   9.1644   C.ar      1 RES1   0.0000
   103 H36      9.7149   0.7647   9.3609   H         1 RES1   0.0000
   104 C58      8.5604   1.4806   7.8507   C.ar      1 RES1   0.0000
   105 H37      9.0936   1.1389   7.1433   H         1 RES1   0.0000
   106 C59      7.4006   2.1917   7.5644   C.ar      1 RES1   0.0000
   107 H38      7.1337   2.3153   6.6605   H         1 RES1   0.0000
   108 C60      6.6267   2.7237   8.5918   C.ar      1 RES1   0.0000
   109 N9       5.4334   3.4966   8.3541   N.am      1 RES1   0.0000
   110 C61      4.6977   3.4868   7.2013   C.2       1 RES1   0.0000
   111 O3       4.9616   2.8197   6.2132   O.2       1 RES1   0.0000
   112 C62      3.5399   4.4647   7.1714   C.ar      1 RES1   0.0000
   113 C63      3.3421   5.1513   5.9736   C.ar      1 RES1   0.0000
   114 H39      3.9352   5.0163   5.2438   H         1 RES1   0.0000
   115 C64      2.2823   6.0315   5.8520   C.ar      1 RES1   0.0000
   116 H40      2.1544   6.5164   5.0454   H         1 RES1   0.0000
   117 C65      1.4031   6.2008   6.9206   C.ar      1 RES1   0.0000
   118 H41      0.6762   6.8044   6.8326   H         1 RES1   0.0000
   119 C66      1.5707   5.4995   8.1146   C.ar      1 RES1   0.0000
   120 C67      2.6441   4.6209   8.2381   C.ar      1 RES1   0.0000
   121 H42      2.7684   4.1311   9.0428   H         1 RES1   0.0000
   122 C68      0.5414   5.6655   9.2094   C.3       1 RES1   0.0000
   123 H43      0.0432   6.5067   9.0447   H         1 RES1   0.0000
   124 H44     -0.1063   4.9203   9.1439   H         1 RES1   0.0000
   125 N10      1.0588   5.7013  10.5549   N.3       1 RES1   0.0000
   126 C69      2.4172   0.4279  14.6627   C.ar      1 RES1   0.0000
   127 C70      3.1067  -0.5255  15.4300   C.ar      1 RES1   0.0000
   128 H45      3.9812  -0.3335  15.7482   H         1 RES1   0.0000
   129 C71      2.5133  -1.7605  15.7276   C.ar      1 RES1   0.0000
   130 H46      2.9770  -2.4032  16.2516   H         1 RES1   0.0000
   131 C72      1.2604  -2.0257  15.2541   C.ar      1 RES1   0.0000
   132 H47      0.8505  -2.8555  15.4693   H         1 RES1   0.0000
   133 C73      0.5758  -1.1243  14.4775   C.ar      1 RES1   0.0000
   134 H48     -0.2770  -1.3521  14.1275   H         1 RES1   0.0000
   135 C74      1.1379   0.1383  14.1949   C.ar      1 RES1   0.0000
   136 N11      0.4688   1.1487  13.4500   N.am      1 RES1   0.0000
   137 C75     -0.8568   1.2415  13.1862   C.2       1 RES1   0.0000
   138 O4      -1.6731   0.3775  13.5137   O.2       1 RES1   0.0000
   139 C76     -1.2910   2.4927  12.4881   C.ar      1 RES1   0.0000
   140 C77     -2.6165   2.5333  12.0408   C.ar      1 RES1   0.0000
   141 H49     -3.1810   1.7816  12.1700   H         1 RES1   0.0000
   142 C78     -3.1128   3.6756  11.4027   C.ar      1 RES1   0.0000
   143 H50     -4.0127   3.7081  11.1033   H         1 RES1   0.0000
   144 C79     -2.2634   4.7608  11.2155   C.ar      1 RES1   0.0000
   145 H51     -2.5927   5.5320  10.7701   H         1 RES1   0.0000
   146 C80     -0.9501   4.7510  11.6609   C.ar      1 RES1   0.0000
   147 C81     -0.4805   3.6121  12.2860   C.ar      1 RES1   0.0000
   148 H52      0.4202   3.5909  12.5873   H         1 RES1   0.0000
   149 C82     -0.0308   5.9323  11.5019   C.3       1 RES1   0.0000
   150 H53     -0.5606   6.7100  11.1968   H         1 RES1   0.0000
   151 H54      0.3554   6.1585  12.3852   H         1 RES1   0.0000
   152 N12      4.1091   5.6817  13.7177   N.ar      1 RES1   0.0000
   153 C83      3.7568   6.6547  14.5879   C.ar      1 RES1   0.0000
   154 H55      4.0815   6.6010  15.4787   H         1 RES1   0.0000
   155 C84      2.9479   7.7270  14.2510   C.ar      1 RES1   0.0000
   156 H56      2.7601   8.4087  14.8836   H         1 RES1   0.0000
   157 C85      2.4196   7.7839  12.9822   C.ar      1 RES1   0.0000
   158 H57      1.8613   8.5096  12.7314   H         1 RES1   0.0000
   159 C86      2.7019   6.7865  12.0764   C.ar      1 RES1   0.0000
   160 C87      3.5706   5.7533  12.4844   C.ar      1 RES1   0.0000
   161 H58      3.7857   5.0716  11.8593   H         1 RES1   0.0000
   162 C88      2.0840   6.7719  10.7121   C.3       1 RES1   0.0000
   163 H59      1.6623   7.6505  10.5381   H         1 RES1   0.0000
   164 H60      2.7947   6.6401  10.0365   H         1 RES1   0.0000
   165 Fe1      5.4739   4.2561  14.2432   Fe        1 RES1   0.0000
   166 C89     -4.0258   6.3570   7.0142   C.3       2 RES2   0.0000
   167 H61     -4.5024   6.8012   6.2562   H         2 RES2   0.0000
   168 Cl1     -2.3403   6.5246   6.7048   Cl        2 RES2   0.0000
   169 Cl2     -4.5738   4.6996   7.0516   Cl        2 RES2   0.0000
   170 Cl3     -4.5289   7.2011   8.5068   Cl        2 RES2   0.0000
   171 C90      7.8355   2.1917   2.5788   C.3       3 RES3   0.0000
   172 H62      8.3565   1.3749   2.8259   H         3 RES3   0.0000
   173 Cl4      6.5725   2.4121   3.7766   Cl        3 RES3   0.0000
   174 Cl5      8.9386   3.5727   2.5927   Cl        3 RES3   0.0000
   175 Cl6      7.1591   1.9463   0.9756   Cl        3 RES3   0.0000
   176 C91      6.1418   8.4168   9.9205   C.3       4 RES4   0.0000
   177 H63      6.7525   8.0751  10.6335   H         4 RES4   0.0000
   178 Cl7      4.7094   9.1101  10.6753   Cl        4 RES4   0.0000
   179 Cl8      6.9890   9.6428   8.9835   Cl        4 RES4   0.0000
   180 Cl9      5.6670   7.0522   8.8547   Cl        4 RES4   0.0000
   181 C92      4.8395  16.7491  18.6077   C.3       5 RES5   0.0000
   182 H64      4.0836  16.9785  17.9939   H         5 RES5   0.0000
   183 Cl10     6.2906  17.4814  17.9782   Cl        5 RES5   0.0000
   184 Cl11     5.0019  14.9751  18.6420   Cl        5 RES5   0.0000
   185 Cl12     4.4603  17.3846  20.1897   Cl        5 RES5   0.0000
@<TRIPOS>BOND
     1     1     5    2
     2     2     7    1
     3     3    14    2
     4     4    21    1
     5     5     6    1
     6     6     7    2
     7     7     8    1
     8     8     9    1
     9    10     8    2
    10    11    10    1
    11    12     2    1
    12    13    12    2
    13    14    13    1
    14    15    14    1
    15    16    15    1
    16    17    15    2
    17    18    17    1
    18    19     3    1
    19    20    19    2
    20    21    20    1
    21    22    21    2
    22    23    22    1
    23    24    22    1
    24    25    24    1
    25    26     4    1
    26    27    26    1
    27    28     1    1
    28    29    28    1
    29    30    29    1
    30    31     5    1
    31    32    31    1
    32    33     6    1
    33    34    33   ar
    34    35    34    1
    35    36    34   ar
    36    37    36    1
    37    38    36   ar
    38    39    38    1
    39    40    38   ar
    40    41    40    1
    41    42    33   ar
    42    43    42    1
    43    44    43   am
    44    45    44    2
    45    46    44    1
    46    47    46   ar
    47    48    47    1
    48    49    47   ar
    49    50    49    1
    50    51    49   ar
    51    52    51    1
    52    53    51   ar
    53    54    46   ar
    54    55    54    1
    55    56    53    1
    56    57    56    1
    57    58    56    1
    58    59    56    1
    59    60    27    1
    60    61    60   ar
    61    62    61    1
    62    63    61   ar
    63    64    63    1
    64    65    63   ar
    65    66    65    1
    66    67    65   ar
    67    68    67    1
    68    69    60   ar
    69    70    69    1
    70    71    70   am
    71    72    71    2
    72    73    71    1
    73    74    73   ar
    74    75    74    1
    75    76    74   ar
    76    77    76    1
    77    78    76   ar
    78    79    78    1
    79    80    78   ar
    80    81    73   ar
    81    82    81    1
    82    83    59    1
    83    84    83    1
    84    85    83    1
    85    86    87   ar
    86    87    88    1
    87    89    87   ar
    88    90    89    1
    89    91    89   ar
    90    92    91    1
    91    93    91   ar
    92    94    86   ar
    93    95    94    1
    94    96    59    1
    95    97    96    1
    96    98    96    1
    97    99    20    1
    98   100    99   ar
    99   101   100    1
   100   102   100   ar
   101   103   102    1
   102   104   102   ar
   103   105   104    1
   104   106   104   ar
   105   107   106    1
   106   108    99   ar
   107   109   108    1
   108   110   109   am
   109   111   110    2
   110   112   110    1
   111   113   112   ar
   112   114   113    1
   113   115   113   ar
   114   116   115    1
   115   117   115   ar
   116   118   117    1
   117   119   117   ar
   118   120   112   ar
   119   121   120    1
   120   122   119    1
   121   123   122    1
   122   124   122    1
   123   125   122    1
   124   126    13    1
   125   127   126   ar
   126   128   127    1
   127   129   127   ar
   128   130   129    1
   129   131   129   ar
   130   132   131    1
   131   133   131   ar
   132   134   133    1
   133   135   126   ar
   134   136   135    1
   135   137   136   am
   136   138   137    2
   137   139   137    1
   138   140   139   ar
   139   141   140    1
   140   142   140   ar
   141   143   142    1
   142   144   142   ar
   143   145   144    1
   144   146   144   ar
   145   147   139   ar
   146   148   147    1
   147   149   125    1
   148   150   149    1
   149   151   149    1
   150   152   153   ar
   151   153   154    1
   152   155   153   ar
   153   156   155    1
   154   157   155   ar
   155   158   157    1
   156   159   157   ar
   157   160   152   ar
   158   161   160    1
   159   162   125    1
   160   163   162    1
   161   164   162    1
   162   165     1    1
   163     2   165    1
   164     3   165    1
   165     4   165    1
   166    10    12    1
   167    17    19    1
   168    24    26    2
   169    27    28    2
   170    29    31    2
   171    40    42   ar
   172    53    54   ar
   173    67    69   ar
   174    80    81   ar
   175    80    83    1
   176    86   165    1
   177    93    94   ar
   178    93    96    1
   179   106   108   ar
   180   119   120   ar
   181   133   135   ar
   182   146   147   ar
   183   146   149    1
   184   152   165    1
   185   159   160   ar
   186   159   162    1
   187   166   167    1
   188   168   166    1
   189   169   166    1
   190   170   166    1
   191   171   172    1
   192   173   171    1
   193   174   171    1
   194   175   171    1
   195   176   177    1
   196   178   176    1
   197   179   176    1
   198   180   176    1
   199   181   182    1
   200   183   181    1
   201   184   181    1
   202   185   181    1
@<TRIPOS>SUBSTRUCTURE
     1 RES1        1 GROUP             0 ****  ****    0  
     2 RES2      166 GROUP             0 ****  ****    0  
     3 RES3      171 GROUP             0 ****  ****    0  
     4 RES4      176 GROUP             0 ****  ****    0  
     5 RES5      181 GROUP             0 ****  ****    0  
@<TRIPOS>CRYSIN
   14.3242   16.2707   19.9354   90.0000  110.1570   90.0000     4     1
