@<TRIPOS>MOLECULE
UKESOS
    67    64     3     0     0
SMALL
NO_CHARGES
****
Generated from the CSD

@<TRIPOS>ATOM
     1 Dy1      3.1843   5.2837   3.7106   Dy        1 RES1   0.0000
     2 Fe1      2.6693   2.4408   8.3261   Fe        1 RES1   0.0000
     3 N1       2.9631   4.4079   5.9649   N.1       1 RES1   0.0000
     4 N2       5.6887   2.7889   8.8879   N.1       1 RES1   0.0000
     5 N3      -0.3562   2.3364   7.8094   N.1       1 RES1   0.0000
     6 N4       2.1714   4.7021  10.3605   N.1       1 RES1   0.0000
     7 N5       2.5607   0.3601  10.6084   N.1       1 RES1   0.0000
     8 N6       3.0443   0.1565   6.2550   N.1       1 RES1   0.0000
     9 C1       2.5595   1.1335   9.7580   C.1       1 RES1   0.0000
    10 C2       2.3500   3.8567   9.6043   C.1       1 RES1   0.0000
    11 C3       2.8377   3.7029   6.8599   C.1       1 RES1   0.0000
    12 C4       2.9225   0.9966   7.0285   C.1       1 RES1   0.0000
    13 C5       0.7574   2.3560   8.0077   C.1       1 RES1   0.0000
    14 C6       4.5667   2.6485   8.6647   C.1       1 RES1   0.0000
    15 O1       1.9637   6.0268   1.8457   O.2       1 RES1   0.0000
    16 N7       0.2280   6.4669   0.4934   N.am      1 RES1   0.0000
    17 C7       1.0082   6.4384  -0.7090   C.3       1 RES1   0.0000
    18 H1       1.9345   6.3166  -0.4859   H         1 RES1   0.0000
    19 H2       0.8994   7.2679  -1.1801   H         1 RES1   0.0000
    20 H3       0.7144   5.7139  -1.2644   H         1 RES1   0.0000
    21 C8      -1.1941   6.6429   0.3025   C.3       1 RES1   0.0000
    22 H4      -1.6297   6.6705   1.1578   H         1 RES1   0.0000
    23 H5      -1.5415   5.9103  -0.2107   H         1 RES1   0.0000
    24 H6      -1.3551   7.4662  -0.1636   H         1 RES1   0.0000
    25 C9       0.7783   6.2268   1.6263   C.2       1 RES1   0.0000
    26 H7       0.2131   6.2011   2.3627   H         1 RES1   0.0000
    27 O2       3.4371   3.3641   2.3560   O.2       1 RES1   0.0000
    28 N8       4.6562   1.8145   1.2445   N.am      1 RES1   0.0000
    29 C10      5.7249   1.5185   0.3173   C.3       1 RES1   0.0000
    30 H8       6.1280   2.3382   0.0223   H         1 RES1   0.0000
    31 H9       5.3707   1.0455  -0.4388   H         1 RES1   0.0000
    32 H10      6.3840   0.9753   0.7561   H         1 RES1   0.0000
    33 C11      3.9622   0.6979   1.7924   C.3       1 RES1   0.0000
    34 H11      3.2818   1.0082   2.3949   H         1 RES1   0.0000
    35 H12      4.5820   0.1396   2.2709   H         1 RES1   0.0000
    36 H13      3.5564   0.1929   1.0859   H         1 RES1   0.0000
    37 C12      4.3435   3.0361   1.5693   C.2       1 RES1   0.0000
    38 H14      4.8395   3.7206   1.1801   H         1 RES1   0.0000
    39 O3       1.1306   4.1376   3.8177   O.2       1 RES1   0.0000
    40 N9      -0.3300   2.4529   4.2295   N.am      1 RES1   0.0000
    41 C13     -1.4881   3.2814   4.1551   C.3       1 RES1   0.0000
    42 H15     -1.2246   4.1812   3.9469   H         1 RES1   0.0000
    43 H16     -1.9450   3.2690   5.0005   H         1 RES1   0.0000
    44 H17     -2.0739   2.9525   3.4708   H         1 RES1   0.0000
    45 C14     -0.5019   1.0437   4.5319   C.3       1 RES1   0.0000
    46 H18      0.3570   0.6143   4.5542   H         1 RES1   0.0000
    47 H19     -1.0466   0.6357   3.8551   H         1 RES1   0.0000
    48 H20     -0.9278   0.9495   5.3873   H         1 RES1   0.0000
    49 C15      0.8382   2.9978   4.1229   C.2       1 RES1   0.0000
    50 H21      1.5579   2.4369   4.3039   H         1 RES1   0.0000
    51 O4       5.2600   4.3652   4.2610   O.2       1 RES1   0.0000
    52 N10      6.7463   2.6760   4.3009   N.am      1 RES1   0.0000
    53 C16      5.9072   1.7825   5.0228   C.3       1 RES1   0.0000
    54 H22      5.0664   2.2084   5.2038   H         1 RES1   0.0000
    55 H23      6.3304   1.5443   5.8509   H         1 RES1   0.0000
    56 H24      5.7580   0.9913   4.4997   H         1 RES1   0.0000
    57 C17      8.0961   2.1853   3.9171   C.3       1 RES1   0.0000
    58 H25      8.5584   2.8698   3.4287   H         1 RES1   0.0000
    59 H26      8.0073   1.4029   3.3667   H         1 RES1   0.0000
    60 H27      8.5933   1.9657   4.7080   H         1 RES1   0.0000
    61 C18      6.3839   3.8887   4.0113   C.2       1 RES1   0.0000
    62 H28      7.0041   4.4381   3.5874   H         1 RES1   0.0000
    63 O5       4.3977   7.0750   4.7625   O.3       1 RES1   0.0000
    64 O6       4.7014   6.1433   2.0885   O.3       1 RES1   0.0000
    65 O7       1.7023   6.9061   4.6428   O.3       1 RES1   0.0000
    66 O8       4.6331   6.5024  -0.5211   O.3       2 RES2   0.0000
    67 O9       3.1627   8.2361   3.7014   O.3       3 RES3   0.0000
@<TRIPOS>BOND
     1     1     3    1
     2     2     9    1
     3     3    11    3
     4     4    14    3
     5     5    13    3
     6     6    10    3
     7     7     9    3
     8     8    12    3
     9    10     2    1
    10    11     2    1
    11    12     2    1
    12    13     2    1
    13    14     2    1
    14    15     1    1
    15    16    17    1
    16    17    18    1
    17    19    17    1
    18    20    17    1
    19    21    16    1
    20    22    21    1
    21    23    21    1
    22    24    21    1
    23    25    15    2
    24    26    25    1
    25    27     1    1
    26    28    29    1
    27    29    30    1
    28    31    29    1
    29    32    29    1
    30    33    28    1
    31    34    33    1
    32    35    33    1
    33    36    33    1
    34    37    27    2
    35    38    37    1
    36    39     1    1
    37    40    41    1
    38    41    42    1
    39    43    41    1
    40    44    41    1
    41    45    40    1
    42    46    45    1
    43    47    45    1
    44    48    45    1
    45    49    39    2
    46    50    49    1
    47    51     1    1
    48    52    53    1
    49    53    54    1
    50    55    53    1
    51    56    53    1
    52    57    52    1
    53    58    57    1
    54    59    57    1
    55    60    57    1
    56    61    51    2
    57    62    61    1
    58    63     1    1
    59    64     1    1
    60    65     1    1
    61    16    25   am
    62    28    37   am
    63    40    49   am
    64    52    61   am
@<TRIPOS>SUBSTRUCTURE
     1 RES1        1 GROUP             0 ****  ****    0  
     2 RES2       66 GROUP             0 ****  ****    0  
     3 RES3       67 GROUP             0 ****  ****    0  
@<TRIPOS>CRYSIN
   13.9838    8.8904   24.9425   90.0000   96.3020   90.0000    14     1
