@<TRIPOS>MOLECULE
ULEHUO
   101   104     9     0     0
SMALL
USER_CHARGES
****
Generated from the CSD

@<TRIPOS>ATOM
     1 Fe1      1.4600   1.8918   5.5194   Fe        1 RES1   2.0000
     2 N1       2.2440   3.6845   5.2609   N.ar      1 RES1   0.0000
     3 N2       1.5651   1.9109   3.6409   N.ar      1 RES1   0.0000
     4 N3       0.6808   0.1224   5.1557   N.ar      1 RES1   0.0000
     5 N4      -0.3292   2.6739   5.7746   N.ar      1 RES1   0.0000
     6 N5       1.3617   1.8406   7.3991   N.ar      1 RES1   0.0000
     7 N6       3.2330   1.1130   5.8906   N.ar      1 RES1   0.0000
     8 C7       2.5532   4.5734   6.2199   C.ar      1 RES1   0.0000
     9 C8       3.0953   5.8129   5.9178   C.ar      1 RES1   0.0000
    10 C9       3.3279   6.1483   4.6098   C.ar      1 RES1   0.0000
    11 C10      3.0173   5.2421   3.6084   C.ar      1 RES1   0.0000
    12 C11      2.4778   4.0235   3.9713   C.ar      1 RES1   0.0000
    13 C12      2.1112   2.9806   3.0136   C.ar      1 RES1   0.0000
    14 C13      2.2535   2.9734   1.6234   C.ar      1 RES1   0.0000
    15 C14      1.8210   1.8749   0.9242   C.ar      1 RES1   0.0000
    16 C15      1.2637   0.8130   1.5638   C.ar      1 RES1   0.0000
    17 C16      1.1357   0.8430   2.9498   C.ar      1 RES1   0.0000
    18 C17      0.5781  -0.1880   3.8290   C.ar      1 RES1   0.0000
    19 C18     -0.0049  -1.3601   3.3967   C.ar      1 RES1   0.0000
    20 C19     -0.5265  -2.2349   4.3231   C.ar      1 RES1   0.0000
    21 C20     -0.3996  -1.9569   5.6597   C.ar      1 RES1   0.0000
    22 C21      0.1923  -0.7802   6.0369   C.ar      1 RES1   0.0000
    23 C22     -1.1595   3.0954   4.8193   C.ar      1 RES1   0.0000
    24 C23     -2.3882   3.6381   5.1039   C.ar      1 RES1   0.0000
    25 C24     -2.7699   3.7793   6.4140   C.ar      1 RES1   0.0000
    26 C25     -1.9415   3.3421   7.4088   C.ar      1 RES1   0.0000
    27 C26     -0.7171   2.7889   7.0585   C.ar      1 RES1   0.0000
    28 C27      0.2654   2.2919   8.0219   C.ar      1 RES1   0.0000
    29 C28      0.1787   2.2316   9.4027   C.ar      1 RES1   0.0000
    30 C29      1.2222   1.7116  10.1107   C.ar      1 RES1   0.0000
    31 C30      2.3371   1.2421   9.4733   C.ar      1 RES1   0.0000
    32 C31      2.3972   1.3300   8.1036   C.ar      1 RES1   0.0000
    33 C32      3.4959   0.9161   7.2169   C.ar      1 RES1   0.0000
    34 C33      4.6821   0.3621   7.6448   C.ar      1 RES1   0.0000
    35 C34      5.6318  -0.0263   6.7184   C.ar      1 RES1   0.0000
    36 C35      5.3545   0.1704   5.3950   C.ar      1 RES1   0.0000
    37 C36      4.1773   0.7408   5.0179   C.ar      1 RES1   0.0000
    38 H13      2.4214   4.1904   7.2125   H         1 RES1   0.0000
    39 H14      3.2565   6.5263   6.7074   H         1 RES1   0.0000
    40 H15      3.7367   7.0788   4.4466   H         1 RES1   0.0000
    41 H16      3.0568   5.5017   2.5806   H         1 RES1   0.0000
    42 H17      2.7413   3.7728   1.1161   H         1 RES1   0.0000
    43 H18      1.8352   1.8261  -0.1765   H         1 RES1   0.0000
    44 H19      0.9533  -0.0917   1.1469   H         1 RES1   0.0000
    45 H20     -0.0620  -1.5604   2.3711   H         1 RES1   0.0000
    46 H21     -0.7214  -3.0939   3.9084   H         1 RES1   0.0000
    47 H22     -0.6790  -2.5254   6.5287   H         1 RES1   0.0000
    48 H23      0.2579  -0.4416   6.8949   H         1 RES1   0.0000
    49 H24     -0.8868   3.0255   3.9106   H         1 RES1   0.0000
    50 H25     -2.9839   3.9012   4.3914   H         1 RES1   0.0000
    51 H26     -3.5831   4.1881   6.6346   H         1 RES1   0.0000
    52 H27     -2.1986   3.4176   8.3329   H         1 RES1   0.0000
    53 H28     -0.6077   2.5569   9.8548   H         1 RES1   0.0000
    54 H29      1.1638   1.6747  11.0613   H         1 RES1   0.0000
    55 H30      3.0635   0.8549   9.9695   H         1 RES1   0.0000
    56 H31      4.8448   0.2465   8.5822   H         1 RES1   0.0000
    57 H32      6.4593  -0.4165   6.9941   H         1 RES1   0.0000
    58 H33      5.9851  -0.1024   4.7333   H         1 RES1   0.0000
    59 H34      4.0160   0.8799   4.0893   H         1 RES1   0.0000
    60 Cl1      6.3007   1.3953   2.1796   Cl        2 RES2   0.0000
    61 O3       5.2465   2.5886  -0.3522   O.3       2 RES2  -1.0000
    62 O4       5.1999  -1.3474   2.2028   O.2       2 RES2   0.0000
    63 C4       5.3086   0.6345   0.9661   C.2       2 RES2   0.0000
    64 C5       4.9431   1.3846  -0.1345   C.2       2 RES2   0.0000
    65 C6       4.9002  -0.6905   1.2065   C.2       2 RES2   0.0000
    66 C6A      4.0868   0.6905  -1.2065   C.2       2 RES2   0.0000
    67 O4A      3.7871   1.3474  -2.2028   O.2       2 RES2   0.0000
    68 C4A      3.6784  -0.6345  -0.9661   C.2       2 RES2   0.0000
    69 Cl1A     2.6863  -1.3953  -2.1796   Cl        2 RES2   0.0000
    70 C5A      4.0439  -1.3846   0.1345   C.2       2 RES2   0.0000
    71 O3A      3.7405  -2.5886   0.3522   O.3       2 RES2  -1.0000
    72 Cl2      1.0190  -2.9299   8.8334   Cl        3 RES3   0.0000
    73 O1       2.2549  -1.8638  11.3490   O.3       3 RES3  -1.0000
    74 O2      -1.7300  -1.8634   8.8797   O.2       3 RES3   0.0000
    75 C1       1.0594  -1.5525  11.1341   C.2       3 RES3   0.0000
    76 C2       0.2964  -1.9202  10.0467   C.2       3 RES3   0.0000
    77 C3      -1.0331  -1.5378   9.8482   C.2       3 RES3   0.0000
    78 C3A      0.3748  -0.6751  12.2083   C.2       3 RES3   0.0000
    79 O2A      1.0717  -0.3495  13.1768   O.2       3 RES3   0.0000
    80 C2A     -0.9547  -0.2926  12.0098   C.2       3 RES3   0.0000
    81 Cl2A    -1.6773   0.7171  13.2231   Cl        3 RES3   0.0000
    82 C1A     -1.7177  -0.6604  10.9224   C.2       3 RES3   0.0000
    83 O1A     -2.9131  -0.3491  10.7075   O.3       3 RES3  -1.0000
    84 O5       2.5013  -4.6703  11.5144   O.3       4 RES4   0.0000
    85 H1       2.5908  -3.6902  11.5289   H         4 RES4   0.0000
    86 H2       2.6096  -4.8537  10.5452   H         4 RES4   0.0000
    87 O6       4.3928  -2.4220   9.3983   O.3       5 RES5   0.0000
    88 H3       3.3693  -2.0666   9.8372   H         5 RES5   0.0000
    89 H4       5.2812  -2.0572   9.6188   H         5 RES5   0.0000
    90 O7       8.0656   2.7148  -0.4976   O.3       6 RES6   0.0000
    91 H5       7.2252   2.5698  -0.4874   H         6 RES6   0.0000
    92 H6       8.2482   3.0425   0.2713   H         6 RES6   0.0000
    93 O8       3.2197   4.2846  -1.6626   O.3       7 RES7   0.0000
    94 H7       3.5381   5.3066  -1.1513   H         7 RES7   0.0000
    95 H8       3.7803   3.5302  -1.2991   H         7 RES7   0.0000
    96 O9      -0.6013   4.2941   1.8836   O.3       8 RES8   0.0000
    97 H9      -0.1738   5.0965   1.5528   H         8 RES8   0.0000
    98 H10     -1.5875   4.6691   1.8042   H         8 RES8   0.0000
    99 O10      3.9260   3.9098   9.0676   O.3       9 RES9   0.0000
   100 H11      4.2991   4.9754   8.9836   H         9 RES9   0.0000
   101 H12      4.8006   3.3189   9.7027   H         9 RES9   0.0000
@<TRIPOS>BOND
     1     1     2    1
     2     2     8   ar
     3     3     1    1
     4     4     1    1
     5     5     1    1
     6     6     1    1
     7     7     1    1
     8     8     9   ar
     9     9    10   ar
    10    10    11   ar
    11    11    12   ar
    12    12     2   ar
    13    13     3   ar
    14    14    13   ar
    15    15    14   ar
    16    16    15   ar
    17    17     3   ar
    18    18     4   ar
    19    19    18   ar
    20    20    19   ar
    21    21    20   ar
    22    22     4   ar
    23    23     5   ar
    24    24    23   ar
    25    25    24   ar
    26    26    25   ar
    27    27     5   ar
    28    28     6   ar
    29    29    28   ar
    30    30    29   ar
    31    31    30   ar
    32    32     6   ar
    33    33     7   ar
    34    34    33   ar
    35    35    34   ar
    36    36    35   ar
    37    37     7   ar
    38    38     8    1
    39    39     9    1
    40    40    10    1
    41    41    11    1
    42    42    14    1
    43    43    15    1
    44    44    16    1
    45    45    19    1
    46    46    20    1
    47    47    21    1
    48    48    22    1
    49    49    23    1
    50    50    24    1
    51    51    25    1
    52    52    26    1
    53    53    29    1
    54    54    30    1
    55    55    31    1
    56    56    34    1
    57    57    35    1
    58    58    36    1
    59    59    37    1
    60    12    13    1
    61    16    17   ar
    62    17    18    1
    63    21    22   ar
    64    26    27   ar
    65    27    28    1
    66    31    32   ar
    67    32    33    1
    68    36    37   ar
    69    60    63    1
    70    61    64    1
    71    62    65    2
    72    63    64    2
    73    64    66    1
    74    65    63    1
    75    66    67    2
    76    68    66    1
    77    69    68    1
    78    70    65    1
    79    71    70    1
    80    68    70    2
    81    72    76    1
    82    73    75    1
    83    74    77    2
    84    75    76    2
    85    76    77    1
    86    77    82    1
    87    78    75    1
    88    79    78    2
    89    80    78    1
    90    81    80    1
    91    82    80    2
    92    83    82    1
    93    84    85    1
    94    86    84    1
    95    87    88    1
    96    89    87    1
    97    90    91    1
    98    92    90    1
    99    93    94    1
   100    95    93    1
   101    96    97    1
   102    98    96    1
   103    99   100    1
   104   101    99    1
@<TRIPOS>SUBSTRUCTURE
     1 RES1        1 GROUP             0 ****  ****    0  
     2 RES2       60 GROUP             0 ****  ****    0  
     3 RES3       72 GROUP             0 ****  ****    0  
     4 RES4       84 GROUP             0 ****  ****    0  
     5 RES5       87 GROUP             0 ****  ****    0  
     6 RES6       90 GROUP             0 ****  ****    0  
     7 RES7       93 GROUP             0 ****  ****    0  
     8 RES8       96 GROUP             0 ****  ****    0  
     9 RES9       99 GROUP             0 ****  ****    0  
@<TRIPOS>CRYSIN
    8.9870    8.9970   22.1770   95.7140   91.7010   90.4200     2     1
