@<TRIPOS>MOLECULE
ULODUV
    76    80     4     0     0
SMALL
USER_CHARGES
****
Generated from the CSD

@<TRIPOS>ATOM
     1 Br1      7.5958  10.7248   8.4728   Br        1 RES1  -1.0000
     2 Fe1      7.4464   2.7726   2.9018   Fe        2 RES2   2.0000
     3 N1       5.6926   2.9953   0.4885   N.3       2 RES2   0.0000
     4 N2       7.9585   4.3521   1.4972   N.2       2 RES2   0.0000
     5 N3       7.9921   4.5394   4.2101   N.2       2 RES2   0.0000
     6 N4       8.7685   6.1377   5.4954   N.pl3     2 RES2   0.0000
     7 N5       5.3284   3.1311   3.2761   N.2       2 RES2   0.0000
     8 N6       7.0070   1.5496   4.6597   N.2       2 RES2   0.0000
     9 N7       6.7273   0.5189   6.5780   N.pl3     2 RES2   0.0000
    10 N8       7.4013   1.0763   1.5193   N.2       2 RES2   0.0000
    11 N9       9.5695   2.1074   2.7938   N.2       2 RES2   0.0000
    12 N10     11.6876   1.6046   2.5514   N.pl3     2 RES2   0.0000
    13 C1       6.2613   4.1415  -0.2068   C.3       2 RES2   0.0000
    14 C2       7.7542   4.2461   0.0559   C.3       2 RES2   0.0000
    15 C3       8.4898   5.3966   1.9827   C.2       2 RES2   0.0000
    16 C4       8.5624   5.5357   3.4198   C.2       2 RES2   0.0000
    17 C5       9.0466   6.5229   4.2186   C.2       2 RES2   0.0000
    18 C6       8.1277   4.9515   5.4542   C.2       2 RES2   0.0000
    19 C7       7.6541   4.2665   6.6825   C.3       2 RES2   0.0000
    20 C8       4.3671   3.2219   1.0562   C.3       2 RES2   0.0000
    21 C9       4.4672   3.9260   2.3995   C.3       2 RES2   0.0000
    22 C10      4.8502   2.6058   4.3294   C.2       2 RES2   0.0000
    23 C11      5.7130   1.7742   5.1271   C.2       2 RES2   0.0000
    24 C12      5.5407   1.1314   6.3089   C.2       2 RES2   0.0000
    25 C13      7.5820   0.7819   5.5566   C.2       2 RES2   0.0000
    26 C14      8.9751   0.2615   5.5344   C.3       2 RES2   0.0000
    27 C15      5.8431   1.7245  -0.1963   C.3       2 RES2   0.0000
    28 C16      6.2167   0.6326   0.7787   C.3       2 RES2   0.0000
    29 C17      8.5284   0.5383   1.2472   C.2       2 RES2   0.0000
    30 C18      9.6984   1.0727   1.8909   C.2       2 RES2   0.0000
    31 C19     11.0188   0.7602   1.7368   C.2       2 RES2   0.0000
    32 C20     10.7959   2.4030   3.1888   C.2       2 RES2   0.0000
    33 C21     11.1881   3.3737   4.2271   C.3       2 RES2   0.0000
    34 H1       8.9886   6.6211   6.2826   H         2 RES2   0.0000
    35 H2       6.9234  -0.0026   7.3483   H         2 RES2   0.0000
    36 H3      12.6304   1.6339   2.6601   H         2 RES2   0.0000
    37 H4       6.1159   4.0433  -1.1407   H         2 RES2   0.0000
    38 H5       5.8353   4.9336   0.0981   H         2 RES2   0.0000
    39 H6       8.1027   5.0178  -0.3756   H         2 RES2   0.0000
    40 H7       8.1948   3.4719  -0.2754   H         2 RES2   0.0000
    41 H8       8.8337   6.0739   1.4129   H         2 RES2   0.0000
    42 H9       9.4881   7.3188   3.9443   H         2 RES2   0.0000
    43 H10      6.7723   4.5561   6.8851   H         2 RES2   0.0000
    44 H11      8.2317   4.4796   7.4053   H         2 RES2   0.0000
    45 H12      7.6558   3.3278   6.5411   H         2 RES2   0.0000
    46 H13      3.8600   3.7614   0.4601   H         2 RES2   0.0000
    47 H14      3.9327   2.3865   1.1744   H         2 RES2   0.0000
    48 H15      3.6024   4.0051   2.7846   H         2 RES2   0.0000
    49 H16      4.8417   4.7908   2.2802   H         2 RES2   0.0000
    50 H17      3.9469   2.7576   4.5837   H         2 RES2   0.0000
    51 H18      4.7542   1.1135   6.8407   H         2 RES2   0.0000
    52 H19      8.9932  -0.5765   5.0860   H         2 RES2   0.0000
    53 H20      9.2861   0.1505   6.4250   H         2 RES2   0.0000
    54 H21      9.5357   0.8775   5.0775   H         2 RES2   0.0000
    55 H22      5.0235   1.4974  -0.6183   H         2 RES2   0.0000
    56 H23      6.5256   1.8023  -0.8536   H         2 RES2   0.0000
    57 H24      6.4127  -0.1684   0.3071   H         2 RES2   0.0000
    58 H25      5.4978   0.4783   1.3812   H         2 RES2   0.0000
    59 H26      8.5918  -0.1913   0.6416   H         2 RES2   0.0000
    60 H27     11.3891   0.0893   1.1755   H         2 RES2   0.0000
    61 H28     11.3172   4.2270   3.8293   H         2 RES2   0.0000
    62 H29     11.9974   3.0905   4.6375   H         2 RES2   0.0000
    63 H30     10.5042   3.4311   4.8834   H         2 RES2   0.0000
    64 P1      11.5083   3.3081   8.6101   P.3       3 RES3  -1.0000
    65 F1      10.8607   4.3155   7.5678   F         3 RES3   0.0000
    66 F2      12.2249   2.5816   7.4306   F         3 RES3   0.0000
    67 F3      12.7575   4.2755   8.7717   F         3 RES3   0.0000
    68 F4      12.1977   2.3162   9.6190   F         3 RES3   0.0000
    69 F5      10.8130   4.0497   9.7868   F         3 RES3   0.0000
    70 F6      10.2599   2.3566   8.4742   F         3 RES3   0.0000
    71 O1       8.7542   7.6670   7.8843   O.3       4 RES4   0.0000
    72 C22      9.7160   7.5025   8.9501   C.3       4 RES4   0.0000
    73 H31      9.5092   8.1007   9.6581   H         4 RES4   0.0000
    74 H32     10.5865   7.6913   8.6219   H         4 RES4   0.0000
    75 H33      9.6855   6.6084   9.2698   H         4 RES4   0.0000
    76 H34      8.4548   8.5892   7.9012   H         4 RES4   0.0000
@<TRIPOS>BOND
     1     2     4    1
     2     3    13    1
     3     4    14    1
     4     5     2    1
     5     6    17    1
     6     7     2    1
     7     8     2    1
     8     9    24    1
     9    10     2    1
    10    11     2    1
    11    12    31    1
    12    13    14    1
    13    14    39    1
    14    15     4    2
    15    16     5    1
    16    17    16    2
    17    18     5    2
    18    19    18    1
    19    20     3    1
    20    21     7    1
    21    22     7    2
    22    23     8    1
    23    24    23    2
    24    25     8    2
    25    26    25    1
    26    27     3    1
    27    28    10    1
    28    29    10    2
    29    30    11    1
    30    31    30    2
    31    32    11    2
    32    33    32    1
    33    34     6    1
    34    35     9    1
    35    36    12    1
    36    37    13    1
    37    38    13    1
    38    40    14    1
    39    41    15    1
    40    42    17    1
    41    43    19    1
    42    44    19    1
    43    45    19    1
    44    46    20    1
    45    47    20    1
    46    48    21    1
    47    49    21    1
    48    50    22    1
    49    51    24    1
    50    52    26    1
    51    53    26    1
    52    54    26    1
    53    55    27    1
    54    56    27    1
    55    57    28    1
    56    58    28    1
    57    59    29    1
    58    60    31    1
    59    61    33    1
    60    62    33    1
    61    63    33    1
    62     6    18    1
    63     9    25    1
    64    12    32    1
    65    15    16    1
    66    20    21    1
    67    22    23    1
    68    27    28    1
    69    29    30    1
    70    64    65    1
    71    66    64    1
    72    67    64    1
    73    68    64    1
    74    69    64    1
    75    70    64    1
    76    71    72    1
    77    72    73    1
    78    74    72    1
    79    75    72    1
    80    76    71    1
@<TRIPOS>SUBSTRUCTURE
     1 RES1        1 GROUP             0 ****  ****    0  
     2 RES2        2 GROUP             0 ****  ****    0  
     3 RES3       64 GROUP             0 ****  ****    0  
     4 RES4       71 GROUP             0 ****  ****    0  
@<TRIPOS>CRYSIN
   22.6020   12.7550   10.5520   90.0000   90.3320   90.0000   231     1
