@<TRIPOS>MOLECULE
ULOFEH
    76    80     4     0     0
SMALL
USER_CHARGES
****
Generated from the CSD

@<TRIPOS>ATOM
     1 Sb1     11.6221   3.1259   1.8855   Sb        1 RES1   0.0000
     2 F1      10.8290   1.9236   3.0662   F         1 RES1  -1.0000
     3 F2      12.4073   3.9881   3.3269   F         1 RES1   0.0000
     4 F3      13.1134   2.0098   1.7732   F         1 RES1   0.0000
     5 F4      12.4855   4.3077   0.7483   F         1 RES1   0.0000
     6 F5      10.8615   2.2505   0.4591   F         1 RES1   0.0000
     7 F6      10.1438   4.2336   1.9938   F         1 RES1   0.0000
     8 Br1      7.7571  -4.3674   2.1296   Br        2 RES2  -1.0000
     9 Fe1      7.4833   3.6538   7.6265   Fe        3 RES3   2.0000
    10 N1       5.6733   3.4300  10.0029   N.3       3 RES3   0.0000
    11 N2       7.9432   2.0580   9.0255   N.2       3 RES3   0.0000
    12 N3       8.0074   1.8926   6.3224   N.2       3 RES3   0.0000
    13 N4       8.7817   0.2829   5.0410   N.pl3     3 RES3   0.0000
    14 N5       5.3660   3.3304   7.2026   N.2       3 RES3   0.0000
    15 N6       7.0972   4.9144   5.8653   N.2       3 RES3   0.0000
    16 N7       6.8562   5.9725   3.9707   N.pl3     3 RES3   0.0000
    17 N8       7.4386   5.3381   9.0244   N.2       3 RES3   0.0000
    18 N9       9.6145   4.2865   7.7694   N.2       3 RES3   0.0000
    19 N10     11.7320   4.7852   8.0090   N.pl3     3 RES3   0.0000
    20 C1       6.2095   2.2699  10.7005   C.3       3 RES3   0.0000
    21 C2       7.7100   2.1588  10.4768   C.3       3 RES3   0.0000
    22 C3       8.4789   1.0141   8.5421   C.2       3 RES3   0.0000
    23 C4       8.5652   0.8940   7.1024   C.2       3 RES3   0.0000
    24 C5       9.0538  -0.1021   6.3150   C.2       3 RES3   0.0000
    25 C6       8.1445   1.4715   5.0832   C.2       3 RES3   0.0000
    26 C7       7.6635   2.1691   3.8546   C.3       3 RES3   0.0000
    27 C8       4.3616   3.2207   9.4054   C.3       3 RES3   0.0000
    28 C9       4.4817   2.5321   8.0502   C.3       3 RES3   0.0000
    29 C10      4.9187   3.8679   6.1408   C.2       3 RES3   0.0000
    30 C11      5.8036   4.6999   5.3809   C.2       3 RES3   0.0000
    31 C12      5.6623   5.3640   4.2030   C.2       3 RES3   0.0000
    32 C13      7.6967   5.6895   4.9967   C.2       3 RES3   0.0000
    33 C14      9.0883   6.2024   5.0484   C.3       3 RES3   0.0000
    34 C15      5.8327   4.6870  10.7048   C.3       3 RES3   0.0000
    35 C16      6.2404   5.7851   9.7506   C.3       3 RES3   0.0000
    36 C17      8.5656   5.8601   9.3020   C.2       3 RES3   0.0000
    37 C18      9.7437   5.3317   8.6719   C.2       3 RES3   0.0000
    38 C19     11.0559   5.6391   8.8175   C.2       3 RES3   0.0000
    39 C20     10.8380   3.9894   7.3874   C.2       3 RES3   0.0000
    40 C21     11.2407   2.9869   6.3699   C.3       3 RES3   0.0000
    41 H1       9.0027  -0.2015   4.2547   H         3 RES3   0.0000
    42 H2       7.0670   6.5073   3.2140   H         3 RES3   0.0000
    43 H3      12.6747   4.7529   7.8993   H         3 RES3   0.0000
    44 H4       6.0371   2.3577  11.6315   H         3 RES3   0.0000
    45 H5       5.7852   1.4844  10.3733   H         3 RES3   0.0000
    46 H6       8.0453   1.3849  10.9116   H         3 RES3   0.0000
    47 H7       8.1463   2.9300  10.8209   H         3 RES3   0.0000
    48 H8       8.8145   0.3307   9.1099   H         3 RES3   0.0000
    49 H9       9.4913  -0.8966   6.5957   H         3 RES3   0.0000
    50 H10      6.7795   1.8849   3.6552   H         3 RES3   0.0000
    51 H11      8.2365   1.9598   3.1264   H         3 RES3   0.0000
    52 H12      7.6682   3.1083   4.0014   H         3 RES3   0.0000
    53 H13      3.8395   2.6781   9.9849   H         3 RES3   0.0000
    54 H14      3.9342   4.0617   9.2893   H         3 RES3   0.0000
    55 H15      3.6249   2.4649   7.6460   H         3 RES3   0.0000
    56 H16      4.8462   1.6614   8.1631   H         3 RES3   0.0000
    57 H17      4.0241   3.7207   5.8590   H         3 RES3   0.0000
    58 H18      4.8866   5.3963   3.6541   H         3 RES3   0.0000
    59 H19      9.1039   7.0331   5.5086   H         3 RES3   0.0000
    60 H20      9.4142   6.3251   4.1639   H         3 RES3   0.0000
    61 H21      9.6405   5.5771   5.5044   H         3 RES3   0.0000
    62 H22      5.0098   4.9221  11.1164   H         3 RES3   0.0000
    63 H23      6.5019   4.5888  11.3718   H         3 RES3   0.0000
    64 H24      6.4344   6.5771  10.2361   H         3 RES3   0.0000
    65 H25      5.5356   5.9557   9.1363   H         3 RES3   0.0000
    66 H26      8.6256   6.5848   9.9131   H         3 RES3   0.0000
    67 H27     11.4253   6.3148   9.3727   H         3 RES3   0.0000
    68 H28     11.3741   2.1458   6.7889   H         3 RES3   0.0000
    69 H29     12.0495   3.2646   5.9540   H         3 RES3   0.0000
    70 H30     10.5574   2.9094   5.7134   H         3 RES3   0.0000
    71 O1       8.8039  -1.2945   2.7010   O.3       4 RES4   0.0000
    72 C22      9.7143  -1.1317   1.6360   C.3       4 RES4   0.0000
    73 H31     10.5964  -1.3061   1.9442   H         4 RES4   0.0000
    74 H32      9.6634  -0.2416   1.3099   H         4 RES4   0.0000
    75 H33      9.4962  -1.7376   0.9383   H         4 RES4   0.0000
    76 H34      8.5815  -2.2440   2.6113   H         4 RES4   0.0000
@<TRIPOS>BOND
     1     1     2    1
     2     3     1    1
     3     4     1    1
     4     5     1    1
     5     6     1    1
     6     7     1    1
     7     9    11    1
     8    10    20    1
     9    11    21    1
    10    12     9    1
    11    13    24    1
    12    14     9    1
    13    15     9    1
    14    16    31    1
    15    17     9    1
    16    18     9    1
    17    19    38    1
    18    20    21    1
    19    21    46    1
    20    22    11    2
    21    23    12    1
    22    24    23    2
    23    25    12    2
    24    26    25    1
    25    27    10    1
    26    28    14    1
    27    29    14    2
    28    30    15    1
    29    31    30    2
    30    32    15    2
    31    33    32    1
    32    34    10    1
    33    35    17    1
    34    36    17    2
    35    37    18    1
    36    38    37    2
    37    39    18    2
    38    40    39    1
    39    41    13    1
    40    42    16    1
    41    43    19    1
    42    44    20    1
    43    45    20    1
    44    47    21    1
    45    48    22    1
    46    49    24    1
    47    50    26    1
    48    51    26    1
    49    52    26    1
    50    53    27    1
    51    54    27    1
    52    55    28    1
    53    56    28    1
    54    57    29    1
    55    58    31    1
    56    59    33    1
    57    60    33    1
    58    61    33    1
    59    62    34    1
    60    63    34    1
    61    64    35    1
    62    65    35    1
    63    66    36    1
    64    67    38    1
    65    68    40    1
    66    69    40    1
    67    70    40    1
    68    13    25    1
    69    16    32    1
    70    19    39    1
    71    22    23    1
    72    27    28    1
    73    29    30    1
    74    34    35    1
    75    36    37    1
    76    71    72    1
    77    72    73    1
    78    74    72    1
    79    75    72    1
    80    76    71    1
@<TRIPOS>SUBSTRUCTURE
     1 RES1        1 GROUP             0 ****  ****    0  
     2 RES2        8 GROUP             0 ****  ****    0  
     3 RES3        9 GROUP             0 ****  ****    0  
     4 RES4       71 GROUP             0 ****  ****    0  
@<TRIPOS>CRYSIN
   22.8330   12.9190   10.5550   90.0000   90.2810   90.0000   231     1
