@<TRIPOS>MOLECULE
ULOFAD
    76    80     4     0     0
SMALL
USER_CHARGES
****
Generated from the CSD

@<TRIPOS>ATOM
     1 Br1      7.6912  10.7976   8.4590   Br        1 RES1  -1.0000
     2 As1     11.5911   3.3264   8.6412   As        2 RES2  -1.0000
     3 F1      10.8769   4.4163   7.5321   F         2 RES2   0.0000
     4 F2      12.3445   2.5264   7.3600   F         2 RES2   0.0000
     5 F3      12.9460   4.3614   8.7804   F         2 RES2   0.0000
     6 F4      12.3517   2.2542   9.7129   F         2 RES2   0.0000
     7 F5      10.8625   4.1373   9.9189   F         2 RES2   0.0000
     8 F6      10.2455   2.3010   8.5153   F         2 RES2   0.0000
     9 Fe1      7.4910   2.7941   2.9164   Fe        3 RES3   2.0000
    10 N1       5.7100   3.0191   0.5164   N.3       3 RES3   0.0000
    11 N2       7.9774   4.3854   1.5100   N.2       3 RES3   0.0000
    12 N3       8.0315   4.5663   4.2255   N.2       3 RES3   0.0000
    13 N4       8.8067   6.1719   5.5054   N.pl3     3 RES3   0.0000
    14 N5       5.3750   3.1376   3.3119   N.2       3 RES3   0.0000
    15 N6       7.0736   1.5506   4.6732   N.2       3 RES3   0.0000
    16 N7       6.8116   0.5067   6.5816   N.pl3     3 RES3   0.0000
    17 N8       7.4457   1.0995   1.5218   N.2       3 RES3   0.0000
    18 N9       9.6181   2.1385   2.7955   N.2       3 RES3   0.0000
    19 N10     11.7362   1.6340   2.5494   N.pl3     3 RES3   0.0000
    20 C1       6.2671   4.1760  -0.1743   C.3       3 RES3   0.0000
    21 C2       7.7631   4.2852   0.0739   C.3       3 RES3   0.0000
    22 C3       8.5200   5.4334   1.9981   C.2       3 RES3   0.0000
    23 C4       8.5950   5.5643   3.4302   C.2       3 RES3   0.0000
    24 C5       9.0758   6.5532   4.2307   C.2       3 RES3   0.0000
    25 C6       8.1608   4.9718   5.4653   C.2       3 RES3   0.0000
    26 C7       7.6911   4.2968   6.6946   C.3       3 RES3   0.0000
    27 C8       4.3915   3.2361   1.0994   C.3       3 RES3   0.0000
    28 C9       4.5007   3.9381   2.4512   C.3       3 RES3   0.0000
    29 C10      4.9094   2.6111   4.3670   C.2       3 RES3   0.0000
    30 C11      5.7799   1.7730   5.1474   C.2       3 RES3   0.0000
    31 C12      5.6222   1.1211   6.3250   C.2       3 RES3   0.0000
    32 C13      7.6626   0.7825   5.5614   C.2       3 RES3   0.0000
    33 C14      9.0485   0.2559   5.5139   C.3       3 RES3   0.0000
    34 C15      5.8642   1.7486  -0.1743   C.3       3 RES3   0.0000
    35 C16      6.2530   0.6518   0.7942   C.3       3 RES3   0.0000
    36 C17      8.5704   0.5683   1.2504   C.2       3 RES3   0.0000
    37 C18      9.7479   1.0980   1.8862   C.2       3 RES3   0.0000
    38 C19     11.0608   0.7933   1.7373   C.2       3 RES3   0.0000
    39 C20     10.8428   2.4325   3.1841   C.2       3 RES3   0.0000
    40 C21     11.2421   3.4200   4.2128   C.3       3 RES3   0.0000
    41 H1       9.0292   6.6574   6.2901   H         3 RES3   0.0000
    42 H2       7.0115  -0.0244   7.3441   H         3 RES3   0.0000
    43 H3      12.6800   1.6611   2.6582   H         3 RES3   0.0000
    44 H4       6.1128   4.0847  -1.1078   H         3 RES3   0.0000
    45 H5       5.8414   4.9628   0.1426   H         3 RES3   0.0000
    46 H6       8.1062   5.0592  -0.3580   H         3 RES3   0.0000
    47 H7       8.2038   3.5138  -0.2640   H         3 RES3   0.0000
    48 H8       8.8655   6.1109   1.4289   H         3 RES3   0.0000
    49 H9       9.5128   7.3503   3.9540   H         3 RES3   0.0000
    50 H10      6.8097   4.5861   6.8974   H         3 RES3   0.0000
    51 H11      8.2697   4.5154   7.4170   H         3 RES3   0.0000
    52 H12      7.6935   3.3570   6.5605   H         3 RES3   0.0000
    53 H13      3.8765   3.7748   0.5112   H         3 RES3   0.0000
    54 H14      3.9622   2.3978   1.2187   H         3 RES3   0.0000
    55 H15      3.6405   4.0114   2.8462   H         3 RES3   0.0000
    56 H16      4.8696   4.8059   2.3350   H         3 RES3   0.0000
    57 H17      4.0114   2.7655   4.6352   H         3 RES3   0.0000
    58 H18      4.8406   1.0980   6.8636   H         3 RES3   0.0000
    59 H19      9.0530  -0.5837   5.0693   H         3 RES3   0.0000
    60 H20      9.3766   0.1466   6.3989   H         3 RES3   0.0000
    61 H21      9.6027   0.8666   5.0450   H         3 RES3   0.0000
    62 H22      5.0426   1.5184  -0.5904   H         3 RES3   0.0000
    63 H23      6.5395   1.8334  -0.8354   H         3 RES3   0.0000
    64 H24      6.4454  -0.1466   0.3179   H         3 RES3   0.0000
    65 H25      5.5427   0.4937   1.4046   H         3 RES3   0.0000
    66 H26      8.6323  -0.1607   0.6442   H         3 RES3   0.0000
    67 H27     11.4299   0.1234   1.1744   H         3 RES3   0.0000
    68 H28     11.3753   4.2672   3.8041   H         3 RES3   0.0000
    69 H29     12.0491   3.1371   4.6268   H         3 RES3   0.0000
    70 H30     10.5590   3.4881   4.8686   H         3 RES3   0.0000
    71 O1       8.8091   7.7263   7.8753   O.3       4 RES4   0.0000
    72 C22      9.7409   7.5561   8.9431   C.3       4 RES4   0.0000
    73 H31      9.5214   8.1488   9.6528   H         4 RES4   0.0000
    74 H32     10.6170   7.7451   8.6315   H         4 RES4   0.0000
    75 H33      9.7034   6.6599   9.2567   H         4 RES4   0.0000
    76 H34      8.5077   8.6566   7.8922   H         4 RES4   0.0000
@<TRIPOS>BOND
     1     2     3    1
     2     4     2    1
     3     5     2    1
     4     6     2    1
     5     7     2    1
     6     8     2    1
     7     9    11    1
     8    10    20    1
     9    11    21    1
    10    12     9    1
    11    13    24    1
    12    14     9    1
    13    15     9    1
    14    16    31    1
    15    17     9    1
    16    18     9    1
    17    19    38    1
    18    20    21    1
    19    21    46    1
    20    22    11    2
    21    23    12    1
    22    24    23    2
    23    25    12    2
    24    26    25    1
    25    27    10    1
    26    28    14    1
    27    29    14    2
    28    30    15    1
    29    31    30    2
    30    32    15    2
    31    33    32    1
    32    34    10    1
    33    35    17    1
    34    36    17    2
    35    37    18    1
    36    38    37    2
    37    39    18    2
    38    40    39    1
    39    41    13    1
    40    42    16    1
    41    43    19    1
    42    44    20    1
    43    45    20    1
    44    47    21    1
    45    48    22    1
    46    49    24    1
    47    50    26    1
    48    51    26    1
    49    52    26    1
    50    53    27    1
    51    54    27    1
    52    55    28    1
    53    56    28    1
    54    57    29    1
    55    58    31    1
    56    59    33    1
    57    60    33    1
    58    61    33    1
    59    62    34    1
    60    63    34    1
    61    64    35    1
    62    65    35    1
    63    66    36    1
    64    67    38    1
    65    68    40    1
    66    69    40    1
    67    70    40    1
    68    13    25    1
    69    16    32    1
    70    19    39    1
    71    22    23    1
    72    27    28    1
    73    29    30    1
    74    34    35    1
    75    36    37    1
    76    71    72    1
    77    72    73    1
    78    74    72    1
    79    75    72    1
    80    76    71    1
@<TRIPOS>SUBSTRUCTURE
     1 RES1        1 GROUP             0 ****  ****    0  
     2 RES2        2 GROUP             0 ****  ****    0  
     3 RES3        9 GROUP             0 ****  ****    0  
     4 RES4       71 GROUP             0 ****  ****    0  
@<TRIPOS>CRYSIN
   22.7120   12.8570   10.5610   90.0000   90.0510   90.0000   231     1
