@<TRIPOS>MOLECULE
UMEYUJ
    79    87     2     0     0
SMALL
USER_CHARGES
****
Generated from the CSD

@<TRIPOS>ATOM
     1 Fe1      2.7761   2.4857   5.2746   Fe        1 RES1   2.0000
     2 C1       3.2478   2.0831   2.2778   C.3       1 RES1   0.0000
     3 C2       3.4707   1.8737   0.7751   C.3       1 RES1   0.0000
     4 H1       3.0448   2.6018   0.2774   H         1 RES1   0.0000
     5 H2       3.0782   1.0182   0.5021   H         1 RES1   0.0000
     6 H3       4.4321   1.8669   0.5855   H         1 RES1   0.0000
     7 N1       1.3995   2.4252   3.8632   N.ar      1 RES1   0.0000
     8 C3       1.7449   2.1512   2.5827   C.ar      1 RES1   0.0000
     9 C4       0.7781   1.9461   1.5994   C.ar      1 RES1   0.0000
    10 H4       1.0389   1.7329   0.7110   H         1 RES1   0.0000
    11 C5      -0.5663   2.0554   1.9226   C.ar      1 RES1   0.0000
    12 H5      -1.2357   1.8968   1.2680   H         1 RES1   0.0000
    13 C6      -0.9140   2.3989   3.2183   C.ar      1 RES1   0.0000
    14 H6      -1.8251   2.5162   3.4591   H         1 RES1   0.0000
    15 C7       0.0868   2.5672   4.1536   C.ar      1 RES1   0.0000
    16 H7      -0.1585   2.7930   5.0436   H         1 RES1   0.0000
    17 N2       3.8409   3.6416   4.0870   N.ar      1 RES1   0.0000
    18 C8       3.9091   3.3795   2.7566   C.ar      1 RES1   0.0000
    19 C9       4.5832   4.2308   1.8864   C.ar      1 RES1   0.0000
    20 H8       4.5903   4.0495   0.9537   H         1 RES1   0.0000
    21 C10      5.2443   5.3451   2.3811   C.ar      1 RES1   0.0000
    22 H9       5.7112   5.9306   1.7976   H         1 RES1   0.0000
    23 C11      5.2087   5.5860   3.7484   C.ar      1 RES1   0.0000
    24 H10      5.6760   6.3254   4.1184   H         1 RES1   0.0000
    25 C12      4.4848   4.7367   4.5632   C.ar      1 RES1   0.0000
    26 H11      4.4358   4.9273   5.4930   H         1 RES1   0.0000
    27 N3       3.6272   0.9273   4.4153   N.ar      1 RES1   0.0000
    28 C13      3.8659   0.9303   3.0829   C.ar      1 RES1   0.0000
    29 C14      4.6583  -0.0489   2.4944   C.ar      1 RES1   0.0000
    30 H12      4.8441  -0.0129   1.5634   H         1 RES1   0.0000
    31 C15      5.1752  -1.0752   3.2639   C.ar      1 RES1   0.0000
    32 H13      5.7392  -1.7331   2.8736   H         1 RES1   0.0000
    33 C16      4.8598  -1.1312   4.6174   C.ar      1 RES1   0.0000
    34 H14      5.1624  -1.8495   5.1618   H         1 RES1   0.0000
    35 C17      4.0913  -0.1100   5.1478   C.ar      1 RES1   0.0000
    36 H15      3.8788  -0.1386   6.0732   H         1 RES1   0.0000
    37 C1A      2.3044   2.8884   8.2715   C.3       1 RES1   0.0000
    38 C2A      2.0815   3.0978   9.7742   C.3       1 RES1   0.0000
    39 H1A      2.5074   2.3697  10.2718   H         1 RES1   0.0000
    40 H2A      2.4740   3.9533  10.0471   H         1 RES1   0.0000
    41 H3A      1.1201   3.1046   9.9638   H         1 RES1   0.0000
    42 N1A      4.1527   2.5462   6.6860   N.ar      1 RES1   0.0000
    43 C3A      3.8073   2.8203   7.9666   C.ar      1 RES1   0.0000
    44 C4A      4.7741   3.0253   8.9499   C.ar      1 RES1   0.0000
    45 H4A      4.5133   3.2386   9.8382   H         1 RES1   0.0000
    46 C5A      6.1185   2.9161   8.6267   C.ar      1 RES1   0.0000
    47 H5A      6.7879   3.0747   9.2812   H         1 RES1   0.0000
    48 C6A      6.4662   2.5725   7.3310   C.ar      1 RES1   0.0000
    49 H6A      7.3773   2.4553   7.0902   H         1 RES1   0.0000
    50 C7A      5.4654   2.4043   6.3957   C.ar      1 RES1   0.0000
    51 H7A      5.7107   2.1785   5.5057   H         1 RES1   0.0000
    52 N2A      1.7113   1.3298   6.4623   N.ar      1 RES1   0.0000
    53 C8A      1.6431   1.5920   7.7926   C.ar      1 RES1   0.0000
    54 C9A      0.9690   0.7407   8.6628   C.ar      1 RES1   0.0000
    55 H8A      0.9619   0.9220   9.5956   H         1 RES1   0.0000
    56 C10A     0.3079  -0.3736   8.1682   C.ar      1 RES1   0.0000
    57 H9A     -0.1590  -0.9591   8.7517   H         1 RES1   0.0000
    58 C11A     0.3435  -0.6146   6.8009   C.ar      1 RES1   0.0000
    59 H10A    -0.1238  -1.3540   6.4308   H         1 RES1   0.0000
    60 C12A     1.0674   0.2348   5.9861   C.ar      1 RES1   0.0000
    61 H11A     1.1164   0.0442   5.0563   H         1 RES1   0.0000
    62 N3A      1.9250   4.0442   6.1340   N.ar      1 RES1   0.0000
    63 C13A     1.6863   4.0412   7.4664   C.ar      1 RES1   0.0000
    64 C14A     0.8939   5.0203   8.0549   C.ar      1 RES1   0.0000
    65 H12A     0.7081   4.9844   8.9859   H         1 RES1   0.0000
    66 C15A     0.3770   6.0467   7.2853   C.ar      1 RES1   0.0000
    67 H13A    -0.1870   6.7046   7.6756   H         1 RES1   0.0000
    68 C16A     0.6924   6.1027   5.9319   C.ar      1 RES1   0.0000
    69 H14A     0.3899   6.8210   5.3875   H         1 RES1   0.0000
    70 C17A     1.4609   5.0815   5.4014   C.ar      1 RES1   0.0000
    71 H15A     1.6734   5.1101   4.4761   H         1 RES1   0.0000
    72 S1       5.6162  -3.1577   8.5936   S.o2      2 RES2   0.0000
    73 O1       7.0201  -3.0025   8.9018   O.2       2 RES2   0.0000
    74 O2       5.3175  -3.4981   7.2251   O.2       2 RES2   0.0000
    75 O3       4.8461  -3.8643   9.5948   O.3       2 RES2  -1.0000
    76 C18      4.9724  -1.4524   8.7486   C.3       2 RES2   0.0000
    77 F1       3.6579  -1.3926   8.5019   F         2 RES2   0.0000
    78 F2       5.1723  -0.9658   9.9777   F         2 RES2   0.0000
    79 F3       5.5694  -0.6152   7.8930   F         2 RES2   0.0000
@<TRIPOS>BOND
     1     1     7    1
     2     2     3    1
     3     3     4    1
     4     5     3    1
     5     6     3    1
     6     7     8   ar
     7     8     2    1
     8     9     8   ar
     9    10     9    1
    10    11     9   ar
    11    12    11    1
    12    13    11   ar
    13    14    13    1
    14    15     7   ar
    15    16    15    1
    16    17     1    1
    17    18     2    1
    18    19    18   ar
    19    20    19    1
    20    21    19   ar
    21    22    21    1
    22    23    21   ar
    23    24    23    1
    24    25    17   ar
    25    26    25    1
    26    27     1    1
    27    28     2    1
    28    29    28   ar
    29    30    29    1
    30    31    29   ar
    31    32    31    1
    32    33    31   ar
    33    34    33    1
    34    35    27   ar
    35    36    35    1
    36    37    38    1
    37    38    39    1
    38    40    38    1
    39    41    38    1
    40    42     1    1
    41    43    37    1
    42    44    43   ar
    43    45    44    1
    44    46    44   ar
    45    47    46    1
    46    48    46   ar
    47    49    48    1
    48    50    42   ar
    49    51    50    1
    50    52     1    1
    51    53    37    1
    52    54    53   ar
    53    55    54    1
    54    56    54   ar
    55    57    56    1
    56    58    56   ar
    57    59    58    1
    58    60    52   ar
    59    61    60    1
    60    62     1    1
    61    63    37    1
    62    64    63   ar
    63    65    64    1
    64    66    64   ar
    65    67    66    1
    66    68    66   ar
    67    69    68    1
    68    70    62   ar
    69    71    70    1
    70    13    15   ar
    71    17    18   ar
    72    23    25   ar
    73    27    28   ar
    74    33    35   ar
    75    42    43   ar
    76    48    50   ar
    77    52    53   ar
    78    58    60   ar
    79    62    63   ar
    80    68    70   ar
    81    72    73    2
    82    74    72    2
    83    75    72    1
    84    76    72    1
    85    77    76    1
    86    78    76    1
    87    79    76    1
@<TRIPOS>SUBSTRUCTURE
     1 RES1        1 GROUP             0 ****  ****    0  
     2 RES2       72 GROUP             0 ****  ****    0  
@<TRIPOS>CRYSIN
    8.3875   10.0328   11.7761  113.7832   97.7859   97.0994     2     1
