@<TRIPOS>MOLECULE
UMOSOH
    87    92     3     0     0
SMALL
USER_CHARGES
****
Generated from the CSD

@<TRIPOS>ATOM
     1 Fe1      6.3395  12.1078  14.1214   Fe        1 RES1   2.0000
     2 O1       3.5353  12.2659  15.7904   O.3       1 RES1   0.0000
     3 O2       4.1955  14.5034  13.6752   O.3       1 RES1   0.0000
     4 N1       7.0568  10.9730  15.5563   N.2       1 RES1   0.0000
     5 N2       7.7536  13.4451  14.2960   N.2       1 RES1   0.0000
     6 N3       5.5352  13.2780  15.6173   N.ar      1 RES1   0.0000
     7 N4       7.2210  11.1502  12.6650   N.2       1 RES1   0.0000
     8 N5       5.6082  13.1724  12.5409   N.ar      1 RES1   0.0000
     9 N6       4.9102  10.6352  14.1530   N.ar      1 RES1   0.0000
    10 O3       3.6681  11.3459  12.4133   O.3       1 RES1   0.0000
    11 C1       8.2882  11.1926  16.3169   C.3       1 RES1   0.0000
    12 H1       8.2196  10.7257  17.1873   H         1 RES1   0.0000
    13 H2       8.3893  12.1604  16.4988   H         1 RES1   0.0000
    14 C2       9.5316  10.6889  15.5737   C.3       1 RES1   0.0000
    15 H3      10.3230  10.8807  16.1374   H         1 RES1   0.0000
    16 H4       9.4615   9.7047  15.4929   H         1 RES1   0.0000
    17 N7       9.7815  11.2254  14.2605   N.3       1 RES1   0.0000
    18 C3      10.0802  12.6265  14.1092   C.3       1 RES1   0.0000
    19 H5      10.8864  12.7083  13.5406   H         1 RES1   0.0000
    20 H6      10.3117  12.9885  15.0010   H         1 RES1   0.0000
    21 C4       8.9887  13.5080  13.5106   C.3       1 RES1   0.0000
    22 H7       9.3074  14.4448  13.4761   H         1 RES1   0.0000
    23 H8       8.8028  13.2145  12.5837   H         1 RES1   0.0000
    24 C5       7.5963  14.3352  15.2015   C.2       1 RES1   0.0000
    25 H9       8.2546  15.0022  15.3573   H         1 RES1   0.0000
    26 C6       6.3733  14.2856  15.9814   C.ar      1 RES1   0.0000
    27 C7       6.0901  15.2317  16.9448   C.ar      1 RES1   0.0000
    28 H10      6.7224  15.9021  17.1767   H         1 RES1   0.0000
    29 C8       4.8382  15.1679  17.5683   C.ar      1 RES1   0.0000
    30 H11      4.5978  15.8035  18.2322   H         1 RES1   0.0000
    31 C9       3.9650  14.1770  17.2081   C.ar      1 RES1   0.0000
    32 H12      3.1107  14.1207  17.6189   H         1 RES1   0.0000
    33 C10      4.3415  13.2416  16.2255   C.ar      1 RES1   0.0000
    34 C11      2.2174  12.1777  16.3460   C.3       1 RES1   0.0000
    35 H13      2.2790  11.9761  17.3031   H         1 RES1   0.0000
    36 H14      1.7191  11.4652  15.8936   H         1 RES1   0.0000
    37 H15      1.7523  13.0312  16.2213   H         1 RES1   0.0000
    38 C12      9.5584  10.4008  13.1072   C.3       1 RES1   0.0000
    39 H16     10.0979   9.5771  13.2096   H         1 RES1   0.0000
    40 H17      9.9042  10.8821  12.3141   H         1 RES1   0.0000
    41 C13      8.1048   9.9869  12.8183   C.3       1 RES1   0.0000
    42 H18      8.0784   9.4463  11.9893   H         1 RES1   0.0000
    43 H19      7.7731   9.4218  13.5606   H         1 RES1   0.0000
    44 C14      6.9794  11.5779  11.4822   C.2       1 RES1   0.0000
    45 H20      7.3559  11.1554  10.7193   H         1 RES1   0.0000
    46 C15      6.1094  12.7304  11.3506   C.ar      1 RES1   0.0000
    47 C16      5.7715  13.2703  10.1230   C.ar      1 RES1   0.0000
    48 H21      6.1575  12.9383   9.3208   H         1 RES1   0.0000
    49 C17      4.8575  14.3076  10.0962   C.ar      1 RES1   0.0000
    50 H22      4.6238  14.7201   9.2729   H         1 RES1   0.0000
    51 C18      4.2900  14.7352  11.2724   C.ar      1 RES1   0.0000
    52 H23      3.6344  15.4232  11.2683   H         1 RES1   0.0000
    53 C19      4.6902  14.1423  12.4801   C.ar      1 RES1   0.0000
    54 C20      2.9212  15.1736  13.6886   C.3       1 RES1   0.0000
    55 H24      3.0059  16.0440  13.2463   H         1 RES1   0.0000
    56 H25      2.6312  15.3048  14.6152   H         1 RES1   0.0000
    57 H26      2.2606  14.6282  13.2131   H         1 RES1   0.0000
    58 C21      6.3143   9.9901  15.9246   C.2       1 RES1   0.0000
    59 H27      6.5580   9.4360  16.6567   H         1 RES1   0.0000
    60 C22      5.0924   9.7588  15.1827   C.ar      1 RES1   0.0000
    61 C23      3.7901  10.4779  13.4239   C.ar      1 RES1   0.0000
    62 C24      2.8289   9.5052  13.7267   C.ar      1 RES1   0.0000
    63 H28      2.0459   9.4234  13.1945   H         1 RES1   0.0000
    64 C25      3.0274   8.6721  14.7977   C.ar      1 RES1   0.0000
    65 H29      2.3705   8.0254  15.0284   H         1 RES1   0.0000
    66 C26      4.1935   8.7802  15.5424   C.ar      1 RES1   0.0000
    67 H30      4.3652   8.1994  16.2744   H         1 RES1   0.0000
    68 C27      2.4502  11.3439  11.6497   C.3       1 RES1   0.0000
    69 H31      2.3303  10.4668  11.2292   H         1 RES1   0.0000
    70 H32      2.4990  12.0346  10.9561   H         1 RES1   0.0000
    71 H33      1.6927  11.5287  12.2426   H         1 RES1   0.0000
    72 S1       5.4473   9.5731  20.2732   S.o2      2 RES2   0.0000
    73 F1       4.2383  10.5215  18.1600   F         2 RES2   0.0000
    74 F2       6.0168  11.5892  18.6863   F         2 RES2   0.0000
    75 F3       4.2235  11.8446  19.8428   F         2 RES2   0.0000
    76 O4       6.1749  10.2402  21.3062   O.2       2 RES2   0.0000
    77 O5       4.1865   9.0282  20.6982   O.3       2 RES2  -1.0000
    78 O6       6.2231   8.7402  19.4083   O.2       2 RES2   0.0000
    79 C28      4.9573  10.9465  19.1941   C.3       2 RES2   0.0000
    80 S2       5.7773   9.9190   7.5531   S.o2      3 RES3   0.0000
    81 F4       3.2825  10.3950   8.2281   F         3 RES3   0.0000
    82 F5       3.9086   8.3657   8.5344   F         3 RES3   0.0000
    83 F6       4.5788   9.8928   9.8878   F         3 RES3   0.0000
    84 O7       5.9893  11.3415   7.6477   O.2       3 RES3   0.0000
    85 O8       5.3379   9.4673   6.2567   O.2       3 RES3   0.0000
    86 O9       6.7891   9.1021   8.1751   O.3       3 RES3  -1.0000
    87 C29      4.3093   9.6324   8.6054   C.3       3 RES3   0.0000
@<TRIPOS>BOND
     1     1     4    1
     2     2    33    1
     3     3    53    1
     4     4    11    1
     5     5     1    1
     6     6     1    1
     7     7     1    1
     8     8     1    1
     9     9     1    1
    10    10    61    1
    11    11    12    1
    12    13    11    1
    13    14    11    1
    14    15    14    1
    15    16    14    1
    16    17    14    1
    17    18    17    1
    18    19    18    1
    19    20    18    1
    20    21     5    1
    21    22    21    1
    22    23    21    1
    23    24     5    2
    24    25    24    1
    25    26     6   ar
    26    27    26   ar
    27    28    27    1
    28    29    27   ar
    29    30    29    1
    30    31    29   ar
    31    32    31    1
    32    33     6   ar
    33    34     2    1
    34    35    34    1
    35    36    34    1
    36    37    34    1
    37    38    17    1
    38    39    38    1
    39    40    38    1
    40    41     7    1
    41    42    41    1
    42    43    41    1
    43    44     7    2
    44    45    44    1
    45    46     8   ar
    46    47    46   ar
    47    48    47    1
    48    49    47   ar
    49    50    49    1
    50    51    49   ar
    51    52    51    1
    52    53     8   ar
    53    54     3    1
    54    55    54    1
    55    56    54    1
    56    57    54    1
    57    58     4    2
    58    59    58    1
    59    60     9   ar
    60    61     9   ar
    61    62    61   ar
    62    63    62    1
    63    64    62   ar
    64    65    64    1
    65    66    60   ar
    66    67    66    1
    67    68    10    1
    68    69    68    1
    69    70    68    1
    70    71    68    1
    71    18    21    1
    72    24    26    1
    73    31    33   ar
    74    38    41    1
    75    44    46    1
    76    51    53   ar
    77    58    60    1
    78    64    66   ar
    79    72    76    2
    80    73    79    1
    81    74    79    1
    82    75    79    1
    83    77    72    1
    84    78    72    2
    85    79    72    1
    86    80    84    2
    87    81    87    1
    88    82    87    1
    89    83    87    1
    90    85    80    2
    91    86    80    1
    92    87    80    1
@<TRIPOS>SUBSTRUCTURE
     1 RES1        1 GROUP             0 ****  ****    0  
     2 RES2       72 GROUP             0 ****  ****    0  
     3 RES3       80 GROUP             0 ****  ****    0  
@<TRIPOS>CRYSIN
   10.7277   17.0970   18.7710   90.0000   90.0000   90.0000    19     1
