@<TRIPOS>MOLECULE
UNEWEP
   175   172     9     0     0
SMALL
USER_CHARGES
****
Generated from the CSD

@<TRIPOS>ATOM
     1 Fe1      5.5222  10.1682   4.1395   Fe        1 RES1   0.0000
     2 N1       0.4039  10.0153  12.4905   N.4       1 RES1   1.0000
     3 C1       1.6487   9.3626  11.9870   C.3       1 RES1   0.0000
     4 C2       1.9487   9.7892  10.5761   C.3       1 RES1   0.0000
     5 C3       3.1052   9.0340   9.9580   C.3       1 RES1   0.0000
     6 C4       3.2875   9.4116   8.5004   C.3       1 RES1   0.0000
     7 C5       4.2986   8.5502   7.7994   C.3       1 RES1   0.0000
     8 N2       4.4243   8.8686   6.3689   N.am      1 RES1   0.0000
     9 C6       3.7718   8.3686   5.3318   C.2       1 RES1   0.0000
    10 C7       2.7447   7.2908   5.5051   C.3       1 RES1   0.0000
    11 C8       3.0810   6.0131   4.6866   C.3       1 RES1   0.0000
    12 C9       4.3199   5.3069   5.1494   C.2       1 RES1   0.0000
    13 O1       4.7479   5.4396   6.3312   O.2       1 RES1   0.0000
    14 N3       4.8950   4.5313   4.2524   N.am      1 RES1   0.0000
    15 C10      6.1465   3.8189   4.4635   C.3       1 RES1   0.0000
    16 C11      7.2019   4.3374   3.5108   C.3       1 RES1   0.0000
    17 C12      7.5954   5.7927   3.7851   C.3       1 RES1   0.0000
    18 C13      8.4796   6.3968   2.7330   C.3       1 RES1   0.0000
    19 C14      8.8138   7.8399   2.9877   C.3       1 RES1   0.0000
    20 N4       7.6171   8.6782   2.9952   N.am      1 RES1   0.0000
    21 C15      6.9819   9.1911   1.9627   C.2       1 RES1   0.0000
    22 C16      7.4623   8.9768   0.5517   C.3       1 RES1   0.0000
    23 C17      7.5269  10.2749  -0.2321   C.3       1 RES1   0.0000
    24 C18      8.4696  11.2833   0.4130   C.2       1 RES1   0.0000
    25 O2       9.1668  10.9975   1.3702   O.2       1 RES1   0.0000
    26 N5       8.4549  12.4916  -0.1779   N.am      1 RES1   0.0000
    27 C19      9.1471  13.6489   0.3497   C.3       1 RES1   0.0000
    28 C20      8.1737  14.7654   0.6979   C.3       1 RES1   0.0000
    29 C21      7.2013  14.3959   1.8285   C.3       1 RES1   0.0000
    30 C22      7.9019  14.1673   3.1430   C.3       1 RES1   0.0000
    31 C23      6.9664  14.0673   4.3685   C.3       1 RES1   0.0000
    32 N6       6.0710  12.9192   4.2539   N.am      1 RES1   0.0000
    33 C24      4.8333  12.8692   3.8680   C.2       1 RES1   0.0000
    34 C25      4.0537  14.0939   3.5530   C.3       1 RES1   0.0000
    35 O3       5.2562   9.9353   6.1020   O.3       1 RES1   0.0000
    36 O4       4.0032   8.8282   4.1680   O.2       1 RES1   0.0000
    37 O5       7.0582   8.9160   4.2193   O.3       1 RES1   0.0000
    38 O6       5.9348   9.8794   2.1707   O.2       1 RES1   0.0000
    39 O7       6.7072  11.7156   4.4574   O.3       1 RES1   0.0000
    40 O8       4.2915  11.7250   3.7414   O.2       1 RES1   0.0000
    41 H1       0.2157   9.7361  13.3859   H         1 RES1   0.0000
    42 H2       0.5177  10.9608  12.4664   H         1 RES1   0.0000
    43 H3      -0.3334   9.7769  11.9237   H         1 RES1   0.0000
    44 H4       1.5405   8.4094  12.0142   H         1 RES1   0.0000
    45 H5       2.3916   9.6136  12.5568   H         1 RES1   0.0000
    46 H6       1.1683   9.6340  10.0394   H         1 RES1   0.0000
    47 H7       2.1582  10.7362  10.5821   H         1 RES1   0.0000
    48 H8       3.9007   9.2462  10.4314   H         1 RES1   0.0000
    49 H9       2.9351   8.0828  10.0244   H         1 RES1   0.0000
    50 H10      3.5698  10.3280   8.4416   H         1 RES1   0.0000
    51 H11      2.4438   9.3075   8.0496   H         1 RES1   0.0000
    52 H12      4.0293   7.6338   7.8838   H         1 RES1   0.0000
    53 H13      5.1405   8.6747   8.2305   H         1 RES1   0.0000
    54 H14      2.7051   7.0418   6.4367   H         1 RES1   0.0000
    55 H15      1.8891   7.6338   5.2308   H         1 RES1   0.0000
    56 H16      3.2423   6.2866   3.7836   H         1 RES1   0.0000
    57 H17      2.3436   5.3885   4.7182   H         1 RES1   0.0000
    58 H18      4.4765   4.4496   3.3917   H         1 RES1   0.0000
    59 H19      6.4353   4.0006   5.3664   H         1 RES1   0.0000
    60 H20      6.0138   2.8780   4.3565   H         1 RES1   0.0000
    61 H21      7.9880   3.7965   3.5575   H         1 RES1   0.0000
    62 H22      6.8439   4.2863   2.6229   H         1 RES1   0.0000
    63 H23      8.0673   5.8172   4.6127   H         1 RES1   0.0000
    64 H24      6.8037   6.3274   3.8590   H         1 RES1   0.0000
    65 H25      9.2964   5.8784   2.6832   H         1 RES1   0.0000
    66 H26      8.0163   6.3479   1.8994   H         1 RES1   0.0000
    67 H27      9.4364   8.1644   2.3214   H         1 RES1   0.0000
    68 H28      9.2233   7.8991   3.8590   H         1 RES1   0.0000
    69 H29      8.3428   8.5931   0.5879   H         1 RES1   0.0000
    70 H30      6.8700   8.3686   0.1055   H         1 RES1   0.0000
    71 H31      6.6513  10.6546  -0.2412   H         1 RES1   0.0000
    72 H32      7.8226  10.1035  -1.1306   H         1 RES1   0.0000
    73 H33      7.9444  12.6141  -0.9798   H         1 RES1   0.0000
    74 H34      9.6285  13.3897   1.1456   H         1 RES1   0.0000
    75 H35      9.7719  13.9612  -0.3015   H         1 RES1   0.0000
    76 H36      8.6555  15.5533   0.9798   H         1 RES1   0.0000
    77 H37      7.6656  14.9613  -0.0904   H         1 RES1   0.0000
    78 H38      6.7431  13.5938   1.5828   H         1 RES1   0.0000
    79 H39      6.5618  15.1042   1.9596   H         1 RES1   0.0000
    80 H40      8.3994  13.3489   3.0751   H         1 RES1   0.0000
    81 H41      8.5144  14.9001   3.2862   H         1 RES1   0.0000
    82 H42      6.4269  14.8593   4.3866   H         1 RES1   0.0000
    83 H43      7.4672  14.0020   5.1855   H         1 RES1   0.0000
    84 H44      3.1596  13.8387   3.2862   H         1 RES1   0.0000
    85 H45      3.9925  14.6552   4.3414   H         1 RES1   0.0000
    86 H46      4.4782  14.5735   2.8490   H         1 RES1   0.0000
    87 Mg1      9.0663  10.2056   7.5371   Mg        2 RES2   2.0000
    88 O9       9.0541  11.3363   5.7915   O.3       2 RES2   0.0000
    89 O10      8.4483   8.5643   6.4804   O.3       2 RES2   0.0000
    90 O11      7.0994  10.7422   7.9049   O.3       2 RES2   0.0000
    91 H47      9.0663  12.0017   6.4819   H         2 RES2   0.0000
    92 H48      8.1818  11.6139   5.5322   H         2 RES2   0.0000
    93 H49      8.7728   7.7154   6.7985   H         2 RES2   0.0000
    94 H50      6.7793  11.4506   8.4717   H         2 RES2   0.0000
    95 H51      7.8639   8.6339   5.7131   H         2 RES2   0.0000
    96 H52      6.4172  10.2260   7.4617   H         2 RES2   0.0000
    97 O9B      9.0784   9.0748   9.2827   O.3       2 RES2   0.0000
    98 H47B     9.0662   8.4094   8.5923   H         2 RES2   0.0000
    99 H48B     9.9508   8.7972   9.5420   H         2 RES2   0.0000
   100 O10B     9.6843  11.8468   8.5938   O.3       2 RES2   0.0000
   101 H49B     9.3598  12.6957   8.2757   H         2 RES2   0.0000
   102 H51B    10.2687  11.7772   9.3611   H         2 RES2   0.0000
   103 O11B    11.0331   9.6689   7.1693   O.3       2 RES2   0.0000
   104 H50B    11.3533   8.9605   6.6025   H         2 RES2   0.0000
   105 H52B    11.7153  10.1851   7.6125   H         2 RES2   0.0000
   106 O12     18.5215  11.6200  10.4826   O.3       3 RES3   0.0000
   107 C26     19.2845  12.7039  10.0304   C.3       3 RES3   0.0000
   108 C27     19.7236  13.5387  11.2017   C.3       3 RES3   0.0000
   109 O13     20.5246  12.8374  12.0473   O.3       3 RES3   0.0000
   110 C28     21.0452  13.6428  13.1116   C.3       3 RES3   0.0000
   111 C29     21.8578  12.7916  14.0130   C.3       3 RES3   0.0000
   112 O14     21.0021  11.8874  14.6190   O.3       3 RES3   0.0000
   113 C30     21.6425  11.1363  15.5355   C.3       3 RES3   0.0000
   114 C31     20.7690  10.1749  16.2108   C.3       3 RES3   0.0000
   115 O15     20.1885   9.2830  15.2385   O.3       3 RES3   0.0000
   116 C32     19.2731   8.4053  15.7405   C.3       3 RES3   0.0000
   117 C33     18.8473   7.4337  14.7155   C.3       3 RES3   0.0000
   118 O16     18.3168   8.0012  13.5110   O.3       3 RES3   0.0000
   119 C34     18.0943   7.1112  12.4061   C.3       3 RES3   0.0000
   120 C35     17.3482   7.8419  11.3901   C.3       3 RES3   0.0000
   121 O17     18.0762   8.9094  10.9665   O.3       3 RES3   0.0000
   122 C36     17.3530   9.6442   9.9761   C.3       3 RES3   0.0000
   123 C37     18.2062  10.7199   9.4621   C.3       3 RES3   0.0000
   124 H53     20.0949  12.3691   9.6324   H         3 RES3   0.0000
   125 H54     18.7933  13.2264   9.3912   H         3 RES3   0.0000
   126 H55     18.9333  13.7775  11.6675   H         3 RES3   0.0000
   127 H56     20.1703  14.3286  10.8987   H         3 RES3   0.0000
   128 H57     21.5874  14.3490  12.7528   H         3 RES3   0.0000
   129 H58     20.3204  14.0224  13.6120   H         3 RES3   0.0000
   130 H59     22.3019  13.3284  14.6823   H         3 RES3   0.0000
   131 H60     22.5156  12.3283  13.4914   H         3 RES3   0.0000
   132 H61     22.3535  10.6750  15.1044   H         3 RES3   0.0000
   133 H62     21.9880  11.6956  16.2349   H         3 RES3   0.0000
   134 H63     20.0563  10.6342  16.6570   H         3 RES3   0.0000
   135 H64     21.2655   9.6545  16.8379   H         3 RES3   0.0000
   136 H65     18.4997   8.8992  16.0390   H         3 RES3   0.0000
   137 H66     19.6602   7.9195  16.4761   H         3 RES3   0.0000
   138 H67     19.6053   6.8785  14.5014   H         3 RES3   0.0000
   139 H68     18.1507   6.8785  15.0893   H         3 RES3   0.0000
   140 H69     17.6061   6.3479  12.7076   H         3 RES3   0.0000
   141 H70     18.9321   6.8173  12.0292   H         3 RES3   0.0000
   142 H71     16.5035   8.1236  11.7579   H         3 RES3   0.0000
   143 H72     17.1829   7.2459  10.6575   H         3 RES3   0.0000
   144 H73     17.0815   9.0421   9.2706   H         3 RES3   0.0000
   145 H74     16.5788  10.0219  10.3861   H         3 RES3   0.0000
   146 H75     17.7110  11.1853   8.7883   H         3 RES3   0.0000
   147 H76     19.0075  10.3484   9.0747   H         3 RES3   0.0000
   148 Cl1      5.3627  12.5455  11.1665   Cl        4 RES4   0.0000
   149 O18      5.2412  11.2343  11.6463   O.3       4 RES4  -1.0000
   150 O19      6.3002  12.6079  10.0636   O.2       4 RES4   0.0000
   151 O20      4.1392  13.0651  10.7253   O.2       4 RES4   0.0000
   152 O21      5.9385  13.3346  12.1634   O.2       4 RES4   0.0000
   153 Cl2      0.8852   3.8150   1.2495   Cl        5 RES5   0.0000
   154 O22      1.6888   4.4455   0.2548   O.3       5 RES5  -1.0000
   155 O23      1.5113   3.9067   2.5491   O.2       5 RES5   0.0000
   156 O24     -0.4169   4.3210   1.2346   O.2       5 RES5   0.0000
   157 O25      0.9153   2.4636   0.9406   O.2       5 RES5   0.0000
   158 O26      8.2533   0.9248   3.8922   O.3       6 RES6   0.0000
   159 H77      8.7609   1.3880   3.2108   H         6 RES6   0.0000
   160 H78      7.7659   0.1225   3.7686   H         6 RES6   0.0000
   161 O27      4.2948   5.1069   1.3974   O.3       7 RES7   0.0000
   162 H79      4.4317   4.3680   0.7989   H         7 RES7   0.0000
   163 H80      3.4089   5.4702   1.2512   H         7 RES7   0.0000
   164 O28      7.2777   6.2458   7.4286   O.3       8 RES8   0.0000
   165 H81      7.0377   6.5928   8.2908   H         8 RES8   0.0000
   166 H82      6.9493   5.4702   6.9643   H         8 RES8   0.0000
   167 C38      2.6950  15.9247   0.7763   C.3       9 RES9   0.0000
   168 C39      3.5005  16.9575   0.2985   C.3       9 RES9   0.0000
   169 O29      4.7494  17.0800  -0.3467   O.3       9 RES9   0.0000
   170 H83      1.9215  16.2472   1.2512   H         9 RES9   0.0000
   171 H84      2.4179  15.4104   0.0151   H         9 RES9   0.0000
   172 H85      3.2185  15.3696   1.3567   H         9 RES9   0.0000
   173 H86      2.8814  17.4719  -0.2261   H         9 RES9   0.0000
   174 H87      3.6821  17.4311   1.1155   H         9 RES9   0.0000
   175 H88      4.8987  18.0026  -0.5276   H         9 RES9   0.0000
@<TRIPOS>BOND
     1     1    35    1
     2     2     3    1
     3     3     4    1
     4     4     5    1
     5     5     6    1
     6     6     7    1
     7     7     8    1
     8     8     9   am
     9     9    10    1
    10    10    11    1
    11    11    12    1
    12    12    13    2
    13    14    12   am
    14    15    14    1
    15    16    15    1
    16    17    16    1
    17    18    17    1
    18    19    18    1
    19    20    19    1
    20    21    20   am
    21    22    21    1
    22    23    22    1
    23    24    23    1
    24    25    24    2
    25    26    24   am
    26    27    26    1
    27    28    27    1
    28    29    28    1
    29    30    29    1
    30    31    30    1
    31    32    31    1
    32    33    32   am
    33    34    33    1
    34    35     8    1
    35    36     1    1
    36    37     1    1
    37    38     1    1
    38    39     1    1
    39    40     1    1
    40    41     2    1
    41    42     2    1
    42    43     2    1
    43    44     3    1
    44    45     3    1
    45    46     4    1
    46    47     4    1
    47    48     5    1
    48    49     5    1
    49    50     6    1
    50    51     6    1
    51    52     7    1
    52    53     7    1
    53    54    10    1
    54    55    10    1
    55    56    11    1
    56    57    11    1
    57    58    14    1
    58    59    15    1
    59    60    15    1
    60    61    16    1
    61    62    16    1
    62    63    17    1
    63    64    17    1
    64    65    18    1
    65    66    18    1
    66    67    19    1
    67    68    19    1
    68    69    22    1
    69    70    22    1
    70    71    23    1
    71    72    23    1
    72    73    26    1
    73    74    27    1
    74    75    27    1
    75    76    28    1
    76    77    28    1
    77    78    29    1
    78    79    29    1
    79    80    30    1
    80    81    30    1
    81    82    31    1
    82    83    31    1
    83    84    34    1
    84    85    34    1
    85    86    34    1
    86     9    36    2
    87    20    37    1
    88    21    38    2
    89    32    39    1
    90    33    40    2
    91    87    88    1
    92    88    91    1
    93    89    87    1
    94    90    87    1
    95    92    88    1
    96    93    89    1
    97    94    90    1
    98    95    89    1
    99    96    90    1
   100    97    87    1
   101    98    97    1
   102    99    97    1
   103   100    87    1
   104   101   100    1
   105   102   100    1
   106   103    87    1
   107   104   103    1
   108   105   103    1
   109   106   107    1
   110   107   108    1
   111   108   109    1
   112   109   110    1
   113   110   111    1
   114   111   112    1
   115   112   113    1
   116   113   114    1
   117   114   115    1
   118   115   116    1
   119   116   117    1
   120   117   118    1
   121   118   119    1
   122   119   120    1
   123   120   121    1
   124   121   122    1
   125   122   123    1
   126   123   106    1
   127   124   107    1
   128   125   107    1
   129   126   108    1
   130   127   108    1
   131   128   110    1
   132   129   110    1
   133   130   111    1
   134   131   111    1
   135   132   113    1
   136   133   113    1
   137   134   114    1
   138   135   114    1
   139   136   116    1
   140   137   116    1
   141   138   117    1
   142   139   117    1
   143   140   119    1
   144   141   119    1
   145   142   120    1
   146   143   120    1
   147   144   122    1
   148   145   122    1
   149   146   123    1
   150   147   123    1
   151   148   149    1
   152   150   148    2
   153   151   148    2
   154   152   148    2
   155   153   154    1
   156   155   153    2
   157   156   153    2
   158   157   153    2
   159   158   159    1
   160   160   158    1
   161   161   162    1
   162   163   161    1
   163   164   165    1
   164   166   164    1
   165   167   168    1
   166   168   169    1
   167   169   175    1
   168   170   167    1
   169   171   167    1
   170   172   167    1
   171   173   168    1
   172   174   168    1
@<TRIPOS>SUBSTRUCTURE
     1 RES1        1 GROUP             0 ****  ****    0  
     2 RES2       87 GROUP             0 ****  ****    0  
     3 RES3      106 GROUP             0 ****  ****    0  
     4 RES4      148 GROUP             0 ****  ****    0  
     5 RES5      153 GROUP             0 ****  ****    0  
     6 RES6      158 GROUP             0 ****  ****    0  
     7 RES7      161 GROUP             0 ****  ****    0  
     8 RES8      164 GROUP             0 ****  ****    0  
     9 RES9      167 GROUP             0 ****  ****    0  
@<TRIPOS>CRYSIN
   19.8327   20.4111   15.1698   90.0000   96.4350   90.0000    14     1
