@<TRIPOS>MOLECULE
UPAGUP
    91   102     1     0     0
SMALL
NO_CHARGES
****
Generated from the CSD

@<TRIPOS>ATOM
     1 B1      16.9610   7.4806   3.6224   B         1 RES1   0.0000
     2 B2      14.0257   7.4807   7.8485   B         1 RES1   0.0000
     3 C1      14.1291   7.4806   6.2330   C.ar      1 RES1   0.0000
     4 C2      12.9843   7.4806   5.4377   C.ar      1 RES1   0.0000
     5 H1      12.1262   7.4806   5.8458   H         1 RES1   0.0000
     6 C3      13.0833   7.4806   4.0776   C.ar      1 RES1   0.0000
     7 H2      12.3022   7.4806   3.5377   H         1 RES1   0.0000
     8 C4      14.3347   7.4806   3.4947   C.ar      1 RES1   0.0000
     9 H3      14.4151   7.4806   2.5481   H         1 RES1   0.0000
    10 C5      15.4792   7.4806   4.2858   C.ar      1 RES1   0.0000
    11 C6      18.6330   5.1118   5.8333   C.2       1 RES1   0.0000
    12 H4      18.8527   4.7986   6.7035   H         1 RES1   0.0000
    13 C7      19.1382   4.5941   4.6591   C.2       1 RES1   0.0000
    14 H5      19.7484   3.8710   4.5620   H         1 RES1   0.0000
    15 C8      18.5746   5.3442   3.6640   C.2       1 RES1   0.0000
    16 H6      18.7379   5.2404   2.7327   H         1 RES1   0.0000
    17 C9      16.8562   7.4806   2.0124   C.ar      1 RES1   0.0000
    18 C10     16.6681   6.2987   1.2852   C.ar      1 RES1   0.0000
    19 H7      16.7449   5.4679   1.7390   H         1 RES1   0.0000
    20 C11     16.3772   6.2937  -0.0625   C.ar      1 RES1   0.0000
    21 H8      16.2754   5.4669  -0.5191   H         1 RES1   0.0000
    22 C12     16.2323   7.4806  -0.7508   C.ar      1 RES1   0.0000
    23 H9      16.0355   7.4806  -1.6807   H         1 RES1   0.0000
    24 C13     16.6645   9.8356   8.6951   C.2       1 RES1   0.0000
    25 H10     17.5487  10.1657   8.5951   H         1 RES1   0.0000
    26 C14     15.7515  10.3133   9.6138   C.2       1 RES1   0.0000
    27 H11     15.8824  11.0035  10.2537   H         1 RES1   0.0000
    28 C15     14.6172   9.5752   9.3987   C.2       1 RES1   0.0000
    29 H12     13.8001   9.6640   9.8748   H         1 RES1   0.0000
    30 C16     12.4786   7.4807   8.2815   C.ar      1 RES1   0.0000
    31 C17     11.7424   6.2897   8.3259   C.ar      1 RES1   0.0000
    32 H13     12.2053   5.4599   8.3023   H         1 RES1   0.0000
    33 C18     10.3532   6.2857   8.4050   C.ar      1 RES1   0.0000
    34 H14      9.8806   5.4619   8.4314   H         1 RES1   0.0000
    35 C19      9.6609   7.4807   8.4466   C.ar      1 RES1   0.0000
    36 H15      8.7118   7.4807   8.5022   H         1 RES1   0.0000
    37 C20     19.8714   7.4807   7.7666   C.ar      1 RES1   0.0000
    38 C21     20.5591   7.4806   6.5355   C.ar      1 RES1   0.0000
    39 H16     20.0725   7.4806   5.7208   H         1 RES1   0.0000
    40 C22     21.9521   7.4806   6.5133   C.ar      1 RES1   0.0000
    41 H17     22.3920   7.4806   5.6723   H         1 RES1   0.0000
    42 C23     22.7230   7.4807   7.6639   C.ar      1 RES1   0.0000
    43 C24     22.0338   7.4807   8.8699   C.ar      1 RES1   0.0000
    44 H18     22.5273   7.4807   9.6819   H         1 RES1   0.0000
    45 C25     20.6573   7.4807   8.9296   C.ar      1 RES1   0.0000
    46 H19     20.2307   7.4807   9.7776   H         1 RES1   0.0000
    47 C26     24.2666   7.4807   7.6778   C.3       1 RES1   0.0000
    48 C27     24.7632   8.7214   8.4133   C.3       1 RES1   0.0000
    49 H20     25.7426   8.7085   8.4522   H         1 RES1   0.0000
    50 H21     24.4003   8.7294   9.3224   H         1 RES1   0.0000
    51 H22     24.4667   9.5244   7.9359   H         1 RES1   0.0000
    52 C28     24.8379   7.4806   6.2885   C.3       1 RES1   0.0000
    53 H23     25.7272   7.4806   6.4287   H         1 RES1   0.0000
    54 H24     24.4794   6.6458   5.8777   H         1 RES1   0.0000
    55 Fe1     16.9927   7.4806   6.7695   Fe        1 RES1   0.0000
    56 H25     18.1943   7.4807   8.6465   H         1 RES1   0.0000
    57 N1      15.3542   7.4806   5.6334   N.ar      1 RES1   0.0000
    58 N2      17.7896   6.1162   5.5736   N.2       1 RES1   0.0000
    59 N3      17.7501   6.2548   4.2162   N.pl3     1 RES1   0.0000
    60 N4      16.1371   8.8421   7.9625   N.2       1 RES1   0.0000
    61 N5      14.8530   8.7045   8.3979   N.pl3     1 RES1   0.0000
    62 N6      18.4970   7.4807   7.8790   N.2       1 RES1   0.0000
    63 C6F     18.6330   9.8495   5.8333   C.2       1 RES1   0.0000
    64 H4F     18.8527  10.1627   6.7035   H         1 RES1   0.0000
    65 C7F     19.1382  10.3672   4.6591   C.2       1 RES1   0.0000
    66 H5F     19.7484  11.0903   4.5620   H         1 RES1   0.0000
    67 C8F     18.5746   9.6171   3.6640   C.2       1 RES1   0.0000
    68 H6F     18.7379   9.7209   2.7327   H         1 RES1   0.0000
    69 C10F    16.6681   8.6626   1.2852   C.ar      1 RES1   0.0000
    70 H7F     16.7449   9.4934   1.7390   H         1 RES1   0.0000
    71 C11F    16.3772   8.6676  -0.0625   C.ar      1 RES1   0.0000
    72 H8F     16.2754   9.4944  -0.5191   H         1 RES1   0.0000
    73 C13F    16.6645   5.1257   8.6951   C.2       1 RES1   0.0000
    74 H10F    17.5487   4.7956   8.5951   H         1 RES1   0.0000
    75 C14F    15.7515   4.6480   9.6138   C.2       1 RES1   0.0000
    76 H11F    15.8824   3.9578  10.2537   H         1 RES1   0.0000
    77 C15F    14.6172   5.3861   9.3987   C.2       1 RES1   0.0000
    78 H12F    13.8001   5.2973   9.8748   H         1 RES1   0.0000
    79 C17F    11.7424   8.6716   8.3259   C.ar      1 RES1   0.0000
    80 H13F    12.2053   9.5014   8.3023   H         1 RES1   0.0000
    81 C18F    10.3532   8.6756   8.4050   C.ar      1 RES1   0.0000
    82 H14F     9.8806   9.4994   8.4314   H         1 RES1   0.0000
    83 N2F     17.7896   8.8451   5.5736   N.2       1 RES1   0.0000
    84 N3F     17.7501   8.7065   4.2162   N.pl3     1 RES1   0.0000
    85 N4F     16.1371   6.1192   7.9625   N.2       1 RES1   0.0000
    86 N5F     14.8530   6.2568   8.3979   N.pl3     1 RES1   0.0000
    87 C27F    24.7632   6.2399   8.4133   C.3       1 RES1   0.0000
    88 H20F    25.7426   6.2528   8.4522   H         1 RES1   0.0000
    89 H21F    24.4003   6.2319   9.3224   H         1 RES1   0.0000
    90 H22F    24.4667   5.4369   7.9359   H         1 RES1   0.0000
    91 H24F    24.4794   8.3155   5.8777   H         1 RES1   0.0000
@<TRIPOS>BOND
     1     1    10    1
     2     2     3    1
     3     3     4   ar
     4     4     5    1
     5     6     4   ar
     6     7     6    1
     7     8     6   ar
     8     9     8    1
     9    10     8   ar
    10    11    12    1
    11    13    11    1
    12    14    13    1
    13    15    13    2
    14    16    15    1
    15    17     1    1
    16    18    17   ar
    17    19    18    1
    18    20    18   ar
    19    21    20    1
    20    22    20   ar
    21    23    22    1
    22    24    25    1
    23    26    24    1
    24    27    26    1
    25    28    26    2
    26    29    28    1
    27    30     2    1
    28    31    30   ar
    29    32    31    1
    30    33    31   ar
    31    34    33    1
    32    35    33   ar
    33    36    35    1
    34    37    38   ar
    35    38    39    1
    36    40    38   ar
    37    41    40    1
    38    42    40   ar
    39    43    42   ar
    40    44    43    1
    41    45    37   ar
    42    46    45    1
    43    47    42    1
    44    48    47    1
    45    49    48    1
    46    50    48    1
    47    51    48    1
    48    52    47    1
    49    53    52    1
    50    54    52    1
    51    55    57    1
    52    56    62    1
    53    57     3   ar
    54    58    11    2
    55    59     1    1
    56    60    24    2
    57    61     2    1
    58    62    37    1
    59    63    64    1
    60    65    63    1
    61    66    65    1
    62    67    65    2
    63    68    67    1
    64    69    17   ar
    65    70    69    1
    66    71    22   ar
    67    72    71    1
    68    73    74    1
    69    75    73    1
    70    76    75    1
    71    77    75    2
    72    78    77    1
    73    79    30   ar
    74    80    79    1
    75    81    35   ar
    76    82    81    1
    77    83    55    1
    78    84     1    1
    79    85    55    1
    80    86     2    1
    81    87    47    1
    82    88    87    1
    83    89    87    1
    84    90    87    1
    85    91    52    1
    86    10    57   ar
    87    15    59    1
    88    28    61    1
    89    43    45   ar
    90    55    58    1
    91    55    60    1
    92    55    62    1
    93    58    59    1
    94    60    61    1
    95    63    83    2
    96    67    84    1
    97    69    71   ar
    98    73    85    2
    99    77    86    1
   100    79    81   ar
   101    83    84    1
   102    85    86    1
@<TRIPOS>SUBSTRUCTURE
     1 RES1        1 GROUP             0 ****  ****    0  
@<TRIPOS>CRYSIN
   25.5180    9.9742   13.8788   90.0000   90.0000   90.0000    62     1
