@<TRIPOS>MOLECULE
UPAGID
    92   103     2     0     0
SMALL
NO_CHARGES
****
Generated from the CSD

@<TRIPOS>ATOM
     1 B1       9.0924   6.1215  11.6530   B         1 RES1   0.0000
     2 B2       9.1014  10.9727  13.3295   B         1 RES1   0.0000
     3 C1       9.7666   9.4815  13.4299   C.ar      1 RES1   0.0000
     4 C2      10.6643   9.1356  14.4458   C.ar      1 RES1   0.0000
     5 H1      10.9499   9.7800  15.0528   H         1 RES1   0.0000
     6 C3      11.1267   7.8346  14.5485   C.ar      1 RES1   0.0000
     7 H2      11.7262   7.6004  15.2194   H         1 RES1   0.0000
     8 C4      10.6879   6.8892  13.6451   C.ar      1 RES1   0.0000
     9 H3      11.0028   6.0163  13.7020   H         1 RES1   0.0000
    10 C5       9.7732   7.2332  12.6453   C.ar      1 RES1   0.0000
    11 C6       5.6021   6.6608  12.6536   C.ar      1 RES1   0.0000
    12 H4       4.8284   7.1750  12.6791   H         1 RES1   0.0000
    13 C7       5.7487   5.4394  13.2775   C.ar      1 RES1   0.0000
    14 H5       5.1208   4.9812  13.7894   H         1 RES1   0.0000
    15 C8       7.0331   5.0517  12.9717   C.ar      1 RES1   0.0000
    16 H6       7.4434   4.2692  13.2612   H         1 RES1   0.0000
    17 C9       9.5744   6.1166   9.0586   C.ar      1 RES1   0.0000
    18 H7      10.0656   5.3273   9.0270   H         1 RES1   0.0000
    19 C10      9.2876   6.9132   7.9811   C.ar      1 RES1   0.0000
    20 H8       9.5377   6.7859   7.0941   H         1 RES1   0.0000
    21 C11      8.5400   7.9520   8.5144   C.ar      1 RES1   0.0000
    22 H9       8.1882   8.6563   8.0176   H         1 RES1   0.0000
    23 C12      9.8200   4.6697  11.5842   C.ar      1 RES1   0.0000
    24 C13     11.2209   4.5588  11.5877   C.ar      1 RES1   0.0000
    25 H10     11.7305   5.3314  11.6732   H         1 RES1   0.0000
    26 C14     11.8716   3.3370  11.4686   C.ar      1 RES1   0.0000
    27 H11     12.8010   3.3078  11.4780   H         1 RES1   0.0000
    28 C15     11.1495   2.1668  11.3352   C.ar      1 RES1   0.0000
    29 H12     11.5809   1.3443  11.2896   H         1 RES1   0.0000
    30 C16      9.7668   2.2464  11.2708   C.ar      1 RES1   0.0000
    31 H13      9.2646   1.4726  11.1567   H         1 RES1   0.0000
    32 C17      9.1286   3.4710  11.3751   C.ar      1 RES1   0.0000
    33 H14      8.2015   3.4977  11.3031   H         1 RES1   0.0000
    34 C18      7.0560  11.0880  15.0402   C.ar      1 RES1   0.0000
    35 H15      7.4650  11.5742  15.7190   H         1 RES1   0.0000
    36 C19      5.7801  10.5714  15.0856   C.ar      1 RES1   0.0000
    37 H16      5.1576  10.6438  15.7728   H         1 RES1   0.0000
    38 C20      5.6366   9.9168  13.8693   C.ar      1 RES1   0.0000
    39 H17      4.8692   9.4646  13.6027   H         1 RES1   0.0000
    40 C21      9.4655  12.6412  11.3095   C.ar      1 RES1   0.0000
    41 H18      9.9331  13.2991  11.7707   H         1 RES1   0.0000
    42 C22      9.1318  12.6874   9.9795   C.ar      1 RES1   0.0000
    43 H19      9.3245  13.3596   9.3668   H         1 RES1   0.0000
    44 C23      8.4402  11.5024   9.7542   C.ar      1 RES1   0.0000
    45 H20      8.0752  11.2508   8.9361   H         1 RES1   0.0000
    46 C24      9.8658  12.1610  14.1338   C.ar      1 RES1   0.0000
    47 C25     11.2620  12.2004  14.1977   C.ar      1 RES1   0.0000
    48 H21     11.7470  11.4929  13.8382   H         1 RES1   0.0000
    49 C26     11.9503  13.2589  14.7776   C.ar      1 RES1   0.0000
    50 H22     12.8803  13.2511  14.8038   H         1 RES1   0.0000
    51 C27     11.2516  14.3219  15.3147   C.ar      1 RES1   0.0000
    52 H23     11.7061  15.0177  15.7341   H         1 RES1   0.0000
    53 C28      9.8756  14.3463  15.2264   C.ar      1 RES1   0.0000
    54 H24      9.3990  15.0687  15.5676   H         1 RES1   0.0000
    55 C29      9.2027  13.2876  14.6253   C.ar      1 RES1   0.0000
    56 H25      8.2771  13.3315  14.5481   H         1 RES1   0.0000
    57 C30      4.8975   8.4038   9.5234   C.3       1 RES1   0.0000
    58 H26      5.1121   7.4966   9.7924   H         1 RES1   0.0000
    59 H27      5.0729   8.4965   8.5744   H         1 RES1   0.0000
    60 C31      3.4674   8.7216   9.8311   C.3       1 RES1   0.0000
    61 H28      2.9315   8.6991   9.0236   H         1 RES1   0.0000
    62 H29      3.1050   8.0836  10.4653   H         1 RES1   0.0000
    63 C32      3.4745  10.0920  10.4148   C.3       1 RES1   0.0000
    64 H30      3.1631  10.0726  11.3333   H         1 RES1   0.0000
    65 H31      2.8996  10.6828   9.9034   H         1 RES1   0.0000
    66 C33      4.8893  10.5530  10.3521   C.3       1 RES1   0.0000
    67 H32      5.0350  11.1066   9.5703   H         1 RES1   0.0000
    68 H33      5.1206  11.0615  11.1449   H         1 RES1   0.0000
    69 Fe1      7.5178   8.9152  11.4122   Fe        1 RES1   0.0000
    70 N1       9.3208   8.5153  12.5802   N.ar      1 RES1   0.0000
    71 N2       6.7205   7.0070  12.0076   N.ar      1 RES1   0.0000
    72 N3       7.6015   5.9863  12.1868   N.ar      1 RES1   0.0000
    73 N4       8.3904   7.8103   9.8291   N.ar      1 RES1   0.0000
    74 N5       9.0353   6.6540  10.1712   N.ar      1 RES1   0.0000
    75 N6       6.7435  10.0214  13.1317   N.ar      1 RES1   0.0000
    76 N7       7.6176  10.7781  13.8582   N.ar      1 RES1   0.0000
    77 N8       8.3704  10.7776  10.8657   N.ar      1 RES1   0.0000
    78 N9       9.0060  11.4878  11.8409   N.ar      1 RES1   0.0000
    79 O1       5.6672   9.3517  10.2755   O.3       1 RES1   0.0000
    80 C34      3.6419   6.6404  -0.3264   C.3       2 RES2   0.0000
    81 H34      2.7489   6.4239  -0.6393   H         2 RES2   0.0000
    82 H35      4.2293   5.9019  -0.5518   H         2 RES2   0.0000
    83 C35      4.1078   7.8544  -0.9660   C.3       2 RES2   0.0000
    84 H36      3.3846   8.2865  -1.4467   H         2 RES2   0.0000
    85 H37      4.8243   7.6586  -1.5897   H         2 RES2   0.0000
    86 C36      4.6008   8.7322   0.1489   C.3       2 RES2   0.0000
    87 H38      5.5003   9.0487  -0.0303   H         2 RES2   0.0000
    88 H39      4.0168   9.4968   0.2725   H         2 RES2   0.0000
    89 C37      4.5771   7.8376   1.3529   C.3       2 RES2   0.0000
    90 H40      5.4519   7.4474   1.5023   H         2 RES2   0.0000
    91 H41      4.3211   8.3389   2.1432   H         2 RES2   0.0000
    92 O2       3.6245   6.8285   1.0763   O.3       2 RES2   0.0000
@<TRIPOS>BOND
     1     1    10    1
     2     2     3    1
     3     3     4   ar
     4     4     5    1
     5     6     4   ar
     6     7     6    1
     7     8     6   ar
     8     9     8    1
     9    10     8   ar
    10    11    12    1
    11    13    11   ar
    12    14    13    1
    13    15    13   ar
    14    16    15    1
    15    17    18    1
    16    19    17   ar
    17    20    19    1
    18    21    19   ar
    19    22    21    1
    20    23     1    1
    21    24    23   ar
    22    25    24    1
    23    26    24   ar
    24    27    26    1
    25    28    26   ar
    26    29    28    1
    27    30    28   ar
    28    31    30    1
    29    32    23   ar
    30    33    32    1
    31    34    35    1
    32    36    34   ar
    33    37    36    1
    34    38    36   ar
    35    39    38    1
    36    40    41    1
    37    42    40   ar
    38    43    42    1
    39    44    42   ar
    40    45    44    1
    41    46     2    1
    42    47    46   ar
    43    48    47    1
    44    49    47   ar
    45    50    49    1
    46    51    49   ar
    47    52    51    1
    48    53    51   ar
    49    54    53    1
    50    55    46   ar
    51    56    55    1
    52    57    58    1
    53    59    57    1
    54    60    57    1
    55    61    60    1
    56    62    60    1
    57    63    60    1
    58    64    63    1
    59    65    63    1
    60    66    63    1
    61    67    66    1
    62    68    66    1
    63    69    70    1
    64    70     3   ar
    65    71    11   ar
    66    72     1    1
    67    73    21   ar
    68    74     1    1
    69    75    38   ar
    70    76     2    1
    71    77    44   ar
    72    78     2    1
    73    79    57    1
    74    10    70   ar
    75    15    72   ar
    76    17    74   ar
    77    30    32   ar
    78    34    76   ar
    79    40    78   ar
    80    53    55   ar
    81    66    79    1
    82    69    71    1
    83    69    73    1
    84    69    75    1
    85    69    77    1
    86    69    79    1
    87    71    72   ar
    88    73    74   ar
    89    75    76   ar
    90    77    78   ar
    91    80    81    1
    92    82    80    1
    93    83    80    1
    94    84    83    1
    95    85    83    1
    96    86    83    1
    97    87    86    1
    98    88    86    1
    99    89    86    1
   100    90    89    1
   101    91    89    1
   102    92    80    1
   103    89    92    1
@<TRIPOS>SUBSTRUCTURE
     1 RES1        1 GROUP             0 ****  ****    0  
     2 RES2       80 GROUP             0 ****  ****    0  
@<TRIPOS>CRYSIN
    8.6690   12.5893   17.1783   88.3700   78.4590   73.1050     2     1
