@<TRIPOS>MOLECULE
UQOHIT
    86    93     3     0     0
SMALL
USER_CHARGES
****
Generated from the CSD

@<TRIPOS>ATOM
     1 Fe1      2.7670  10.3380   5.0353   Fe        1 RES1   2.0000
     2 C1       3.0319  13.3007   5.4032   C.ar      1 RES1   0.0000
     3 H1       2.6580  13.3956   4.5355   H         1 RES1   0.0000
     4 C2       3.4139  14.4383   6.0890   C.ar      1 RES1   0.0000
     5 H2       3.2876  15.2979   5.7036   H         1 RES1   0.0000
     6 C3       3.9821  14.3098   7.3458   C.ar      1 RES1   0.0000
     7 H3       4.2391  15.0780   7.8420   H         1 RES1   0.0000
     8 C4       4.1671  13.0419   7.8619   C.ar      1 RES1   0.0000
     9 H4       4.5790  12.9250   8.7095   H         1 RES1   0.0000
    10 C5       3.7472  11.9409   7.1327   C.ar      1 RES1   0.0000
    11 C6       3.8528  10.5388   7.6468   C.3       1 RES1   0.0000
    12 H5       4.6804  10.4364   8.1787   H         1 RES1   0.0000
    13 H6       3.0794  10.3338   8.2301   H         1 RES1   0.0000
    14 C7       5.2720   9.3434   6.0066   C.3       1 RES1   0.0000
    15 H7       5.9183   9.6758   6.6796   H         1 RES1   0.0000
    16 H8       5.4093   8.3680   5.9052   H         1 RES1   0.0000
    17 C8       5.5243  10.0208   4.6943   C.ar      1 RES1   0.0000
    18 C9       6.8037  10.0781   4.1491   C.ar      1 RES1   0.0000
    19 H9       7.5383   9.6872   4.6078   H         1 RES1   0.0000
    20 C10      6.9946  10.7100   2.9346   C.ar      1 RES1   0.0000
    21 H10      7.8563  10.7377   2.5341   H         1 RES1   0.0000
    22 C11      5.9107  11.3023   2.3113   C.ar      1 RES1   0.0000
    23 H11      6.0227  11.7703   1.4915   H         1 RES1   0.0000
    24 C12      4.6650  11.2035   2.8965   C.ar      1 RES1   0.0000
    25 H12      3.9225  11.6058   2.4599   H         1 RES1   0.0000
    26 C13      3.1221   8.3437   6.7602   C.3       1 RES1   0.0000
    27 H13      3.5186   7.8126   7.5090   H         1 RES1   0.0000
    28 C14      3.1021   7.5902   5.4597   C.ar      1 RES1   0.0000
    29 C15      3.3843   6.2423   5.3461   C.ar      1 RES1   0.0000
    30 H14      3.6358   5.7312   6.1069   H         1 RES1   0.0000
    31 C16      3.2906   5.6563   4.0975   C.ar      1 RES1   0.0000
    32 H15      3.5043   4.7377   3.9781   H         1 RES1   0.0000
    33 C17      2.8810   6.4257   3.0262   C.ar      1 RES1   0.0000
    34 H16      2.7938   6.0358   2.1650   H         1 RES1   0.0000
    35 C18      2.5965   7.7740   3.2163   C.ar      1 RES1   0.0000
    36 C19      2.0418   8.5514   2.0817   C.ar      1 RES1   0.0000
    37 C20      2.7827   8.9193   0.9684   C.ar      1 RES1   0.0000
    38 C21      2.2498   9.5981  -0.1029   C.ar      1 RES1   0.0000
    39 H17      2.7959   9.8550  -0.8371   H         1 RES1   0.0000
    40 C22      0.8972   9.8983  -0.0848   C.ar      1 RES1   0.0000
    41 H18      0.5125  10.3647  -0.8181   H         1 RES1   0.0000
    42 C23      0.0972   9.5310   0.9815   C.ar      1 RES1   0.0000
    43 H19     -0.8318   9.7279   0.9893   H         1 RES1   0.0000
    44 C24      0.6928   8.8724   2.0295   C.ar      1 RES1   0.0000
    45 C25      1.6820   8.7252   7.0127   C.ar      1 RES1   0.0000
    46 C26      0.8567   7.9791   7.8338   C.ar      1 RES1   0.0000
    47 H20      1.2014   7.2556   8.3442   H         1 RES1   0.0000
    48 C27     -0.4845   8.3139   7.8912   C.ar      1 RES1   0.0000
    49 H21     -1.0891   7.7947   8.4070   H         1 RES1   0.0000
    50 C28     -0.9311   9.4151   7.1869   C.ar      1 RES1   0.0000
    51 H22     -1.8444   9.6709   7.2313   H         1 RES1   0.0000
    52 C29     -0.0379  10.1484   6.4113   C.ar      1 RES1   0.0000
    53 C30     -0.4807  11.4126   5.7747   C.ar      1 RES1   0.0000
    54 C31     -0.0538  12.6308   6.2694   C.ar      1 RES1   0.0000
    55 C32     -0.4216  13.8476   5.7498   C.ar      1 RES1   0.0000
    56 H23     -0.0826  14.6578   6.1107   H         1 RES1   0.0000
    57 C33     -1.3060  13.8525   4.6810   C.ar      1 RES1   0.0000
    58 H24     -1.5796  14.6807   4.3053   H         1 RES1   0.0000
    59 C34     -1.7961  12.6707   4.1546   C.ar      1 RES1   0.0000
    60 H25     -2.4054  12.6774   3.4263   H         1 RES1   0.0000
    61 C35     -1.3767  11.4864   4.7158   C.ar      1 RES1   0.0000
    62 C36      1.2213  11.8479   2.8626   C.1       1 RES1   0.0000
    63 C37      0.6004  12.6919   1.8490   C.3       1 RES1   0.0000
    64 H26      0.5324  13.6106   2.1859   H         1 RES1   0.0000
    65 H27     -0.2955  12.3517   1.6456   H         1 RES1   0.0000
    66 H28      1.1472  12.6807   1.0349   H         1 RES1   0.0000
    67 N1       3.1686  12.0636   5.9169   N.ar      1 RES1   0.0000
    68 N2       3.8758   9.6046   6.4849   N.3       1 RES1   0.0000
    69 N3       4.4600  10.5597   4.0599   N.ar      1 RES1   0.0000
    70 N4       2.7319   8.3766   4.4162   N.ar      1 RES1   0.0000
    71 N5       1.2581   9.7812   6.2760   N.ar      1 RES1   0.0000
    72 N6       1.7235  11.1962   3.6560   N.1       1 RES1   0.0000
    73 F1       4.1013   8.6123   0.9602   F         1 RES1   0.0000
    74 F2      -0.0604   8.5183   3.0938   F         1 RES1   0.0000
    75 F3       0.7641  12.6053   7.3515   F         1 RES1   0.0000
    76 F4      -1.8321  10.3219   4.2027   F         1 RES1   0.0000
    77 Cl1      1.1536   4.6206   9.8628   Cl        2 RES2   0.0000
    78 O1       0.8473   3.2563   9.5182   O.2       2 RES2   0.0000
    79 O2       2.2449   5.0817   9.0417   O.3       2 RES2  -1.0000
    80 O3       1.5392   4.6890  11.2491   O.2       2 RES2   0.0000
    81 O4       0.0049   5.4503   9.6392   O.2       2 RES2   0.0000
    82 Cl2      3.5142  14.8883   1.4227   Cl        3 RES3   0.0000
    83 O5       4.0651  14.4080   2.6530   O.2       3 RES3   0.0000
    84 O6       2.2905  15.5710   1.6831   O.2       3 RES3   0.0000
    85 O7       4.4490  15.7894   0.8080   O.2       3 RES3   0.0000
    86 O8       3.2663  13.7676   0.5578   O.3       3 RES3  -1.0000
@<TRIPOS>BOND
     1     1    67    1
     2     2     3    1
     3     4     2   ar
     4     5     4    1
     5     6     4   ar
     6     7     6    1
     7     8     6   ar
     8     9     8    1
     9    10     8   ar
    10    11    10    1
    11    12    11    1
    12    13    11    1
    13    14    15    1
    14    16    14    1
    15    17    14    1
    16    18    17   ar
    17    19    18    1
    18    20    18   ar
    19    21    20    1
    20    22    20   ar
    21    23    22    1
    22    24    22   ar
    23    25    24    1
    24    26    27    1
    25    28    26    1
    26    29    28   ar
    27    30    29    1
    28    31    29   ar
    29    32    31    1
    30    33    31   ar
    31    34    33    1
    32    35    33   ar
    33    36    35    1
    34    37    36   ar
    35    38    37   ar
    36    39    38    1
    37    40    38   ar
    38    41    40    1
    39    42    40   ar
    40    43    42    1
    41    44    36   ar
    42    45    26    1
    43    46    45   ar
    44    47    46    1
    45    48    46   ar
    46    49    48    1
    47    50    48   ar
    48    51    50    1
    49    52    50   ar
    50    53    52    1
    51    54    53   ar
    52    55    54   ar
    53    56    55    1
    54    57    55   ar
    55    58    57    1
    56    59    57   ar
    57    60    59    1
    58    61    53   ar
    59    62    63    1
    60    63    64    1
    61    65    63    1
    62    66    63    1
    63    67     2   ar
    64    68     1    1
    65    69     1    1
    66    70     1    1
    67    71     1    1
    68    72     1    1
    69    73    37    1
    70    74    44    1
    71    75    54    1
    72    76    61    1
    73    10    67   ar
    74    11    68    1
    75    14    68    1
    76    17    69   ar
    77    24    69   ar
    78    26    68    1
    79    28    70   ar
    80    35    70   ar
    81    42    44   ar
    82    45    71   ar
    83    52    71   ar
    84    59    61   ar
    85    62    72    3
    86    77    78    2
    87    79    77    1
    88    80    77    2
    89    81    77    2
    90    82    83    2
    91    84    82    2
    92    85    82    2
    93    86    82    1
@<TRIPOS>SUBSTRUCTURE
     1 RES1        1 GROUP             0 ****  ****    0  
     2 RES2       77 GROUP             0 ****  ****    0  
     3 RES3       82 GROUP             0 ****  ****    0  
@<TRIPOS>CRYSIN
   11.7541   16.2865   19.2739   90.0000   99.2246   90.0000    14     1
