@<TRIPOS>MOLECULE
UQOHEP
    86    93     3     0     0
SMALL
USER_CHARGES
****
Generated from the CSD

@<TRIPOS>ATOM
     1 Fe1      2.7019  10.2565   5.0057   Fe        1 RES1   2.0000
     2 C1       2.9898  13.2211   5.3693   C.ar      1 RES1   0.0000
     3 H1       2.6359  13.3169   4.4931   H         1 RES1   0.0000
     4 C2       3.3637  14.3544   6.0591   C.ar      1 RES1   0.0000
     5 H2       3.2403  15.2147   5.6734   H         1 RES1   0.0000
     6 C3       3.9208  14.2258   7.3190   C.ar      1 RES1   0.0000
     7 H3       4.1753  14.9925   7.8172   H         1 RES1   0.0000
     8 C4       4.0993  12.9549   7.8356   C.ar      1 RES1   0.0000
     9 H4       4.5090  12.8368   8.6845   H         1 RES1   0.0000
    10 C5       3.6776  11.8582   7.1088   C.ar      1 RES1   0.0000
    11 C6       3.7690  10.4537   7.6265   C.3       1 RES1   0.0000
    12 H5       4.5909  10.3454   8.1679   H         1 RES1   0.0000
    13 H6       2.9890  10.2545   8.2018   H         1 RES1   0.0000
    14 C7       5.1969   9.2533   5.9984   C.3       1 RES1   0.0000
    15 H7       5.3352   8.2773   5.9053   H         1 RES1   0.0000
    16 H8       5.8369   9.5911   6.6746   H         1 RES1   0.0000
    17 C8       5.4667   9.9217   4.6809   C.ar      1 RES1   0.0000
    18 C9       6.7455   9.9668   4.1452   C.ar      1 RES1   0.0000
    19 H9       7.4734   9.5684   4.6081   H         1 RES1   0.0000
    20 C10      6.9519  10.5973   2.9310   C.ar      1 RES1   0.0000
    21 H10      7.8150  10.6163   2.5341   H         1 RES1   0.0000
    22 C11      5.8753  11.1994   2.3088   C.ar      1 RES1   0.0000
    23 H11      5.9955  11.6690   1.4914   H         1 RES1   0.0000
    24 C12      4.6268  11.1152   2.8812   C.ar      1 RES1   0.0000
    25 H12      3.8928  11.5262   2.4398   H         1 RES1   0.0000
    26 C13      3.0327   8.2576   6.7304   C.3       1 RES1   0.0000
    27 H13      3.4225   7.7225   7.4797   H         1 RES1   0.0000
    28 C14      3.0210   7.5050   5.4298   C.ar      1 RES1   0.0000
    29 C15      3.3006   6.1590   5.3114   C.ar      1 RES1   0.0000
    30 H14      3.5526   5.6463   6.0693   H         1 RES1   0.0000
    31 C16      3.2049   5.5733   4.0600   C.ar      1 RES1   0.0000
    32 H15      3.4140   4.6553   3.9406   H         1 RES1   0.0000
    33 C17      2.8007   6.3461   2.9904   C.ar      1 RES1   0.0000
    34 H16      2.7125   5.9578   2.1268   H         1 RES1   0.0000
    35 C18      2.5220   7.7011   3.1829   C.ar      1 RES1   0.0000
    36 C19      1.9836   8.4881   2.0478   C.ar      1 RES1   0.0000
    37 C20      2.7400   8.8610   0.9478   C.ar      1 RES1   0.0000
    38 C21      2.2278   9.5559  -0.1218   C.ar      1 RES1   0.0000
    39 H17      2.7844   9.8069  -0.8503   H         1 RES1   0.0000
    40 C22      0.8776   9.8815  -0.1129   C.ar      1 RES1   0.0000
    41 H18      0.5065  10.3648  -0.8409   H         1 RES1   0.0000
    42 C23      0.0604   9.5082   0.9495   C.ar      1 RES1   0.0000
    43 H19     -0.8663   9.7176   0.9540   H         1 RES1   0.0000
    44 C24      0.6403   8.8283   1.9894   C.ar      1 RES1   0.0000
    45 C25      1.5987   8.6464   6.9808   C.ar      1 RES1   0.0000
    46 C26      0.7657   7.9107   7.7998   C.ar      1 RES1   0.0000
    47 H20      1.1029   7.1856   8.3130   H         1 RES1   0.0000
    48 C27     -0.5716   8.2549   7.8562   C.ar      1 RES1   0.0000
    49 H21     -1.1794   7.7404   8.3734   H         1 RES1   0.0000
    50 C28     -1.0138   9.3585   7.1486   C.ar      1 RES1   0.0000
    51 H22     -1.9243   9.6236   7.1968   H         1 RES1   0.0000
    52 C29     -0.1143  10.0777   6.3652   C.ar      1 RES1   0.0000
    53 C30     -0.5468  11.3403   5.7154   C.ar      1 RES1   0.0000
    54 C31     -0.1103  12.5638   6.1981   C.ar      1 RES1   0.0000
    55 C32     -0.4705  13.7797   5.6585   C.ar      1 RES1   0.0000
    56 H23     -0.1346  14.5935   6.0147   H         1 RES1   0.0000
    57 C33     -1.3383  13.7750   4.5796   C.ar      1 RES1   0.0000
    58 H24     -1.5996  14.5984   4.1857   H         1 RES1   0.0000
    59 C34     -1.8312  12.5875   4.0670   C.ar      1 RES1   0.0000
    60 H25     -2.4315  12.5870   3.3316   H         1 RES1   0.0000
    61 C35     -1.4307  11.4083   4.6484   C.ar      1 RES1   0.0000
    62 C36      1.2149  11.8055   2.8210   C.1       1 RES1   0.0000
    63 C37      0.6567  12.6897   1.8055   C.3       1 RES1   0.0000
    64 H26      0.6095  13.6024   2.1570   H         1 RES1   0.0000
    65 H27     -0.2439  12.3859   1.5668   H         1 RES1   0.0000
    66 H28      1.2282  12.6762   1.0106   H         1 RES1   0.0000
    67 N1       3.1060  11.9831   5.8885   N.ar      1 RES1   0.0000
    68 N2       3.7977   9.5152   6.4634   N.3       1 RES1   0.0000
    69 N3       4.4073  10.4701   4.0472   N.ar      1 RES1   0.0000
    70 N4       2.6585   8.2988   4.3849   N.ar      1 RES1   0.0000
    71 N5       1.1823   9.7047   6.2381   N.ar      1 RES1   0.0000
    72 N6       1.6816  11.1325   3.6193   N.1       1 RES1   0.0000
    73 F1       4.0554   8.5368   0.9454   F         1 RES1   0.0000
    74 F2      -0.1287   8.4643   3.0422   F         1 RES1   0.0000
    75 F3       0.6928  12.5415   7.2851   F         1 RES1   0.0000
    76 F4      -1.8927  10.2372   4.1471   F         1 RES1   0.0000
    77 B1       1.0312   4.5662   9.7226   B         2 RES2  -1.0000
    78 F5       0.7387   3.2384   9.4274   F         2 RES2   0.0000
    79 F6       2.0814   4.9899   8.9006   F         2 RES2   0.0000
    80 F7       1.4258   4.6694  11.0534   F         2 RES2   0.0000
    81 F8      -0.0809   5.3634   9.5073   F         2 RES2   0.0000
    82 B2       3.5068  14.7943   1.4117   B         3 RES3  -1.0000
    83 F9       3.9937  14.3004   2.6035   F         3 RES3   0.0000
    84 F10      2.3288  15.4637   1.6626   F         3 RES3   0.0000
    85 F11      4.4294  15.6775   0.8639   F         3 RES3   0.0000
    86 F12      3.2767  13.7442   0.5441   F         3 RES3   0.0000
@<TRIPOS>BOND
     1     1    67    1
     2     2     3    1
     3     4     2   ar
     4     5     4    1
     5     6     4   ar
     6     7     6    1
     7     8     6   ar
     8     9     8    1
     9    10     8   ar
    10    11    10    1
    11    12    11    1
    12    13    11    1
    13    14    15    1
    14    16    14    1
    15    17    14    1
    16    18    17   ar
    17    19    18    1
    18    20    18   ar
    19    21    20    1
    20    22    20   ar
    21    23    22    1
    22    24    22   ar
    23    25    24    1
    24    26    27    1
    25    28    26    1
    26    29    28   ar
    27    30    29    1
    28    31    29   ar
    29    32    31    1
    30    33    31   ar
    31    34    33    1
    32    35    33   ar
    33    36    35    1
    34    37    36   ar
    35    38    37   ar
    36    39    38    1
    37    40    38   ar
    38    41    40    1
    39    42    40   ar
    40    43    42    1
    41    44    36   ar
    42    45    26    1
    43    46    45   ar
    44    47    46    1
    45    48    46   ar
    46    49    48    1
    47    50    48   ar
    48    51    50    1
    49    52    50   ar
    50    53    52    1
    51    54    53   ar
    52    55    54   ar
    53    56    55    1
    54    57    55   ar
    55    58    57    1
    56    59    57   ar
    57    60    59    1
    58    61    53   ar
    59    62    63    1
    60    63    64    1
    61    65    63    1
    62    66    63    1
    63    67     2   ar
    64    68     1    1
    65    69     1    1
    66    70     1    1
    67    71     1    1
    68    72     1    1
    69    73    37    1
    70    74    44    1
    71    75    54    1
    72    76    61    1
    73    10    67   ar
    74    11    68    1
    75    14    68    1
    76    17    69   ar
    77    24    69   ar
    78    26    68    1
    79    28    70   ar
    80    35    70   ar
    81    42    44   ar
    82    45    71   ar
    83    52    71   ar
    84    59    61   ar
    85    62    72    3
    86    77    78    1
    87    79    77    1
    88    80    77    1
    89    81    77    1
    90    82    83    1
    91    84    82    1
    92    85    82    1
    93    86    82    1
@<TRIPOS>SUBSTRUCTURE
     1 RES1        1 GROUP             0 ****  ****    0  
     2 RES2       77 GROUP             0 ****  ****    0  
     3 RES3       82 GROUP             0 ****  ****    0  
@<TRIPOS>CRYSIN
   11.7514   16.2204   19.1540   90.0000  100.1420   90.0000    14     1
