@<TRIPOS>MOLECULE
URIHAH
   105   110     3     0     0
SMALL
NO_CHARGES
****
Generated from the CSD

@<TRIPOS>ATOM
     1 Br1      7.6181   2.5329   5.4084   Br        1 RES1   0.0000
     2 Br2      9.0136   5.5208   4.0592   Br        1 RES1   0.0000
     3 Fe1      6.8293   4.8447   5.0158   Fe        1 RES1   0.0000
     4 N1       5.9236   7.5899   4.2747   N.1       1 RES1   0.0000
     5 N2       7.7134   5.7787   7.7515   N.1       1 RES1   0.0000
     6 N3       5.7631   4.1038   2.2769   N.1       1 RES1   0.0000
     7 N4       4.3097   4.1786   6.4856   N.1       1 RES1   0.0000
     8 C1       6.2747   6.5363   4.6084   C.1       1 RES1   0.0000
     9 C2       3.0976   4.0015   7.1712   C.ar      1 RES1   0.0000
    10 C3       6.6134   3.4715  10.9774   C.ar      1 RES1   0.0000
    11 H1       7.3856   3.3665  11.4846   H         1 RES1   0.0000
    12 C4       8.1344   6.1930   9.0120   C.ar      1 RES1   0.0000
    13 C5       1.9143   4.0242   6.4188   C.ar      1 RES1   0.0000
    14 C6       7.4381   5.3983   6.6947   C.1       1 RES1   0.0000
    15 C7       3.6804   7.8326   2.4924   C.ar      1 RES1   0.0000
    16 C8       4.4834   8.9981   2.9477   C.ar      1 RES1   0.0000
    17 C9       4.3349   3.7278   9.3932   C.ar      1 RES1   0.0000
    18 C10      6.4879   4.5783  10.1149   C.ar      1 RES1   0.0000
    19 C11      9.1927   7.1002   9.0676   C.ar      1 RES1   0.0000
    20 C12      3.1065   3.7992   8.5681   C.ar      1 RES1   0.0000
    21 C13      5.2539   4.4011   5.8589   C.1       1 RES1   0.0000
    22 C14      2.3022   7.8559   2.7071   C.ar      1 RES1   0.0000
    23 H2       1.9079   8.5948   3.1117   H         1 RES1   0.0000
    24 C15      7.5493   5.6079  10.1629   C.ar      1 RES1   0.0000
    25 C16      4.2579   6.7371   1.8501   C.ar      1 RES1   0.0000
    26 H3       5.1769   6.7180   1.7073   H         1 RES1   0.0000
    27 C17      8.0939   5.9775  11.3945   C.ar      1 RES1   0.0000
    28 H4       7.7229   5.6306  12.1735   H         1 RES1   0.0000
    29 C18      5.3531   4.6852   9.3181   C.ar      1 RES1   0.0000
    30 H5       5.2704   5.3994   8.7289   H         1 RES1   0.0000
    31 C19      9.7095   7.4097  10.3322   C.ar      1 RES1   0.0000
    32 H6      10.4216   8.0040  10.4000   H         1 RES1   0.0000
    33 C20      5.1227   3.7601   1.0834   C.ar      1 RES1   0.0000
    34 C21      4.1421  10.2839   2.5583   C.ar      1 RES1   0.0000
    35 H7       3.4181  10.4061   1.9879   H         1 RES1   0.0000
    36 C22      6.2014   4.3359   3.3158   C.1       1 RES1   0.0000
    37 C23      0.7110   3.8505   7.0915   C.ar      1 RES1   0.0000
    38 H8      -0.0862   3.8857   6.6143   H         1 RES1   0.0000
    39 C24      4.8084   2.1814  -0.6784   C.ar      1 RES1   0.0000
    40 H9       5.0708   1.4149  -1.1345   H         1 RES1   0.0000
    41 C25      3.6805   2.8642  -1.1094   C.ar      1 RES1   0.0000
    42 C26      2.0865   5.6972   1.6700   C.ar      1 RES1   0.0000
    43 H10      1.5504   4.9874   1.4000   H         1 RES1   0.0000
    44 C27      3.4657   5.6664   1.4183   C.ar      1 RES1   0.0000
    45 C28      4.4655   2.6633  10.2973   C.ar      1 RES1   0.0000
    46 H11      3.7837   2.0344  10.3725   H         1 RES1   0.0000
    47 C29      4.0080   4.5018   0.6716   C.ar      1 RES1   0.0000
    48 C30      0.6745   3.6245   8.4696   C.ar      1 RES1   0.0000
    49 C31      1.5207   6.7826   2.3194   C.ar      1 RES1   0.0000
    50 H12      0.6077   6.7891   2.4961   H         1 RES1   0.0000
    51 C32      4.8541  11.3988   2.9961   C.ar      1 RES1   0.0000
    52 C33      1.8640   3.6029   9.1818   C.ar      1 RES1   0.0000
    53 H13      1.8347   3.4529  10.0991   H         1 RES1   0.0000
    54 C34      5.5736   8.8586   3.8252   C.ar      1 RES1   0.0000
    55 C35      9.1769   6.8466  11.4923   C.ar      1 RES1   0.0000
    56 C36      3.3136   4.0324  -0.4408   C.ar      1 RES1   0.0000
    57 H14      2.5801   4.5137  -0.7484   H         1 RES1   0.0000
    58 C37      6.3102   9.9528   4.3017   C.ar      1 RES1   0.0000
    59 C38      5.5637   2.6070   0.4171   C.ar      1 RES1   0.0000
    60 C39      5.5974   2.5418  11.0751   C.ar      1 RES1   0.0000
    61 H15      5.6777   1.8306  11.6686   H         1 RES1   0.0000
    62 C40      6.7409   1.8294   0.9170   C.3       1 RES1   0.0000
    63 H16      7.5409   2.3478   0.7967   H         1 RES1   0.0000
    64 H17      6.8152   1.0087   0.4252   H         1 RES1   0.0000
    65 H18      6.6238   1.6350   1.8496   H         1 RES1   0.0000
    66 C41      9.7574   7.7079   7.8174   C.3       1 RES1   0.0000
    67 H19      9.9226   7.0167   7.1717   H         1 RES1   0.0000
    68 H20     10.5811   8.1564   8.0233   H         1 RES1   0.0000
    69 H21      9.1306   8.3392   7.4572   H         1 RES1   0.0000
    70 C42      1.9473   4.1889   4.9289   C.3       1 RES1   0.0000
    71 H22      2.5040   4.9373   4.7019   H         1 RES1   0.0000
    72 H23      1.0565   4.3432   4.6046   H         1 RES1   0.0000
    73 H24      2.3007   3.3928   4.5261   H         1 RES1   0.0000
    74 C43     -0.6365   3.3709   9.1792   C.3       1 RES1   0.0000
    75 H25     -1.3608   3.4693   8.5565   H         1 RES1   0.0000
    76 H26     -0.7405   4.0013   9.8943   H         1 RES1   0.0000
    77 H27     -0.6397   2.4788   9.5344   H         1 RES1   0.0000
    78 C44      5.9304  11.2215   3.8590   C.ar      1 RES1   0.0000
    79 H28      6.4083  11.9648   4.1476   H         1 RES1   0.0000
    80 C45      9.7514   7.1431  12.8466   C.3       1 RES1   0.0000
    81 H29      9.1258   7.6670  13.3524   H         1 RES1   0.0000
    82 H30     10.5711   7.6333  12.7461   H         1 RES1   0.0000
    83 H31      9.9260   6.3196  13.3077   H         1 RES1   0.0000
    84 C46      7.4442   9.7528   5.2631   C.3       1 RES1   0.0000
    85 H32      7.0978   9.4730   6.1132   H         1 RES1   0.0000
    86 H33      7.9231  10.5786   5.3689   H         1 RES1   0.0000
    87 H34      8.0384   9.0804   4.9221   H         1 RES1   0.0000
    88 C47      4.4242  12.7700   2.5562   C.3       1 RES1   0.0000
    89 H35      4.4985  12.8383   1.6018   H         1 RES1   0.0000
    90 H36      4.9879  13.4296   2.9688   H         1 RES1   0.0000
    91 H37      3.5130  12.9199   2.8182   H         1 RES1   0.0000
    92 C48      2.8281   2.3441  -2.2330   C.3       1 RES1   0.0000
    93 H38      3.2170   1.5393  -2.5836   H         1 RES1   0.0000
    94 H39      2.7768   3.0039  -2.9282   H         1 RES1   0.0000
    95 H40      1.9455   2.1559  -1.9047   H         1 RES1   0.0000
    96 Cl1      2.8663  11.7571   5.6559   Cl        2 RES2   0.0000
    97 Cl2      0.3121  10.4551   5.9591   Cl        2 RES2   0.0000
    98 C49      1.1801  11.9711   6.0328   C.3       2 RES2   0.0000
    99 H41      0.7869  12.5973   5.4057   H         2 RES2   0.0000
   100 H42      1.0950  12.3463   6.9239   H         2 RES2   0.0000
   101 Cl3      9.9060   0.6588   2.4230   Cl        3 RES3   0.0000
   102 Cl4     10.2541   3.0112   0.7513   Cl        3 RES3   0.0000
   103 C50      9.9862   2.4257   2.3778   C.3       3 RES3   0.0000
   104 H43      9.1556   2.7933   2.7200   H         3 RES3   0.0000
   105 H44     10.7063   2.7291   2.9527   H         3 RES3   0.0000
@<TRIPOS>BOND
     1     1     3    1
     2     2     3    1
     3     3     8    1
     4     4     8    3
     5     5    12    1
     6     6    33    1
     7     7     9    1
     8     9    13   ar
     9    10    11    1
    10    12    19   ar
    11    13    37   ar
    12    14     3    1
    13    15    16    1
    14    16    34   ar
    15    17    20    1
    16    18    10   ar
    17    19    31   ar
    18    20     9   ar
    19    21     3    1
    20    22    15   ar
    21    23    22    1
    22    24    12   ar
    23    25    15   ar
    24    26    25    1
    25    27    24   ar
    26    28    27    1
    27    29    17   ar
    28    30    29    1
    29    31    32    1
    30    33    47   ar
    31    34    35    1
    32    36     3    1
    33    37    38    1
    34    39    40    1
    35    41    39   ar
    36    42    43    1
    37    44    25   ar
    38    45    17   ar
    39    46    45    1
    40    47    44    1
    41    48    37   ar
    42    49    22   ar
    43    50    49    1
    44    51    34   ar
    45    52    20   ar
    46    53    52    1
    47    54     4    1
    48    55    27   ar
    49    56    41   ar
    50    57    56    1
    51    58    54   ar
    52    59    33   ar
    53    60    10   ar
    54    61    60    1
    55    62    59    1
    56    63    62    1
    57    64    62    1
    58    65    62    1
    59    66    19    1
    60    67    66    1
    61    68    66    1
    62    69    66    1
    63    70    13    1
    64    71    70    1
    65    72    70    1
    66    73    70    1
    67    74    48    1
    68    75    74    1
    69    76    74    1
    70    77    74    1
    71    78    51   ar
    72    79    78    1
    73    80    55    1
    74    81    80    1
    75    82    80    1
    76    83    80    1
    77    84    58    1
    78    85    84    1
    79    86    84    1
    80    87    84    1
    81    88    51    1
    82    89    88    1
    83    90    88    1
    84    91    88    1
    85    92    41    1
    86    93    92    1
    87    94    92    1
    88    95    92    1
    89     5    14    3
    90     6    36    3
    91     7    21    3
    92    16    54   ar
    93    18    24    1
    94    18    29   ar
    95    31    55   ar
    96    39    59   ar
    97    42    44   ar
    98    42    49   ar
    99    45    60   ar
   100    47    56   ar
   101    48    52   ar
   102    58    78   ar
   103    96    98    1
   104    97    98    1
   105    98    99    1
   106   100    98    1
   107   101   103    1
   108   102   103    1
   109   103   104    1
   110   105   103    1
@<TRIPOS>SUBSTRUCTURE
     1 RES1        1 GROUP             0 ****  ****    0  
     2 RES2       96 GROUP             0 ****  ****    0  
     3 RES3      101 GROUP             0 ****  ****    0  
@<TRIPOS>CRYSIN
   10.6425   11.4204   19.2624   80.1330   88.4860   83.5750     2     1
