@<TRIPOS>MOLECULE
USILUF
   107   110     2     0     0
SMALL
NO_CHARGES
****
Generated from the CSD

@<TRIPOS>ATOM
     1 Fe1      5.5099   2.3096   8.2028   Fe        1 RES1   0.0000
     2 S1       5.5845   0.7970   5.1997   S.o2      1 RES1   0.0000
     3 S2       5.9191   2.4822  11.6981   S.o2      1 RES1   0.0000
     4 F1       8.0326   0.1758   5.8847   F         1 RES1   0.0000
     5 F2       7.8996   1.3702   4.1023   F         1 RES1   0.0000
     6 F3       7.3523  -0.7113   4.0401   F         1 RES1   0.0000
     7 F4       4.6273   3.2569  13.8291   F         1 RES1   0.0000
     8 F5       3.6010   3.6410  11.9898   F         1 RES1   0.0000
     9 F6       3.6838   1.6434  12.7698   F         1 RES1   0.0000
    10 O1       5.7186   1.9631   6.0783   O.3       1 RES1   0.0000
    11 O2       4.9806   1.0733   3.9337   O.2       1 RES1   0.0000
    12 O3       5.1364  -0.3918   5.8812   O.2       1 RES1   0.0000
    13 O4       5.4328   2.0093  10.4151   O.3       1 RES1   0.0000
    14 O5       6.6084   1.4862  12.4730   O.2       1 RES1   0.0000
    15 O6       6.5332   3.7807  11.6533   O.2       1 RES1   0.0000
    16 O7       5.8800   0.3067   8.3916   O.3       1 RES1   0.0000
    17 H1       5.6919  -0.1450   7.7311   H         1 RES1   0.0000
    18 H2       5.7910  -0.1193   9.0862   H         1 RES1   0.0000
    19 N1       4.9606   4.2997   8.6916   N.ar      1 RES1   0.0000
    20 N2       3.2894   2.4470   8.0312   N.2       1 RES1   0.0000
    21 N3       7.3960   3.5333   8.1801   N.2       1 RES1   0.0000
    22 C1       3.6727   4.5803   8.9337   C.ar      1 RES1   0.0000
    23 C2       3.2925   5.7635   9.5517   C.ar      1 RES1   0.0000
    24 H3       2.3749   5.9618   9.6994   H         1 RES1   0.0000
    25 C3       4.2835   6.6496   9.9493   C.ar      1 RES1   0.0000
    26 H4       4.0509   7.4542  10.3976   H         1 RES1   0.0000
    27 C4       5.6193   6.3570   9.6886   C.ar      1 RES1   0.0000
    28 H5       6.3077   6.9601   9.9429   H         1 RES1   0.0000
    29 C5       5.9214   5.1577   9.0460   C.ar      1 RES1   0.0000
    30 C6       2.7317   3.5290   8.4536   C.2       1 RES1   0.0000
    31 C7       1.2715   3.8184   8.4761   C.3       1 RES1   0.0000
    32 H6       0.7801   3.0451   8.1284   H         1 RES1   0.0000
    33 H7       1.0852   4.6029   7.9171   H         1 RES1   0.0000
    34 H8       0.9877   3.9985   9.3962   H         1 RES1   0.0000
    35 C8       2.5124   1.4128   7.3992   C.ar      1 RES1   0.0000
    36 C9       2.1647   1.5730   6.0461   C.ar      1 RES1   0.0000
    37 C10      1.5844   0.4856   5.4051   C.ar      1 RES1   0.0000
    38 H9       1.3523   0.5556   4.4857   H         1 RES1   0.0000
    39 C11      1.3369  -0.7029   6.0824   C.ar      1 RES1   0.0000
    40 H10      0.9622  -1.4423   5.6203   H         1 RES1   0.0000
    41 C12      1.6338  -0.8110   7.4228   C.ar      1 RES1   0.0000
    42 H11      1.4235  -1.6143   7.8849   H         1 RES1   0.0000
    43 C13      2.2409   0.2428   8.1139   C.ar      1 RES1   0.0000
    44 C14      2.4214   2.8880   5.3362   C.3       1 RES1   0.0000
    45 H12      1.9691   3.6071   5.8431   H         1 RES1   0.0000
    46 H13      3.3938   3.0720   5.3676   H         1 RES1   0.0000
    47 C15      1.9709   2.9700   3.8968   C.3       1 RES1   0.0000
    48 H14      1.0114   2.7743   3.8426   H         1 RES1   0.0000
    49 H15      2.4667   2.3162   3.3602   H         1 RES1   0.0000
    50 H16      2.1404   3.8714   3.5532   H         1 RES1   0.0000
    51 C16      2.5156   0.1254   9.5894   C.3       1 RES1   0.0000
    52 H17      3.2299   0.7635   9.8395   H         1 RES1   0.0000
    53 H18      2.8400  -0.7879   9.7890   H         1 RES1   0.0000
    54 C17      1.2699   0.4106  10.4229   C.3       1 RES1   0.0000
    55 H19      1.4814   0.3054  11.3738   H         1 RES1   0.0000
    56 H20      0.5605  -0.2181  10.1749   H         1 RES1   0.0000
    57 H21      0.9675   1.3268  10.2552   H         1 RES1   0.0000
    58 C18      7.2924   4.7273   8.6518   C.2       1 RES1   0.0000
    59 C19      8.4075   5.7127   8.8057   C.3       1 RES1   0.0000
    60 H22      8.4616   6.0016   9.7408   H         1 RES1   0.0000
    61 H23      8.2387   6.4892   8.2318   H         1 RES1   0.0000
    62 H24      9.2539   5.2920   8.5441   H         1 RES1   0.0000
    63 C20      8.6578   3.0919   7.6337   C.ar      1 RES1   0.0000
    64 C21      9.4628   2.2300   8.3925   C.ar      1 RES1   0.0000
    65 C22     10.6557   1.7830   7.8232   C.ar      1 RES1   0.0000
    66 H25     11.2217   1.2049   8.3213   H         1 RES1   0.0000
    67 C23     11.0287   2.1645   6.5523   C.ar      1 RES1   0.0000
    68 H26     11.8454   1.8491   6.1830   H         1 RES1   0.0000
    69 C24     10.2130   3.0082   5.8123   C.ar      1 RES1   0.0000
    70 H27     10.4776   3.2619   4.9358   H         1 RES1   0.0000
    71 C25      9.0109   3.4907   6.3334   C.ar      1 RES1   0.0000
    72 C26      9.1038   1.8414   9.8002   C.3       1 RES1   0.0000
    73 H28      9.4376   0.9265   9.9819   H         1 RES1   0.0000
    74 H29      8.1183   1.8311   9.8946   H         1 RES1   0.0000
    75 C27      9.6983   2.8064  10.8239   C.3       1 RES1   0.0000
    76 H30      9.4349   2.5279  11.7252   H         1 RES1   0.0000
    77 H31      9.3643   3.7123  10.6503   H         1 RES1   0.0000
    78 H32     10.6757   2.7987  10.7514   H         1 RES1   0.0000
    79 C28      8.0918   4.3818   5.5314   C.3       1 RES1   0.0000
    80 H33      8.0437   5.2612   5.9832   H         1 RES1   0.0000
    81 H34      7.1832   3.9882   5.5537   H         1 RES1   0.0000
    82 C29      8.4723   4.6146   4.0789   C.3       1 RES1   0.0000
    83 H35      9.3335   5.0815   4.0378   H         1 RES1   0.0000
    84 H36      7.7845   5.1598   3.6450   H         1 RES1   0.0000
    85 H37      8.5452   3.7521   3.6175   H         1 RES1   0.0000
    86 C30      7.3196   0.3954   4.7925   C.3       1 RES1   0.0000
    87 C31      4.3760   2.7628  12.6191   C.3       1 RES1   0.0000
    88 C32     13.0107   4.1820  12.5498   C.3       2 RES2   0.0000
    89 H38     12.5740   3.7213  13.2962   H         2 RES2   0.0000
    90 H39     13.0721   3.5750  11.7826   H         2 RES2   0.0000
    91 H40     13.9112   4.4592  12.8185   H         2 RES2   0.0000
    92 C33     12.3207   5.2201  12.2213   C.3       2 RES2   0.0000
    93 H41     11.4059   4.9404  11.9641   H         2 RES2   0.0000
    94 H42     12.2476   5.8258  13.0022   H         2 RES2   0.0000
    95 C34     12.8358   5.8155  11.2957   C.3       2 RES2   0.0000
    96 H43     12.5965   5.4536  10.4045   H         2 RES2   0.0000
    97 H44     13.8162   5.9207  11.3853   H         2 RES2   0.0000
    98 C32B    11.8995   8.6501  10.4183   C.3       2 RES2   0.0000
    99 H38B    12.3361   9.1108   9.6719   H         2 RES2   0.0000
   100 H39B    11.8381   9.2571  11.1855   H         2 RES2   0.0000
   101 H40B    10.9989   8.3729  10.1496   H         2 RES2   0.0000
   102 C33B    12.5895   7.6120  10.7468   C.3       2 RES2   0.0000
   103 H41B    13.5043   7.8917  11.0040   H         2 RES2   0.0000
   104 H42B    12.6626   7.0063   9.9658   H         2 RES2   0.0000
   105 C34B    12.0743   7.0166  11.6724   C.3       2 RES2   0.0000
   106 H43B    12.3137   7.3785  12.5635   H         2 RES2   0.0000
   107 H44B    11.0939   6.9114  11.5828   H         2 RES2   0.0000
@<TRIPOS>BOND
     1     1    10    1
     2     2    10    1
     3     3    13    1
     4     4    86    1
     5     5    86    1
     6     6    86    1
     7     7    87    1
     8     8    87    1
     9     9    87    1
    10    11     2    2
    11    12     2    2
    12    13     1    1
    13    14     3    2
    14    15     3    2
    15    16     1    1
    16    17    16    1
    17    18    16    1
    18    19     1    1
    19    20     1    1
    20    21     1    1
    21    22    19   ar
    22    23    22   ar
    23    24    23    1
    24    25    23   ar
    25    26    25    1
    26    27    25   ar
    27    28    27    1
    28    29    19   ar
    29    30    20    2
    30    31    30    1
    31    32    31    1
    32    33    31    1
    33    34    31    1
    34    35    20    1
    35    36    35   ar
    36    37    36   ar
    37    38    37    1
    38    39    37   ar
    39    40    39    1
    40    41    39   ar
    41    42    41    1
    42    43    35   ar
    43    44    36    1
    44    45    44    1
    45    46    44    1
    46    47    44    1
    47    48    47    1
    48    49    47    1
    49    50    47    1
    50    51    43    1
    51    52    51    1
    52    53    51    1
    53    54    51    1
    54    55    54    1
    55    56    54    1
    56    57    54    1
    57    58    21    2
    58    59    58    1
    59    60    59    1
    60    61    59    1
    61    62    59    1
    62    63    21    1
    63    64    63   ar
    64    65    64   ar
    65    66    65    1
    66    67    65   ar
    67    68    67    1
    68    69    67   ar
    69    70    69    1
    70    71    63   ar
    71    72    64    1
    72    73    72    1
    73    74    72    1
    74    75    72    1
    75    76    75    1
    76    77    75    1
    77    78    75    1
    78    79    71    1
    79    80    79    1
    80    81    79    1
    81    82    79    1
    82    83    82    1
    83    84    82    1
    84    85    82    1
    85    86     2    1
    86    87     3    1
    87    22    30    1
    88    27    29   ar
    89    29    58    1
    90    41    43   ar
    91    69    71   ar
    92    88    89    1
    93    90    88    1
    94    91    88    1
    95    92    88    1
    96    93    92    1
    97    94    92    1
    98    95    92    1
    99    96    95    1
   100    97    95    1
   101    98    99    1
   102   100    98    1
   103   101    98    1
   104   102    98    1
   105   103   102    1
   106   104   102    1
   107   105    95    1
   108   106   105    1
   109   107   105    1
   110   102   105    1
@<TRIPOS>SUBSTRUCTURE
     1 RES1        1 GROUP             0 ****  ****    0  
     2 RES2       88 GROUP             0 ****  ****    0  
@<TRIPOS>CRYSIN
   12.6904   12.8321   22.9729   90.0000   91.1739   90.0000   231     1
