@<TRIPOS>MOLECULE
USUDIX
    88    96     3     0     0
SMALL
USER_CHARGES
****
Generated from the CSD

@<TRIPOS>ATOM
     1 I1       5.6437   0.8002  15.7405   I         1 RES1  -1.0000
     2 I2       3.5665   9.7103  10.2487   I         2 RES2  -1.0000
     3 Fe1     -1.1196  11.8845  15.5808   Fe        3 RES3   2.0000
     4 N1      -1.7387  10.1465  14.8531   N.ar      3 RES3   0.0000
     5 N2       0.5874  11.6000  13.1773   N.pl3     3 RES3   0.0000
     6 N3       1.3672  11.0193  17.2021   N.pl3     3 RES3   0.0000
     7 N4      -2.9589  12.4051  14.9722   N.ar      3 RES3   0.0000
     8 N5      -1.9816  11.5621  17.3415   N.ar      3 RES3   0.0000
     9 N6      -0.7561  13.6227  16.4269   N.ar      3 RES3   0.0000
    10 N7      -0.6228  13.3208  12.8953   N.pl3     3 RES3   0.0000
    11 N8       1.4982  10.5854  15.1201   N.pl3     3 RES3   0.0000
    12 C1      -2.1314  12.6741  18.1044   C.ar      3 RES3   0.0000
    13 C2      -5.3876  12.9661  13.7343   C.ar      3 RES3   0.0000
    14 H1      -6.1903  13.1822  13.2734   H         3 RES3   0.0000
    15 C3      -3.5444  11.5093  14.1361   C.ar      3 RES3   0.0000
    16 C4      -0.3704  12.3342  13.8082   C.3       3 RES3   0.0000
    17 C5      -3.3764  10.3890  18.8904   C.ar      3 RES3   0.0000
    18 H2      -3.7931   9.5740  19.1471   H         3 RES3   0.0000
    19 C6       0.9244  12.1131  11.9258   C.2       3 RES3   0.0000
    20 H3       1.5666  11.7650  11.3196   H         3 RES3   0.0000
    21 C7       0.6605  11.1859  16.0335   C.3       3 RES3   0.0000
    22 C8       2.3152  13.0453  20.1473   C.ar      3 RES3   0.0000
    23 H4       1.9523  12.5074  20.8418   H         3 RES3   0.0000
    24 C9      -2.5855  10.4484  17.7623   C.ar      3 RES3   0.0000
    25 H5      -2.4649   9.6532  17.2569   H         3 RES3   0.0000
    26 C10     -3.5508  11.5274  19.6387   C.ar      3 RES3   0.0000
    27 H6      -4.1067  11.5159  20.4089   H         3 RES3   0.0000
    28 C11      2.5660  10.3428  17.0072   C.2       3 RES3   0.0000
    29 H7       3.2049  10.1234  17.6750   H         3 RES3   0.0000
    30 C12     -2.8649  10.2076  14.0901   C.ar      3 RES3   0.0000
    31 C13     -2.7266  14.4427  12.1057   C.ar      3 RES3   0.0000
    32 C14     -1.3655  13.8207  17.6252   C.ar      3 RES3   0.0000
    33 C15     -4.8675  13.8240  14.6685   C.ar      3 RES3   0.0000
    34 H8      -5.3351  14.6143  14.9142   H         3 RES3   0.0000
    35 C16     -1.5237  14.4460  13.0347   C.3       3 RES3   0.0000
    36 H9      -1.0106  15.2792  12.8772   H         3 RES3   0.0000
    37 H10     -1.8504  14.4707  13.9679   H         3 RES3   0.0000
    38 C17     -1.1808   8.9438  15.0221   C.ar      3 RES3   0.0000
    39 H11     -0.4173   8.8745  15.5843   H         3 RES3   0.0000
    40 C18      3.6789  14.9030  19.4650   C.ar      3 RES3   0.0000
    41 H12      4.2372  15.6405  19.6827   H         3 RES3   0.0000
    42 C19      2.0128  12.7648  18.8278   C.ar      3 RES3   0.0000
    43 C20     -4.7262  11.7848  13.4729   C.ar      3 RES3   0.0000
    44 H13     -5.0787  11.1678  12.8430   H         3 RES3   0.0000
    45 C21     -2.9105  12.6823  19.2596   C.ar      3 RES3   0.0000
    46 H14     -2.9985  13.4759  19.7756   H         3 RES3   0.0000
    47 C22      2.5884  13.5551  17.8347   C.ar      3 RES3   0.0000
    48 H15      2.4188  13.3571  16.9219   H         3 RES3   0.0000
    49 C23      3.3915  14.6126  18.1568   C.ar      3 RES3   0.0000
    50 H16      3.7559  15.1521  17.4647   H         3 RES3   0.0000
    51 C24      0.0169  14.6225  15.9557   C.ar      3 RES3   0.0000
    52 H17      0.4827  14.4872  15.1392   H         3 RES3   0.0000
    53 C25     -2.9824  13.4495  11.1711   C.ar      3 RES3   0.0000
    54 H18     -2.3840  12.7170  11.0872   H         3 RES3   0.0000
    55 C26     -3.6220  15.4969  12.2192   C.ar      3 RES3   0.0000
    56 H19     -3.4732  16.1734  12.8699   H         3 RES3   0.0000
    57 C27     -4.1040  13.5188  10.3563   C.ar      3 RES3   0.0000
    58 H20     -4.2684  12.8341   9.7178   H         3 RES3   0.0000
    59 C28     -3.6513  13.5155  15.2453   C.ar      3 RES3   0.0000
    60 H21     -3.2847  14.1276  15.8728   H         3 RES3   0.0000
    61 C29      0.1651  13.1888  11.7561   C.2       3 RES3   0.0000
    62 H22      0.1606  13.7597  10.9968   H         3 RES3   0.0000
    63 C30     -0.4763  16.0282  17.7949   C.ar      3 RES3   0.0000
    64 H23     -0.3969  16.8597  18.2473   H         3 RES3   0.0000
    65 C31      1.0928  11.6132  18.5057   C.3       3 RES3   0.0000
    66 H24      1.1879  10.9186  19.2034   H         3 RES3   0.0000
    67 H25      0.1558  11.9333  18.5236   H         3 RES3   0.0000
    68 C32      1.1889  10.4039  13.7070   C.3       3 RES3   0.0000
    69 H26      2.0184  10.1993  13.2074   H         3 RES3   0.0000
    70 H27      0.5662   9.6417  13.5986   H         3 RES3   0.0000
    71 C33     -3.3755   9.0989  13.4397   C.ar      3 RES3   0.0000
    72 H28     -4.1440   9.1748  12.8870   H         3 RES3   0.0000
    73 C34     -2.7490   7.8829  13.6050   C.ar      3 RES3   0.0000
    74 H29     -3.0728   7.1108  13.1560   H         3 RES3   0.0000
    75 C35     -1.6572   7.7955  14.4222   C.ar      3 RES3   0.0000
    76 H30     -1.2332   6.9590  14.5743   H         3 RES3   0.0000
    77 C36      0.1637  15.8236  16.6013   C.ar      3 RES3   0.0000
    78 H31      0.7042  16.5083  16.2249   H         3 RES3   0.0000
    79 C37     -1.2341  15.0152  18.3270   C.ar      3 RES3   0.0000
    80 H32     -1.6645  15.1274  19.1667   H         3 RES3   0.0000
    81 C38      2.6480  10.0607  15.7036   C.2       3 RES3   0.0000
    82 H33      3.3494   9.5938  15.2639   H         3 RES3   0.0000
    83 C39     -4.7366  15.5712  11.3878   C.ar      3 RES3   0.0000
    84 H34     -5.3282  16.3120  11.4565   H         3 RES3   0.0000
    85 C40      3.1480  14.1094  20.4542   C.ar      3 RES3   0.0000
    86 H35      3.3541  14.2942  21.3626   H         3 RES3   0.0000
    87 C41     -4.9835  14.5796  10.4686   C.ar      3 RES3   0.0000
    88 H36     -5.7545  14.6225   9.9135   H         3 RES3   0.0000
@<TRIPOS>BOND
     1     3     4    1
     2     4    30   ar
     3     5    16    1
     4     6    21    1
     5     7     3    1
     6     8     3    1
     7     9     3    1
     8    10    16    1
     9    11    21    1
    10    12     8   ar
    11    13    14    1
    12    15     7   ar
    13    16     3    1
    14    17    18    1
    15    19     5    1
    16    20    19    1
    17    21     3    1
    18    22    23    1
    19    24     8   ar
    20    25    24    1
    21    26    17   ar
    22    27    26    1
    23    28     6    1
    24    29    28    1
    25    30    15    1
    26    31    35    1
    27    32     9   ar
    28    33    13   ar
    29    34    33    1
    30    35    10    1
    31    36    35    1
    32    37    35    1
    33    38     4   ar
    34    39    38    1
    35    40    41    1
    36    42    22   ar
    37    43    13   ar
    38    44    43    1
    39    45    12   ar
    40    46    45    1
    41    47    42   ar
    42    48    47    1
    43    49    40   ar
    44    50    49    1
    45    51     9   ar
    46    52    51    1
    47    53    31   ar
    48    54    53    1
    49    55    31   ar
    50    56    55    1
    51    57    53   ar
    52    58    57    1
    53    59     7   ar
    54    60    59    1
    55    61    10    1
    56    62    61    1
    57    63    64    1
    58    65     6    1
    59    66    65    1
    60    67    65    1
    61    68     5    1
    62    69    68    1
    63    70    68    1
    64    71    30   ar
    65    72    71    1
    66    73    71   ar
    67    74    73    1
    68    75    38   ar
    69    76    75    1
    70    77    51   ar
    71    78    77    1
    72    79    32   ar
    73    80    79    1
    74    81    11    1
    75    82    81    1
    76    83    55   ar
    77    84    83    1
    78    85    22   ar
    79    86    85    1
    80    87    57   ar
    81    88    87    1
    82    11    68    1
    83    12    32    1
    84    15    43   ar
    85    17    24   ar
    86    19    61    2
    87    26    45   ar
    88    28    81    2
    89    33    59   ar
    90    40    85   ar
    91    42    65    1
    92    47    49   ar
    93    63    77   ar
    94    63    79   ar
    95    73    75   ar
    96    83    87   ar
@<TRIPOS>SUBSTRUCTURE
     1 RES1        1 GROUP             0 ****  ****    0  
     2 RES2        2 GROUP             0 ****  ****    0  
     3 RES3        3 GROUP             0 ****  ****    0  
@<TRIPOS>CRYSIN
    9.2065   16.4984   24.6990   90.0000   98.0840   90.0000   231     1
