@<TRIPOS>MOLECULE
UTAHUT
    76    81     1     0     0
SMALL
NO_CHARGES
****
Generated from the CSD

@<TRIPOS>ATOM
     1 Fe1     -3.4038   7.6517   4.7103   Fe        1 RES1   0.0000
     2 C1      -4.6894   5.9330   5.3838   C.ar      1 RES1   0.0000
     3 H1      -4.8980   5.8016   6.3020   H         1 RES1   0.0000
     4 C2      -5.4607   6.7046   4.4613   C.ar      1 RES1   0.0000
     5 C3      -4.7933   6.6544   3.1926   C.ar      1 RES1   0.0000
     6 C4      -3.6054   5.8426   3.3525   C.ar      1 RES1   0.0000
     7 C5      -3.5538   5.3900   4.7072   C.ar      1 RES1   0.0000
     8 C6      -6.7772   7.3813   4.8057   C.3       1 RES1   0.0000
     9 H2      -7.0027   8.0074   4.0589   H         1 RES1   0.0000
    10 C7      -6.7020   8.2004   6.0969   C.3       1 RES1   0.0000
    11 H3      -6.5143   7.6042   6.8508   H         1 RES1   0.0000
    12 H4      -7.5566   8.6568   6.2449   H         1 RES1   0.0000
    13 H5      -5.9855   8.8651   6.0203   H         1 RES1   0.0000
    14 C8      -7.9107   6.3550   4.9151   C.3       1 RES1   0.0000
    15 H6      -7.9636   5.8373   4.0847   H         1 RES1   0.0000
    16 H7      -8.7597   6.8206   5.0645   H         1 RES1   0.0000
    17 H8      -7.7333   5.7514   5.6667   H         1 RES1   0.0000
    18 C9      -5.2782   7.2120   1.8650   C.3       1 RES1   0.0000
    19 H9      -4.5862   6.9577   1.1897   H         1 RES1   0.0000
    20 C10     -5.3951   8.7390   1.7958   C.3       1 RES1   0.0000
    21 H10     -6.0620   9.0453   2.4457   H         1 RES1   0.0000
    22 H11     -5.6706   9.0055   0.8932   H         1 RES1   0.0000
    23 H12     -4.5264   9.1428   2.0037   H         1 RES1   0.0000
    24 C11     -6.5792   6.5376   1.4133   C.3       1 RES1   0.0000
    25 H13     -6.4800   5.5645   1.4715   H         1 RES1   0.0000
    26 H14     -6.7734   6.7908   0.4862   H         1 RES1   0.0000
    27 H15     -7.3153   6.8265   1.9926   H         1 RES1   0.0000
    28 C12     -2.6241   5.3914   2.2773   C.3       1 RES1   0.0000
    29 H16     -1.9264   4.8529   2.7495   H         1 RES1   0.0000
    30 C13     -1.8725   6.5311   1.5740   C.3       1 RES1   0.0000
    31 H17     -2.5130   7.1007   1.0994   H         1 RES1   0.0000
    32 H18     -1.2330   6.1548   0.9337   H         1 RES1   0.0000
    33 H19     -1.3918   7.0658   2.2394   H         1 RES1   0.0000
    34 C14     -3.2860   4.4338   1.2637   C.3       1 RES1   0.0000
    35 H20     -3.7152   3.6957   1.7440   H         1 RES1   0.0000
    36 H21     -2.6032   4.0763   0.6575   H         1 RES1   0.0000
    37 H22     -3.9600   4.9217   0.7459   H         1 RES1   0.0000
    38 C15     -2.5375   4.4166   5.2884   C.3       1 RES1   0.0000
    39 H23     -1.6589   4.5935   4.8453   H         1 RES1   0.0000
    40 C16     -2.3379   4.5712   6.7849   C.3       1 RES1   0.0000
    41 H24     -2.0942   5.4987   6.9871   H         1 RES1   0.0000
    42 H25     -1.6216   3.9729   7.0829   H         1 RES1   0.0000
    43 H26     -3.1693   4.3430   7.2505   H         1 RES1   0.0000
    44 C17     -2.9491   2.9665   4.9521   C.3       1 RES1   0.0000
    45 H27     -2.2392   2.3519   5.2320   H         1 RES1   0.0000
    46 H28     -3.0900   2.8832   3.9853   H         1 RES1   0.0000
    47 H29     -3.7788   2.7445   5.4236   H         1 RES1   0.0000
    48 C18     -2.3834   9.2674   5.4002   C.ar      1 RES1   0.0000
    49 C19     -2.2465   9.4664   6.7956   C.ar      1 RES1   0.0000
    50 C20     -1.5258  10.5532   7.2963   C.ar      1 RES1   0.0000
    51 H30     -1.4357  10.6656   8.2357   H         1 RES1   0.0000
    52 C21     -0.9394  11.4699   6.4354   C.ar      1 RES1   0.0000
    53 H31     -0.4511  12.2063   6.7845   H         1 RES1   0.0000
    54 C22     -1.0681  11.3097   5.0691   C.ar      1 RES1   0.0000
    55 H32     -0.6725  11.9429   4.4825   H         1 RES1   0.0000
    56 C23     -1.7761  10.2224   4.5396   C.ar      1 RES1   0.0000
    57 C24     -2.8595   8.4912   7.7972   C.3       1 RES1   0.0000
    58 H33     -3.2929   7.7595   7.2707   H         1 RES1   0.0000
    59 C25     -3.9547   9.1493   8.6525   C.3       1 RES1   0.0000
    60 H34     -3.5619   9.8708   9.1860   H         1 RES1   0.0000
    61 H35     -4.3493   8.4791   9.2486   H         1 RES1   0.0000
    62 H36     -4.6499   9.5159   8.0681   H         1 RES1   0.0000
    63 C26     -1.7897   7.8432   8.6783   C.3       1 RES1   0.0000
    64 H37     -1.0844   7.4658   8.1123   H         1 RES1   0.0000
    65 H38     -2.1954   7.1292   9.2136   H         1 RES1   0.0000
    66 H39     -1.4036   8.5186   9.2744   H         1 RES1   0.0000
    67 C27     -1.8919  10.1007   3.0284   C.3       1 RES1   0.0000
    68 H40     -2.4130   9.2700   2.8324   H         1 RES1   0.0000
    69 C28     -2.6653  11.2784   2.4333   C.3       1 RES1   0.0000
    70 H41     -3.5436  11.3425   2.8637   H         1 RES1   0.0000
    71 H42     -2.7817  11.1393   1.4696   H         1 RES1   0.0000
    72 H43     -2.1662  12.1079   2.5856   H         1 RES1   0.0000
    73 C29     -0.5255   9.9558   2.3503   C.3       1 RES1   0.0000
    74 H44     -0.0099  10.7795   2.4751   H         1 RES1   0.0000
    75 H45     -0.6521   9.7915   1.3923   H         1 RES1   0.0000
    76 H46     -0.0411   9.2033   2.7495   H         1 RES1   0.0000
@<TRIPOS>BOND
     1     1     2   un
     2     2     3    1
     3     4     1   un
     4     5     1   un
     5     6     1   un
     6     7     1   un
     7     8     4    1
     8     9     8    1
     9    10     8    1
    10    11    10    1
    11    12    10    1
    12    13    10    1
    13    14     8    1
    14    15    14    1
    15    16    14    1
    16    17    14    1
    17    18     5    1
    18    19    18    1
    19    20    18    1
    20    21    20    1
    21    22    20    1
    22    23    20    1
    23    24    18    1
    24    25    24    1
    25    26    24    1
    26    27    24    1
    27    28     6    1
    28    29    28    1
    29    30    28    1
    30    31    30    1
    31    32    30    1
    32    33    30    1
    33    34    28    1
    34    35    34    1
    35    36    34    1
    36    37    34    1
    37    38     7    1
    38    39    38    1
    39    40    38    1
    40    41    40    1
    41    42    40    1
    42    43    40    1
    43    44    38    1
    44    45    44    1
    45    46    44    1
    46    47    44    1
    47    48     1    1
    48    49    48   ar
    49    50    49   ar
    50    51    50    1
    51    52    50   ar
    52    53    52    1
    53    54    52   ar
    54    55    54    1
    55    56    48   ar
    56    57    49    1
    57    58    57    1
    58    59    57    1
    59    60    59    1
    60    61    59    1
    61    62    59    1
    62    63    57    1
    63    64    63    1
    64    65    63    1
    65    66    63    1
    66    67    56    1
    67    68    67    1
    68    69    67    1
    69    70    69    1
    70    71    69    1
    71    72    69    1
    72    73    67    1
    73    74    73    1
    74    75    73    1
    75    76    73    1
    76     2     4   ar
    77     2     7   ar
    78     4     5   ar
    79     5     6   ar
    80     6     7   ar
    81    54    56   ar
@<TRIPOS>SUBSTRUCTURE
     1 RES1        1 GROUP             0 ****  ****    0  
@<TRIPOS>CRYSIN
    8.5442    9.0470   19.0180   95.8350  100.7180  107.7870     2     1
