@<TRIPOS>MOLECULE
UTAWEU
   112   121     2     0     0
SMALL
NO_CHARGES
****
Generated from the CSD

@<TRIPOS>ATOM
     1 Fe1      8.9696   8.9554   3.8222   Fe        1 RES1   0.0000
     2 P1       9.6183   7.5104   5.3463   P.3       1 RES1   0.0000
     3 O1      11.2525  13.4445   1.5984   O.2       1 RES1   0.0000
     4 O2       8.5842  10.4356   2.5777   O.2       1 RES1   0.0000
     5 N1      10.8615   9.0152   3.3380   N.2       1 RES1   0.0000
     6 C1      13.1691  12.1313   1.8311   C.3       1 RES1   0.0000
     7 H1      13.3778  11.3890   1.2261   H         1 RES1   0.0000
     8 H2      13.4965  11.9224   2.7306   H         1 RES1   0.0000
     9 H3      13.6016  12.9488   1.5075   H         1 RES1   0.0000
    10 C2      11.6681  12.3381   1.8768   C.2       1 RES1   0.0000
    11 C3      10.7995  11.2273   2.2748   C.2       1 RES1   0.0000
    12 C4       9.3807  11.3016   2.1218   C.2       1 RES1   0.0000
    13 C5       8.7115  12.3941   1.3362   C.3       1 RES1   0.0000
    14 H4       9.2508  12.6040   0.5443   H         1 RES1   0.0000
    15 H5       8.6274  13.1946   1.8958   H         1 RES1   0.0000
    16 H6       7.8210  12.0967   1.0549   H         1 RES1   0.0000
    17 C6      11.4213  10.0688   2.7975   C.2       1 RES1   0.0000
    18 H7      12.3690  10.0530   2.7504   H         1 RES1   0.0000
    19 C7      11.7255   7.9505   3.7284   C.ar      1 RES1   0.0000
    20 C8      11.3002   7.1348   4.7850   C.ar      1 RES1   0.0000
    21 C9      12.1364   6.1287   5.2616   C.ar      1 RES1   0.0000
    22 H8      11.8676   5.6080   6.0084   H         1 RES1   0.0000
    23 C10     13.3570   5.8811   4.6555   C.ar      1 RES1   0.0000
    24 H9      13.9254   5.1956   4.9856   H         1 RES1   0.0000
    25 C11     13.7372   6.6425   3.5652   C.ar      1 RES1   0.0000
    26 H10     14.5608   6.4575   3.1296   H         1 RES1   0.0000
    27 C12     12.9367   7.6678   3.1018   C.ar      1 RES1   0.0000
    28 H11     13.2131   8.1824   2.3529   H         1 RES1   0.0000
    29 C13      8.7855   5.9106   5.6933   C.ar      1 RES1   0.0000
    30 C14      9.2722   4.6737   5.3238   C.ar      1 RES1   0.0000
    31 H12     10.1118   4.6128   4.8832   H         1 RES1   0.0000
    32 C15      8.5519   3.5184   5.5885   C.ar      1 RES1   0.0000
    33 H13      8.9121   2.6746   5.3419   H         1 RES1   0.0000
    34 C16      7.3238   3.5815   6.2032   C.ar      1 RES1   0.0000
    35 H14      6.8345   2.7890   6.3861   H         1 RES1   0.0000
    36 C17      6.8196   4.8085   6.5464   C.ar      1 RES1   0.0000
    37 H15      5.9643   4.8652   6.9563   H         1 RES1   0.0000
    38 C18      7.5371   5.9628   6.3049   C.ar      1 RES1   0.0000
    39 H16      7.1749   6.8035   6.5588   H         1 RES1   0.0000
    40 C19      9.7692   8.2151   7.0343   C.ar      1 RES1   0.0000
    41 C20     10.9407   8.1920   7.7770   C.ar      1 RES1   0.0000
    42 H17     11.7193   7.7817   7.4196   H         1 RES1   0.0000
    43 C21     10.9810   8.7678   9.0451   C.ar      1 RES1   0.0000
    44 H18     11.7890   8.7535   9.5432   H         1 RES1   0.0000
    45 C22      9.8583   9.3577   9.5812   C.ar      1 RES1   0.0000
    46 H19      9.8827   9.7356  10.4528   H         1 RES1   0.0000
    47 C23      8.6846   9.3947   8.8329   C.ar      1 RES1   0.0000
    48 H20      7.9065   9.8046   9.1915   H         1 RES1   0.0000
    49 C24      8.6478   8.8404   7.5772   C.ar      1 RES1   0.0000
    50 H21      7.8440   8.8836   7.0710   H         1 RES1   0.0000
    51 P1A      8.3209   7.5104   2.2980   P.3       1 RES1   0.0000
    52 O1A      6.6868  13.4445   6.0459   O.2       1 RES1   0.0000
    53 O2A      9.3551  10.4356   5.0667   O.2       1 RES1   0.0000
    54 N1A      7.0778   9.0152   4.3064   N.2       1 RES1   0.0000
    55 C1A      4.7702  12.1313   5.8132   C.3       1 RES1   0.0000
    56 H1A      4.5615  11.3890   6.4182   H         1 RES1   0.0000
    57 H2A      4.4427  11.9224   4.9138   H         1 RES1   0.0000
    58 H3A      4.3377  12.9488   6.1369   H         1 RES1   0.0000
    59 C2A      6.2712  12.3381   5.7675   C.2       1 RES1   0.0000
    60 C3A      7.1398  11.2273   5.3695   C.2       1 RES1   0.0000
    61 C4A      8.5586  11.3016   5.5226   C.2       1 RES1   0.0000
    62 C5A      9.2278  12.3941   6.3081   C.3       1 RES1   0.0000
    63 H4A      8.6885  12.6040   7.1000   H         1 RES1   0.0000
    64 H5A      9.3119  13.1946   5.7485   H         1 RES1   0.0000
    65 H6A     10.1183  12.0967   6.5894   H         1 RES1   0.0000
    66 C6A      6.5180  10.0688   4.8468   C.2       1 RES1   0.0000
    67 H7A      5.5703  10.0530   4.8939   H         1 RES1   0.0000
    68 C7A      6.2138   7.9505   3.9159   C.ar      1 RES1   0.0000
    69 C8A      6.6391   7.1348   2.8593   C.ar      1 RES1   0.0000
    70 C9A      5.8029   6.1287   2.3827   C.ar      1 RES1   0.0000
    71 H8A      6.0717   5.6080   1.6359   H         1 RES1   0.0000
    72 C10A     4.5823   5.8811   2.9888   C.ar      1 RES1   0.0000
    73 H9A      4.0138   5.1956   2.6587   H         1 RES1   0.0000
    74 C11A     4.2020   6.6425   4.0792   C.ar      1 RES1   0.0000
    75 H10A     3.3785   6.4575   4.5147   H         1 RES1   0.0000
    76 C12A     5.0026   7.6678   4.5426   C.ar      1 RES1   0.0000
    77 H11A     4.7262   8.1824   5.2914   H         1 RES1   0.0000
    78 C13A     9.1538   5.9106   1.9510   C.ar      1 RES1   0.0000
    79 C14A     8.6671   4.6737   2.3205   C.ar      1 RES1   0.0000
    80 H12A     7.8275   4.6128   2.7611   H         1 RES1   0.0000
    81 C15A     9.3874   3.5184   2.0559   C.ar      1 RES1   0.0000
    82 H13A     9.0272   2.6746   2.3025   H         1 RES1   0.0000
    83 C16A    10.6155   3.5815   1.4411   C.ar      1 RES1   0.0000
    84 H14A    11.1047   2.7890   1.2583   H         1 RES1   0.0000
    85 C17A    11.1197   4.8085   1.0979   C.ar      1 RES1   0.0000
    86 H15A    11.9750   4.8652   0.6880   H         1 RES1   0.0000
    87 C18A    10.4022   5.9628   1.3394   C.ar      1 RES1   0.0000
    88 H16A    10.7644   6.8035   1.0855   H         1 RES1   0.0000
    89 C19A     8.1701   8.2151   0.6100   C.ar      1 RES1   0.0000
    90 C20A     6.9985   8.1920  -0.1327   C.ar      1 RES1   0.0000
    91 H17A     6.2200   7.7817   0.2247   H         1 RES1   0.0000
    92 C21A     6.9583   8.7678  -1.4007   C.ar      1 RES1   0.0000
    93 H18A     6.1503   8.7535  -1.8988   H         1 RES1   0.0000
    94 C22A     8.0810   9.3577  -1.9369   C.ar      1 RES1   0.0000
    95 H19A     8.0565   9.7356  -2.8085   H         1 RES1   0.0000
    96 C23A     9.2547   9.3947  -1.1885   C.ar      1 RES1   0.0000
    97 H20A    10.0328   9.8046  -1.5472   H         1 RES1   0.0000
    98 C24A     9.2915   8.8404   0.0671   C.ar      1 RES1   0.0000
    99 H21A    10.0953   8.8836   0.5733   H         1 RES1   0.0000
   100 O3       9.6650   3.8757  10.1850   O.3       2 RES2   0.0000
   101 C25     10.1561   4.2447   8.9096   C.3       2 RES2   0.0000
   102 H22      9.6769   5.0447   8.5785   H         2 RES2   0.0000
   103 H23     10.0168   3.5071   8.2650   H         2 RES2   0.0000
   104 C26     11.6095   4.5387   9.0493   C.3       2 RES2   0.0000
   105 H24     11.9034   5.2230   8.3981   H         2 RES2   0.0000
   106 H25     12.1561   3.7218   8.9332   H         2 RES2   0.0000
   107 C27     11.6869   5.0525  10.4556   C.3       2 RES2   0.0000
   108 H26     11.4877   6.0217  10.4957   H         2 RES2   0.0000
   109 H27     12.5805   4.8873  10.8503   H         2 RES2   0.0000
   110 C28     10.6264   4.2485  11.1486   C.3       2 RES2   0.0000
   111 H28     11.0252   3.4421  11.5613   H         2 RES2   0.0000
   112 H29     10.2010   4.7872  11.8625   H         2 RES2   0.0000
@<TRIPOS>BOND
     1     1     2    1
     2     2    20    1
     3     3    10    2
     4     4     1    1
     5     5     1    1
     6     6     7    1
     7     8     6    1
     8     9     6    1
     9    10     6    1
    10    11    10    1
    11    12     4    2
    12    13    12    1
    13    14    13    1
    14    15    13    1
    15    16    13    1
    16    17     5    1
    17    18    17    1
    18    19     5    1
    19    20    19   ar
    20    21    20   ar
    21    22    21    1
    22    23    21   ar
    23    24    23    1
    24    25    23   ar
    25    26    25    1
    26    27    19   ar
    27    28    27    1
    28    29     2    1
    29    30    29   ar
    30    31    30    1
    31    32    30   ar
    32    33    32    1
    33    34    32   ar
    34    35    34    1
    35    36    34   ar
    36    37    36    1
    37    38    29   ar
    38    39    38    1
    39    40     2    1
    40    41    40   ar
    41    42    41    1
    42    43    41   ar
    43    44    43    1
    44    45    43   ar
    45    46    45    1
    46    47    45   ar
    47    48    47    1
    48    49    40   ar
    49    50    49    1
    50    51     1    1
    51    52    59    2
    52    53     1    1
    53    54     1    1
    54    55    56    1
    55    57    55    1
    56    58    55    1
    57    59    55    1
    58    60    59    1
    59    61    53    2
    60    62    61    1
    61    63    62    1
    62    64    62    1
    63    65    62    1
    64    66    54    1
    65    67    66    1
    66    68    54    1
    67    69    51    1
    68    70    69   ar
    69    71    70    1
    70    72    70   ar
    71    73    72    1
    72    74    72   ar
    73    75    74    1
    74    76    68   ar
    75    77    76    1
    76    78    51    1
    77    79    78   ar
    78    80    79    1
    79    81    79   ar
    80    82    81    1
    81    83    81   ar
    82    84    83    1
    83    85    83   ar
    84    86    85    1
    85    87    78   ar
    86    88    87    1
    87    89    51    1
    88    90    89   ar
    89    91    90    1
    90    92    90   ar
    91    93    92    1
    92    94    92   ar
    93    95    94    1
    94    96    94   ar
    95    97    96    1
    96    98    89   ar
    97    99    98    1
    98    11    12    1
    99    11    17    2
   100    25    27   ar
   101    36    38   ar
   102    47    49   ar
   103    60    61    1
   104    60    66    2
   105    68    69   ar
   106    74    76   ar
   107    85    87   ar
   108    96    98   ar
   109   100   101    1
   110   101   102    1
   111   103   101    1
   112   104   101    1
   113   105   104    1
   114   106   104    1
   115   107   104    1
   116   108   107    1
   117   109   107    1
   118   110   100    1
   119   111   110    1
   120   112   110    1
   121   107   110    1
@<TRIPOS>SUBSTRUCTURE
     1 RES1        1 GROUP             0 ****  ****    0  
     2 RES2      100 GROUP             0 ****  ****    0  
@<TRIPOS>CRYSIN
   24.1110   13.0086   19.6495   90.0000  128.9160   90.0000    15     1
