@<TRIPOS>MOLECULE
UXOHEW05
    90    97     2     0     0
SMALL
USER_CHARGES
****
Generated from the CSD

@<TRIPOS>ATOM
     1 Fe1      8.5812   3.7791  11.5542   Fe        1 RES1   0.0000
     2 S1      11.5985   5.5145  14.8462   S.2       1 RES1   0.0000
     3 S2      11.5252   0.0545  10.8754   S.2       1 RES1   0.0000
     4 S3      10.8653   6.6511   8.4586   S.2       1 RES1   0.0000
     5 N1       7.2468   5.3614  11.6022   N.ar      1 RES1   0.0000
     6 N2       7.3109   3.0063  10.0897   N.ar      1 RES1   0.0000
     7 N3       7.2234   2.8627  12.8512   N.ar      1 RES1   0.0000
     8 N4       9.6618   4.5406  13.0911   N.2       1 RES1  -1.0000
     9 N5       9.7428   2.1121  11.4575   N.2       1 RES1   0.0000
    10 N6       9.6770   4.7914  10.1369   N.2       1 RES1   0.0000
    11 C1       5.3977   3.7396  11.4612   C.3       1 RES1   0.0000
    12 C2       5.9191   5.1914  11.5081   C.ar      1 RES1   0.0000
    13 C3       5.0686   6.2776  11.4909   C.ar      1 RES1   0.0000
    14 H1       4.1533   6.1522  11.3850   H         1 RES1   0.0000
    15 C4       5.5836   7.5528  11.6327   C.ar      1 RES1   0.0000
    16 H2       5.0159   8.2893  11.6324   H         1 RES1   0.0000
    17 C5       6.9322   7.7270  11.7740   C.ar      1 RES1   0.0000
    18 H3       7.2959   8.5738  11.8971   H         1 RES1   0.0000
    19 C6       7.7328   6.6121  11.7297   C.ar      1 RES1   0.0000
    20 H4       8.6543   6.7261  11.7907   H         1 RES1   0.0000
    21 C7       5.9761   2.9857  10.2439   C.ar      1 RES1   0.0000
    22 C8       5.1814   2.2617   9.3862   C.ar      1 RES1   0.0000
    23 H5       4.2587   2.2569   9.5033   H         1 RES1   0.0000
    24 C9       5.7456   1.5425   8.3524   C.ar      1 RES1   0.0000
    25 H6       5.2134   1.0310   7.7856   H         1 RES1   0.0000
    26 C10      7.1108   1.5958   8.1738   C.ar      1 RES1   0.0000
    27 H7       7.5188   1.1413   7.4720   H         1 RES1   0.0000
    28 C11      7.8539   2.3397   9.0599   C.ar      1 RES1   0.0000
    29 H8       8.7760   2.3832   8.9394   H         1 RES1   0.0000
    30 C12      5.8881   2.9924  12.7162   C.ar      1 RES1   0.0000
    31 C13      5.0155   2.4543  13.6436   C.ar      1 RES1   0.0000
    32 H9       4.0992   2.5814  13.5544   H         1 RES1   0.0000
    33 C14      5.5135   1.7359  14.6900   C.ar      1 RES1   0.0000
    34 H10      4.9330   1.3698  15.3181   H         1 RES1   0.0000
    35 C15      6.8671   1.5493  14.8223   C.ar      1 RES1   0.0000
    36 H11      7.2167   1.0406  15.5195   H         1 RES1   0.0000
    37 C16      7.6904   2.1435  13.8858   C.ar      1 RES1   0.0000
    38 H12      8.6103   2.0412  13.9744   H         1 RES1   0.0000
    39 C17      3.8653   3.7383  11.3930   C.3       1 RES1   0.0000
    40 H13      3.5799   4.2070  10.6053   H         1 RES1   0.0000
    41 H14      3.5472   2.8340  11.3591   H         1 RES1   0.0000
    42 H15      3.5101   4.1734  12.1704   H         1 RES1   0.0000
    43 C18     10.4485   4.9482  13.8349   C.1       1 RES1   0.0000
    44 C19     10.4773   1.2520  11.2256   C.1       1 RES1   0.0000
    45 C20     10.1638   5.5669   9.4348   C.1       1 RES1   0.0000
    46 P1       8.5584   3.8050   4.3805   P.3       2 RES2   1.0000
    47 C21      7.2307   4.4826   5.3691   C.ar      2 RES2   0.0000
    48 C22      5.9817   4.7134   4.7928   C.ar      2 RES2   0.0000
    49 H16      5.8325   4.5347   3.8928   H         2 RES2   0.0000
    50 C23      4.9666   5.2172   5.5967   C.ar      2 RES2   0.0000
    51 H17      4.1325   5.3738   5.2163   H         2 RES2   0.0000
    52 C24      5.1452   5.4905   6.9127   C.ar      2 RES2   0.0000
    53 H18      4.4434   5.8214   7.4260   H         2 RES2   0.0000
    54 C25      6.3715   5.2709   7.4735   C.ar      2 RES2   0.0000
    55 H19      6.5042   5.4489   8.3755   H         2 RES2   0.0000
    56 C26      7.4207   4.7856   6.7078   C.ar      2 RES2   0.0000
    57 H20      8.2571   4.6625   7.0951   H         2 RES2   0.0000
    58 C27      7.8417   2.7678   3.1194   C.ar      2 RES2   0.0000
    59 C28      6.9424   1.7658   3.4889   C.ar      2 RES2   0.0000
    60 H21      6.6806   1.6815   4.3762   H         2 RES2   0.0000
    61 C29      6.4442   0.9034   2.5405   C.ar      2 RES2   0.0000
    62 H22      5.8696   0.2190   2.7995   H         2 RES2   0.0000
    63 C30      6.7827   1.0406   1.2216   C.ar      2 RES2   0.0000
    64 H23      6.4289   0.4651   0.5812   H         2 RES2   0.0000
    65 C31      7.6546   2.0396   0.8539   C.ar      2 RES2   0.0000
    66 H24      7.8860   2.1387  -0.0403   H         2 RES2   0.0000
    67 C32      8.1871   2.8947   1.7919   C.ar      2 RES2   0.0000
    68 H25      8.7819   3.5596   1.5278   H         2 RES2   0.0000
    69 C33      9.5723   5.0947   3.6632   C.ar      2 RES2   0.0000
    70 C34      9.2359   6.4238   3.7881   C.ar      2 RES2   0.0000
    71 H26      8.4596   6.6653   4.2410   H         2 RES2   0.0000
    72 C35     10.0483   7.4014   3.2432   C.ar      2 RES2   0.0000
    73 H27      9.8209   8.2989   3.3318   H         2 RES2   0.0000
    74 C36     11.2048   7.0410   2.5653   C.ar      2 RES2   0.0000
    75 H28     11.7571   7.6979   2.2068   H         2 RES2   0.0000
    76 C37     11.5350   5.7159   2.4232   C.ar      2 RES2   0.0000
    77 H29     12.3005   5.4729   1.9536   H         2 RES2   0.0000
    78 C38     10.7246   4.7386   2.9810   C.ar      2 RES2   0.0000
    79 H30     10.9553   3.8410   2.8973   H         2 RES2   0.0000
    80 C39      9.6380   2.8407   5.4399   C.ar      2 RES2   0.0000
    81 C40      9.5080   1.4689   5.5708   C.ar      2 RES2   0.0000
    82 H31      8.8965   1.0070   5.0437   H         2 RES2   0.0000
    83 C41     10.2850   0.7896   6.4831   C.ar      2 RES2   0.0000
    84 H32     10.2004  -0.1327   6.5657   H         2 RES2   0.0000
    85 C42     11.1888   1.4673   7.2723   C.ar      2 RES2   0.0000
    86 H33     11.7081   1.0054   7.8892   H         2 RES2   0.0000
    87 C43     11.3187   2.8212   7.1434   C.ar      2 RES2   0.0000
    88 H34     11.9272   3.2799   7.6763   H         2 RES2   0.0000
    89 C44     10.5622   3.5051   6.2383   C.ar      2 RES2   0.0000
    90 H35     10.6650   4.4260   6.1543   H         2 RES2   0.0000
@<TRIPOS>BOND
     1     1     5    1
     2     2    43    2
     3     3    44    2
     4     4    45    2
     5     5    12   ar
     6     6     1    1
     7     7     1    1
     8     8     1    1
     9     9     1    1
    10    10     1    1
    11    11    12    1
    12    12    13   ar
    13    13    14    1
    14    15    13   ar
    15    16    15    1
    16    17    15   ar
    17    18    17    1
    18    19     5   ar
    19    20    19    1
    20    21     6   ar
    21    22    21   ar
    22    23    22    1
    23    24    22   ar
    24    25    24    1
    25    26    24   ar
    26    27    26    1
    27    28     6   ar
    28    29    28    1
    29    30     7   ar
    30    31    30   ar
    31    32    31    1
    32    33    31   ar
    33    34    33    1
    34    35    33   ar
    35    36    35    1
    36    37     7   ar
    37    38    37    1
    38    39    11    1
    39    40    39    1
    40    41    39    1
    41    42    39    1
    42    43     8    2
    43    44     9    2
    44    45    10    2
    45    11    21    1
    46    11    30    1
    47    17    19   ar
    48    26    28   ar
    49    35    37   ar
    50    46    47    1
    51    47    48   ar
    52    48    49    1
    53    50    48   ar
    54    51    50    1
    55    52    50   ar
    56    53    52    1
    57    54    52   ar
    58    55    54    1
    59    56    47   ar
    60    57    56    1
    61    58    46    1
    62    59    58   ar
    63    60    59    1
    64    61    59   ar
    65    62    61    1
    66    63    61   ar
    67    64    63    1
    68    65    63   ar
    69    66    65    1
    70    67    58   ar
    71    68    67    1
    72    69    46    1
    73    70    69   ar
    74    71    70    1
    75    72    70   ar
    76    73    72    1
    77    74    72   ar
    78    75    74    1
    79    76    74   ar
    80    77    76    1
    81    78    69   ar
    82    79    78    1
    83    80    46    1
    84    81    80   ar
    85    82    81    1
    86    83    81   ar
    87    84    83    1
    88    85    83   ar
    89    86    85    1
    90    87    85   ar
    91    88    87    1
    92    89    80   ar
    93    90    89    1
    94    54    56   ar
    95    65    67   ar
    96    76    78   ar
    97    87    89   ar
@<TRIPOS>SUBSTRUCTURE
     1 RES1        1 GROUP             0 ****  ****    0  
     2 RES2       46 GROUP             0 ****  ****    0  
@<TRIPOS>CRYSIN
    9.0690   15.9840   28.8200   90.0000   93.3160   90.0000    14     1
