@<TRIPOS>MOLECULE
UXOHEW04
    90    97     2     0     0
SMALL
USER_CHARGES
****
Generated from the CSD

@<TRIPOS>ATOM
     1 Fe1      8.2052   3.7748  11.3170   Fe        1 RES1   0.0000
     2 S1      11.2342   5.3871  14.6132   S.2       1 RES1   0.0000
     3 S2      11.1963   0.1174  10.7684   S.2       1 RES1   0.0000
     4 S3      10.5811   6.6084   8.3552   S.2       1 RES1   0.0000
     5 N1       7.0307   5.3252  11.3959   N.ar      1 RES1   0.0000
     6 N2       7.0739   3.0161   9.9197   N.ar      1 RES1   0.0000
     7 N3       7.0432   2.8828  12.6187   N.ar      1 RES1   0.0000
     8 N4       9.3176   4.4871  12.7631   N.2       1 RES1  -1.0000
     9 N5       9.3778   2.2103  11.2109   N.2       1 RES1   0.0000
    10 N6       9.2914   4.7290   9.9952   N.2       1 RES1   0.0000
    11 C1       5.1627   3.7386  11.2926   C.3       1 RES1   0.0000
    12 C2       5.6901   5.1770  11.3309   C.ar      1 RES1   0.0000
    13 C3       4.8495   6.2868  11.3508   C.ar      1 RES1   0.0000
    14 H1       3.9104   6.1710  11.2710   H         1 RES1   0.0000
    15 C4       5.3782   7.5558  11.4862   C.ar      1 RES1   0.0000
    16 H2       4.8100   8.3163  11.5038   H         1 RES1   0.0000
    17 C5       6.7498   7.6984  11.5935   C.ar      1 RES1   0.0000
    18 H3       7.1371   8.5577  11.7138   H         1 RES1   0.0000
    19 C6       7.5437   6.5783  11.5239   C.ar      1 RES1   0.0000
    20 H4       8.4865   6.6837  11.5662   H         1 RES1   0.0000
    21 C7       5.7303   2.9976  10.0730   C.ar      1 RES1   0.0000
    22 C8       4.9189   2.2663   9.2039   C.ar      1 RES1   0.0000
    23 H5       3.9774   2.2447   9.3324   H         1 RES1   0.0000
    24 C9       5.4971   1.5702   8.1514   C.ar      1 RES1   0.0000
    25 H6       4.9567   1.0553   7.5642   H         1 RES1   0.0000
    26 C10      6.8582   1.6293   7.9652   C.ar      1 RES1   0.0000
    27 H7       7.2706   1.1736   7.2406   H         1 RES1   0.0000
    28 C11      7.6116   2.3682   8.8567   C.ar      1 RES1   0.0000
    29 H8       8.5492   2.4245   8.7194   H         1 RES1   0.0000
    30 C12      5.6964   2.9926  12.5276   C.ar      1 RES1   0.0000
    31 C13      4.8609   2.4282  13.4835   C.ar      1 RES1   0.0000
    32 H9       3.9209   2.5523  13.4282   H         1 RES1   0.0000
    33 C14      5.4055   1.6852  14.5152   C.ar      1 RES1   0.0000
    34 H10      4.8441   1.2840  15.1681   H         1 RES1   0.0000
    35 C15      6.7790   1.5358  14.5834   C.ar      1 RES1   0.0000
    36 H11      7.1751   1.0159  15.2731   H         1 RES1   0.0000
    37 C16      7.5631   2.1562  13.6328   C.ar      1 RES1   0.0000
    38 H12      8.5071   2.0696  13.6950   H         1 RES1   0.0000
    39 C17      3.6357   3.7261  11.2665   C.3       1 RES1   0.0000
    40 H13      3.3177   2.8000  11.2426   H         1 RES1   0.0000
    41 H14      3.2919   4.1692  12.0714   H         1 RES1   0.0000
    42 H15      3.3189   4.2023  10.4706   H         1 RES1   0.0000
    43 C18     10.1011   4.8666  13.5460   C.1       1 RES1   0.0000
    44 C19     10.1253   1.3251  11.0397   C.1       1 RES1   0.0000
    45 C20      9.8313   5.5025   9.3163   C.1       1 RES1   0.0000
    46 P1       8.3532   3.8223   4.2691   P.3       2 RES2   1.0000
    47 C21      7.0037   4.5061   5.2387   C.ar      2 RES2   0.0000
    48 C22      5.7584   4.7227   4.6401   C.ar      2 RES2   0.0000
    49 H16      5.6314   4.5367   3.7182   H         2 RES2   0.0000
    50 C23      4.7147   5.2080   5.3996   C.ar      2 RES2   0.0000
    51 H17      3.8694   5.3618   4.9955   H         2 RES2   0.0000
    52 C24      4.8893   5.4742   6.7490   C.ar      2 RES2   0.0000
    53 H18      4.1611   5.7971   7.2661   H         2 RES2   0.0000
    54 C25      6.1174   5.2715   7.3377   C.ar      2 RES2   0.0000
    55 H19      6.2352   5.4611   8.2624   H         2 RES2   0.0000
    56 C26      7.1788   4.7945   6.5923   C.ar      2 RES2   0.0000
    57 H20      8.0265   4.6629   7.0022   H         2 RES2   0.0000
    58 C27      7.6478   2.7632   3.0061   C.ar      2 RES2   0.0000
    59 C28      6.7452   1.7652   3.3944   C.ar      2 RES2   0.0000
    60 H21      6.4641   1.7052   4.3001   H         2 RES2   0.0000
    61 C29      6.2610   0.8648   2.4580   C.ar      2 RES2   0.0000
    62 H22      5.6669   0.1735   2.7276   H         2 RES2   0.0000
    63 C30      6.6472   0.9738   1.1200   C.ar      2 RES2   0.0000
    64 H23      6.3125   0.3628   0.4740   H         2 RES2   0.0000
    65 C31      7.5196   1.9788   0.7417   C.ar      2 RES2   0.0000
    66 H24      7.7770   2.0554  -0.1703   H         2 RES2   0.0000
    67 C32      8.0225   2.8743   1.6672   C.ar      2 RES2   0.0000
    68 H25      8.6196   3.5603   1.3936   H         2 RES2   0.0000
    69 C33      9.3868   5.1038   3.5644   C.ar      2 RES2   0.0000
    70 C34      9.0977   6.4586   3.7628   C.ar      2 RES2   0.0000
    71 H26      8.3227   6.7184   4.2461   H         2 RES2   0.0000
    72 C35      9.9614   7.4210   3.2422   C.ar      2 RES2   0.0000
    73 H27      9.7757   8.3431   3.3719   H         2 RES2   0.0000
    74 C36     11.0852   7.0362   2.5392   C.ar      2 RES2   0.0000
    75 H28     11.6729   7.6995   2.1969   H         2 RES2   0.0000
    76 C37     11.3673   5.6936   2.3260   C.ar      2 RES2   0.0000
    77 H29     12.1314   5.4422   1.8194   H         2 RES2   0.0000
    78 C38     10.5319   4.7219   2.8522   C.ar      2 RES2   0.0000
    79 H30     10.7340   3.8017   2.7305   H         2 RES2   0.0000
    80 C39      9.4116   2.8612   5.3576   C.ar      2 RES2   0.0000
    81 C40      9.2792   1.4847   5.4933   C.ar      2 RES2   0.0000
    82 H31      8.6758   1.0064   4.9359   H         2 RES2   0.0000
    83 C41     10.0321   0.8097   6.4430   C.ar      2 RES2   0.0000
    84 H32      9.9374  -0.1309   6.5395   H         2 RES2   0.0000
    85 C42     10.9152   1.4954   7.2477   C.ar      2 RES2   0.0000
    86 H33     11.4195   1.0285   7.9019   H         2 RES2   0.0000
    87 C43     11.0705   2.8669   7.1044   C.ar      2 RES2   0.0000
    88 H34     11.6887   3.3332   7.6550   H         2 RES2   0.0000
    89 C44     10.3272   3.5590   6.1586   C.ar      2 RES2   0.0000
    90 H35     10.4376   4.4973   6.0542   H         2 RES2   0.0000
@<TRIPOS>BOND
     1     1     5    1
     2     2    43    2
     3     3    44    2
     4     4    45    2
     5     5    12   ar
     6     6     1    1
     7     7     1    1
     8     8     1    1
     9     9     1    1
    10    10     1    1
    11    11    12    1
    12    12    13   ar
    13    13    14    1
    14    15    13   ar
    15    16    15    1
    16    17    15   ar
    17    18    17    1
    18    19     5   ar
    19    20    19    1
    20    21     6   ar
    21    22    21   ar
    22    23    22    1
    23    24    22   ar
    24    25    24    1
    25    26    24   ar
    26    27    26    1
    27    28     6   ar
    28    29    28    1
    29    30     7   ar
    30    31    30   ar
    31    32    31    1
    32    33    31   ar
    33    34    33    1
    34    35    33   ar
    35    36    35    1
    36    37     7   ar
    37    38    37    1
    38    39    11    1
    39    40    39    1
    40    41    39    1
    41    42    39    1
    42    43     8    2
    43    44     9    2
    44    45    10    2
    45    11    21    1
    46    11    30    1
    47    17    19   ar
    48    26    28   ar
    49    35    37   ar
    50    46    47    1
    51    47    48   ar
    52    48    49    1
    53    50    48   ar
    54    51    50    1
    55    52    50   ar
    56    53    52    1
    57    54    52   ar
    58    55    54    1
    59    56    47   ar
    60    57    56    1
    61    58    46    1
    62    59    58   ar
    63    60    59    1
    64    61    59   ar
    65    62    61    1
    66    63    61   ar
    67    64    63    1
    68    65    63   ar
    69    66    65    1
    70    67    58   ar
    71    68    67    1
    72    69    46    1
    73    70    69   ar
    74    71    70    1
    75    72    70   ar
    76    73    72    1
    77    74    72   ar
    78    75    74    1
    79    76    74   ar
    80    77    76    1
    81    78    69   ar
    82    79    78    1
    83    80    46    1
    84    81    80   ar
    85    82    81    1
    86    83    81   ar
    87    84    83    1
    88    85    83   ar
    89    86    85    1
    90    87    85   ar
    91    88    87    1
    92    89    80   ar
    93    90    89    1
    94    54    56   ar
    95    65    67   ar
    96    76    78   ar
    97    87    89   ar
@<TRIPOS>SUBSTRUCTURE
     1 RES1        1 GROUP             0 ****  ****    0  
     2 RES2       46 GROUP             0 ****  ****    0  
@<TRIPOS>CRYSIN
    8.9560   15.7745   28.4550   90.0000   94.0670   90.0000    14     1
