@<TRIPOS>MOLECULE
UYITUU
    95   103     1     0     0
SMALL
USER_CHARGES
****
Generated from the CSD

@<TRIPOS>ATOM
     1 Fe1     10.5703   5.6091   8.0497   Fe        1 RES1   2.0000
     2 B1      12.2486   3.2937   6.2389   B         1 RES1  -1.0000
     3 H1      12.9635   3.3847   6.8881   H         1 RES1   0.0000
     4 H2      12.5168   2.6395   5.5747   H         1 RES1   0.0000
     5 B2       7.8429   7.1307   9.3227   B         1 RES1  -1.0000
     6 H3       8.3797   7.9370   9.3657   H         1 RES1   0.0000
     7 H4       6.9557   7.3340   9.6556   H         1 RES1   0.0000
     8 C1       9.0917   2.9851   8.0522   C.2       1 RES1   0.0000
     9 H5       8.4014   3.3179   8.5807   H         1 RES1   0.0000
    10 C2       9.1067   1.7279   7.4942   C.2       1 RES1   0.0000
    11 H6       8.4587   1.0652   7.5655   H         1 RES1   0.0000
    12 C3      10.2987   1.6710   6.8053   C.2       1 RES1   0.0000
    13 H7      10.6071   0.9386   6.3233   H         1 RES1   0.0000
    14 C4      11.2404   6.6756   5.2985   C.2       1 RES1   0.0000
    15 H8      10.8618   7.5075   5.4687   H         1 RES1   0.0000
    16 C5      11.7385   6.2660   4.0630   C.2       1 RES1   0.0000
    17 H9      11.7641   6.7495   3.2693   H         1 RES1   0.0000
    18 C6      12.1811   4.9932   4.2814   C.2       1 RES1   0.0000
    19 H10     12.5734   4.4442   3.6420   H         1 RES1   0.0000
    20 C7       9.9558   4.5822  10.8503   C.2       1 RES1   0.0000
    21 H11     10.7050   4.0346  10.8828   H         1 RES1   0.0000
    22 C8       8.9744   4.6519  11.8275   C.2       1 RES1   0.0000
    23 H12      8.9434   4.1797  12.6284   H         1 RES1   0.0000
    24 C9       8.0654   5.5606  11.3681   C.2       1 RES1   0.0000
    25 H13      7.2861   5.8166  11.8069   H         1 RES1   0.0000
    26 C10      8.3524   5.6715   5.9989   C.2       1 RES1   0.0000
    27 H14      8.8534   5.2250   5.3561   H         1 RES1   0.0000
    28 C11      7.0401   6.0697   5.8347   C.2       1 RES1   0.0000
    29 H15      6.5020   5.9574   5.0845   H         1 RES1   0.0000
    30 C12      6.7092   6.6685   7.0289   C.2       1 RES1   0.0000
    31 H16      5.8851   7.0453   7.2309   H         1 RES1   0.0000
    32 C13     10.4408   8.5983   7.8359   C.ar      1 RES1   0.0000
    33 H17      9.6508   8.4803   7.3601   H         1 RES1   0.0000
    34 C14     10.9211   9.8911   8.0065   C.ar      1 RES1   0.0000
    35 C15     12.0878  10.0788   8.7428   C.ar      1 RES1   0.0000
    36 H18     12.4299  10.9321   8.8805   H         1 RES1   0.0000
    37 C16     12.7229   8.9723   9.2629   C.ar      1 RES1   0.0000
    38 H19     13.5010   9.0733   9.7632   H         1 RES1   0.0000
    39 C17     12.1986   7.7095   9.0388   C.ar      1 RES1   0.0000
    40 C18     10.2220  11.0942   7.4561   C.2       1 RES1   0.0000
    41 C19      8.3287  11.8906   6.2952   C.3       1 RES1   0.0000
    42 H20      8.8569  12.4239   5.6840   H         1 RES1   0.0000
    43 H21      8.0541  12.4538   7.0355   H         1 RES1   0.0000
    44 C20      7.1258  11.3488   5.5929   C.3       1 RES1   0.0000
    45 H22      7.4195  10.8027   4.8477   H         1 RES1   0.0000
    46 H23      6.6166  12.0911   5.2302   H         1 RES1   0.0000
    47 C21      6.2140  10.5182   6.4757   C.3       1 RES1   0.0000
    48 H24      6.0716  10.9875   7.3121   H         1 RES1   0.0000
    49 H25      6.6550   9.6777   6.6811   H         1 RES1   0.0000
    50 C22      4.8341  10.2196   5.8198   C.3       1 RES1   0.0000
    51 H26      4.2986   9.6820   6.4243   H         1 RES1   0.0000
    52 H27      4.3654  11.0544   5.6658   H         1 RES1   0.0000
    53 C23      4.9946   9.5028   4.5346   C.3       1 RES1   0.0000
    54 H28      5.4273  10.0774   3.8987   H         1 RES1   0.0000
    55 H29      4.1318   9.2468   4.2017   H         1 RES1   0.0000
    56 H30      5.5312   8.7178   4.6721   H         1 RES1   0.0000
    57 C24     12.8321   6.4779   9.5121   C.ar      1 RES1   0.0000
    58 C25     13.8808   6.4594  10.4182   C.ar      1 RES1   0.0000
    59 H31     14.2286   7.2558  10.7503   H         1 RES1   0.0000
    60 C26     14.4030   5.2520  10.8218   C.ar      1 RES1   0.0000
    61 H32     15.1077   5.2221  11.4293   H         1 RES1   0.0000
    62 C27     13.8664   4.0830  10.3109   C.ar      1 RES1   0.0000
    63 C28     12.7916   4.1655   9.4260   C.ar      1 RES1   0.0000
    64 H33     12.4234   3.3776   9.0974   H         1 RES1   0.0000
    65 C29     14.4177   2.7661  10.7213   C.2       1 RES1   0.0000
    66 C30     14.2427   0.4138  10.4224   C.3       1 RES1   0.0000
    67 H34     14.2894   0.3456  11.3879   H         1 RES1   0.0000
    68 H35     15.1106   0.1778  10.0580   H         1 RES1   0.0000
    69 C31     13.1919  -0.5191   9.8907   C.3       1 RES1   0.0000
    70 H36     13.5483  -1.4207   9.9139   H         1 RES1   0.0000
    71 H37     13.0315  -0.2958   8.9600   H         1 RES1   0.0000
    72 C32     11.8587  -0.5134  10.6162   C.3       1 RES1   0.0000
    73 H38     11.3025  -1.2117  10.2369   H         1 RES1   0.0000
    74 H39     12.0161  -0.7381  11.5469   H         1 RES1   0.0000
    75 C33     11.0929   0.7936  10.5615   C.3       1 RES1   0.0000
    76 H40     11.6175   1.4833  10.9938   H         1 RES1   0.0000
    77 H41     10.9741   1.0495   9.6324   H         1 RES1   0.0000
    78 C34      9.7340   0.7225  11.2273   C.3       1 RES1   0.0000
    79 H42      9.2044   0.0441  10.8016   H         1 RES1   0.0000
    80 H43      9.2935   1.5715  11.1461   H         1 RES1   0.0000
    81 H44      9.8426   0.5063  12.1564   H         1 RES1   0.0000
    82 N1      10.2043   3.6703   7.7342   N.2       1 RES1   0.0000
    83 N2      10.9418   2.8396   6.9402   N.pl3     1 RES1   0.0000
    84 N3      11.3853   5.7024   6.2032   N.2       1 RES1   0.0000
    85 N4      11.9643   4.6585   5.5592   N.pl3     1 RES1   0.0000
    86 N5       9.6589   5.4283   9.8478   N.2       1 RES1   0.0000
    87 N6       8.4824   6.0239  10.1728   N.pl3     1 RES1   0.0000
    88 N7       8.8035   6.0147   7.2084   N.2       1 RES1   0.0000
    89 N8       7.7594   6.6217   7.8500   N.pl3     1 RES1   0.0000
    90 N9      12.2666   5.3405   9.0279   N.ar      1 RES1   0.0000
    91 N10     11.0602   7.5094   8.3247   N.ar      1 RES1   0.0000
    92 O1      10.6220  12.2083   7.6199   O.2       1 RES1   0.0000
    93 O2       9.1179  10.7672   6.7894   O.3       1 RES1   0.0000
    94 O3      15.2508   2.6483  11.5893   O.2       1 RES1   0.0000
    95 O4      13.8910   1.7753  10.0332   O.3       1 RES1   0.0000
@<TRIPOS>BOND
     1     1    82    1
     2     2     3    1
     3     4     2    1
     4     5     6    1
     5     7     5    1
     6     8     9    1
     7    10     8    1
     8    11    10    1
     9    12    10    2
    10    13    12    1
    11    14    15    1
    12    16    14    1
    13    17    16    1
    14    18    16    2
    15    19    18    1
    16    20    21    1
    17    22    20    1
    18    23    22    1
    19    24    22    2
    20    25    24    1
    21    26    27    1
    22    28    26    1
    23    29    28    1
    24    30    28    2
    25    31    30    1
    26    32    33    1
    27    34    32   ar
    28    35    34   ar
    29    36    35    1
    30    37    35   ar
    31    38    37    1
    32    39    37   ar
    33    40    34    1
    34    41    42    1
    35    43    41    1
    36    44    41    1
    37    45    44    1
    38    46    44    1
    39    47    44    1
    40    48    47    1
    41    49    47    1
    42    50    47    1
    43    51    50    1
    44    52    50    1
    45    53    50    1
    46    54    53    1
    47    55    53    1
    48    56    53    1
    49    57    39    1
    50    58    57   ar
    51    59    58    1
    52    60    58   ar
    53    61    60    1
    54    62    60   ar
    55    63    62   ar
    56    64    63    1
    57    65    62    1
    58    66    67    1
    59    68    66    1
    60    69    66    1
    61    70    69    1
    62    71    69    1
    63    72    69    1
    64    73    72    1
    65    74    72    1
    66    75    72    1
    67    76    75    1
    68    77    75    1
    69    78    75    1
    70    79    78    1
    71    80    78    1
    72    81    78    1
    73    82     8    2
    74    83     2    1
    75    84     1    1
    76    85     2    1
    77    86     1    1
    78    87     5    1
    79    88     1    1
    80    89     5    1
    81    90     1    1
    82    91     1    1
    83    92    40    2
    84    93    40    1
    85    94    65    2
    86    95    65    1
    87    12    83    1
    88    14    84    2
    89    18    85    1
    90    20    86    2
    91    24    87    1
    92    26    88    2
    93    30    89    1
    94    32    91   ar
    95    39    91   ar
    96    41    93    1
    97    57    90   ar
    98    63    90   ar
    99    66    95    1
   100    82    83    1
   101    84    85    1
   102    86    87    1
   103    88    89    1
@<TRIPOS>SUBSTRUCTURE
     1 RES1        1 GROUP             0 ****  ****    0  
@<TRIPOS>CRYSIN
   30.2819   14.2215   16.6969   90.0000   97.2920   90.0000    15     1
