@<TRIPOS>MOLECULE
UYITUU01
    95   103     1     0     0
SMALL
USER_CHARGES
****
Generated from the CSD

@<TRIPOS>ATOM
     1 Fe1     10.2032   5.6179   7.9678   Fe        1 RES1   2.0000
     2 N1       9.8894   3.5407   7.5433   N.2       1 RES1   0.0000
     3 C1       8.7474   2.8725   7.7624   C.2       1 RES1   0.0000
     4 H1       8.0720   3.1381   8.3746   H         1 RES1   0.0000
     5 C2       8.6914   1.7354   6.9658   C.2       1 RES1   0.0000
     6 H2       7.9972   1.0882   6.9271   H         1 RES1   0.0000
     7 C3       9.8680   1.7562   6.2446   C.2       1 RES1   0.0000
     8 H3      10.1319   1.1098   5.6014   H         1 RES1   0.0000
     9 N2      10.5762   2.8386   6.5991   N.pl3     1 RES1   0.0000
    10 N3      11.1518   5.7387   5.9891   N.2       1 RES1   0.0000
    11 C4      11.0793   6.7254   5.0821   C.2       1 RES1   0.0000
    12 H4      10.6959   7.5787   5.2479   H         1 RES1   0.0000
    13 C5      11.6369   6.3377   3.8698   C.2       1 RES1   0.0000
    14 H5      11.7192   6.8499   3.0733   H         1 RES1   0.0000
    15 C6      12.0425   5.0380   4.0906   C.2       1 RES1   0.0000
    16 H6      12.4630   4.4765   3.4502   H         1 RES1   0.0000
    17 N4      11.7462   4.6904   5.3581   N.pl3     1 RES1   0.0000
    18 B1      11.9475   3.3142   6.0588   B         1 RES1  -1.0000
    19 H7      12.3042   2.6537   5.4129   H         1 RES1   0.0000
    20 H8      12.5935   3.4041   6.8037   H         1 RES1   0.0000
    21 N5       9.2068   5.3773   9.8981   N.2       1 RES1   0.0000
    22 C7       9.4482   4.4837  10.8713   C.2       1 RES1   0.0000
    23 H9      10.2050   3.9115  10.9043   H         1 RES1   0.0000
    24 C8       8.4373   4.5107  11.8231   C.2       1 RES1   0.0000
    25 H10      8.3685   3.9849  12.6119   H         1 RES1   0.0000
    26 C9       7.5555   5.4707  11.3699   C.2       1 RES1   0.0000
    27 H11      6.7500   5.7300  11.7998   H         1 RES1   0.0000
    28 N6       8.0282   5.9767  10.2161   N.pl3     1 RES1   0.0000
    29 N7       8.3481   6.3210   7.1547   N.2       1 RES1   0.0000
    30 C10      7.8524   6.1039   5.9331   C.2       1 RES1   0.0000
    31 H12      8.3566   5.7875   5.1928   H         1 RES1   0.0000
    32 C11      6.4973   6.4042   5.8967   C.2       1 RES1   0.0000
    33 H13      5.9095   6.3482   5.1528   H         1 RES1   0.0000
    34 C12      6.1951   6.8007   7.1756   C.2       1 RES1   0.0000
    35 H14      5.3385   7.0698   7.4824   H         1 RES1   0.0000
    36 N8       7.3048   6.7464   7.9190   N.pl3     1 RES1   0.0000
    37 B2       7.4746   7.1781   9.4006   B         1 RES1  -1.0000
    38 H15      6.6034   7.4623   9.7703   H         1 RES1   0.0000
    39 H16      8.1013   7.9424   9.4585   H         1 RES1   0.0000
    40 N9      12.0751   5.4122   9.1473   N.ar      1 RES1   0.0000
    41 C13     10.4207   8.7976   7.8531   C.ar      1 RES1   0.0000
    42 H17      9.6186   8.7216   7.3490   H         1 RES1   0.0000
    43 C14     10.9882  10.0590   8.0212   C.ar      1 RES1   0.0000
    44 C15     10.4031  11.2982   7.4197   C.2       1 RES1   0.0000
    45 C16     12.1454  10.1732   8.7798   C.ar      1 RES1   0.0000
    46 H18     12.5524  11.0216   8.9115   H         1 RES1   0.0000
    47 C17     12.6982   9.0344   9.3431   C.ar      1 RES1   0.0000
    48 H19     13.4845   9.0896   9.8754   H         1 RES1   0.0000
    49 C18     12.0804   7.8045   9.1130   C.ar      1 RES1   0.0000
    50 C19     12.6197   6.5356   9.6548   C.ar      1 RES1   0.0000
    51 O1      10.8905  12.3890   7.5494   O.2       1 RES1   0.0000
    52 O2       9.2799  11.0403   6.7445   O.3       1 RES1   0.0000
    53 C20      8.5975  12.2146   6.2080   C.3       1 RES1   0.0000
    54 H20      9.1914  12.6949   5.5780   H         1 RES1   0.0000
    55 H21      8.3556  12.8315   6.9421   H         1 RES1   0.0000
    56 C21      7.3628  11.7500   5.4973   C.3       1 RES1   0.0000
    57 H22      7.6301  11.1496   4.7576   H         1 RES1   0.0000
    58 H23      6.9142  12.5368   5.0978   H         1 RES1   0.0000
    59 C22      6.3712  11.0221   6.3715   C.3       1 RES1   0.0000
    60 H24      6.1674  11.5765   7.1656   H         1 RES1   0.0000
    61 H25      6.7737  10.1735   6.6870   H         1 RES1   0.0000
    62 C23      5.0788  10.7184   5.6214   C.3       1 RES1   0.0000
    63 H26      4.7545  11.5463   5.1862   H         1 RES1   0.0000
    64 H27      5.2633  10.0527   4.9127   H         1 RES1   0.0000
    65 C24      4.0088  10.1873   6.5282   C.3       1 RES1   0.0000
    66 H28      3.2072   9.9823   6.0033   H         1 RES1   0.0000
    67 H29      3.7912  10.8606   7.2073   H         1 RES1   0.0000
    68 H30      4.3276   9.3713   6.9671   H         1 RES1   0.0000
    69 C25     13.6208   6.5054  10.6241   C.ar      1 RES1   0.0000
    70 H31     13.9769   7.3142  10.9760   H         1 RES1   0.0000
    71 C26     14.0904   5.2801  11.0680   C.ar      1 RES1   0.0000
    72 H32     14.7656   5.2341  11.7347   H         1 RES1   0.0000
    73 C27     13.5554   4.1158  10.5211   C.ar      1 RES1   0.0000
    74 C28     14.0698   2.7887  10.9596   C.2       1 RES1   0.0000
    75 O3      14.8271   2.6513  11.8865   O.2       1 RES1   0.0000
    76 O4      13.5957   1.8106  10.2009   O.3       1 RES1   0.0000
    77 C29     13.9902   0.4514  10.5452   C.3       1 RES1   0.0000
    78 H33     13.9955   0.3407  11.5296   H         1 RES1   0.0000
    79 H34     14.9009   0.2674  10.2056   H         1 RES1   0.0000
    80 C30     13.0037  -0.5108   9.9242   C.3       1 RES1   0.0000
    81 H35     13.4024  -1.4160   9.9337   H         1 RES1   0.0000
    82 H36     12.8735  -0.2544   8.9766   H         1 RES1   0.0000
    83 C31     11.6319  -0.5805  10.5989   C.3       1 RES1   0.0000
    84 H37     11.1455  -1.3657  10.2422   H         1 RES1   0.0000
    85 H38     11.7648  -0.7260  11.5696   H         1 RES1   0.0000
    86 C32     10.7582   0.6597  10.4092   C.3       1 RES1   0.0000
    87 H39     11.2540   1.4548  10.7292   H         1 RES1   0.0000
    88 H40     10.5805   0.7835   9.4435   H         1 RES1   0.0000
    89 C33      9.4353   0.5790  11.1447   C.3       1 RES1   0.0000
    90 H41      8.8981   1.3729  10.9410   H         1 RES1   0.0000
    91 H42      9.5999   0.5362  12.1099   H         1 RES1   0.0000
    92 H43      8.9506  -0.2243  10.8592   H         1 RES1   0.0000
    93 C34     12.5414   4.2314   9.5709   C.ar      1 RES1   0.0000
    94 H44     12.1658   3.4372   9.2083   H         1 RES1   0.0000
    95 N10     10.9590   7.6913   8.3741   N.ar      1 RES1   0.0000
@<TRIPOS>BOND
     1     1     2    1
     2     2     3    2
     3     3     4    1
     4     5     3    1
     5     6     5    1
     6     7     5    2
     7     8     7    1
     8     9     2    1
     9    10     1    1
    10    11    10    2
    11    12    11    1
    12    13    11    1
    13    14    13    1
    14    15    13    2
    15    16    15    1
    16    17    10    1
    17    18     9    1
    18    19    18    1
    19    20    18    1
    20    21     1    1
    21    22    21    2
    22    23    22    1
    23    24    22    1
    24    25    24    1
    25    26    24    2
    26    27    26    1
    27    28    21    1
    28    29     1    1
    29    30    29    2
    30    31    30    1
    31    32    30    1
    32    33    32    1
    33    34    32    2
    34    35    34    1
    35    36    29    1
    36    37    28    1
    37    38    37    1
    38    39    37    1
    39    40     1    1
    40    41    42    1
    41    43    41   ar
    42    44    43    1
    43    45    43   ar
    44    46    45    1
    45    47    45   ar
    46    48    47    1
    47    49    47   ar
    48    50    40   ar
    49    51    44    2
    50    52    44    1
    51    53    52    1
    52    54    53    1
    53    55    53    1
    54    56    53    1
    55    57    56    1
    56    58    56    1
    57    59    56    1
    58    60    59    1
    59    61    59    1
    60    62    59    1
    61    63    62    1
    62    64    62    1
    63    65    62    1
    64    66    65    1
    65    67    65    1
    66    68    65    1
    67    69    50   ar
    68    70    69    1
    69    71    69   ar
    70    72    71    1
    71    73    71   ar
    72    74    73    1
    73    75    74    2
    74    76    74    1
    75    77    76    1
    76    78    77    1
    77    79    77    1
    78    80    77    1
    79    81    80    1
    80    82    80    1
    81    83    80    1
    82    84    83    1
    83    85    83    1
    84    86    83    1
    85    87    86    1
    86    88    86    1
    87    89    86    1
    88    90    89    1
    89    91    89    1
    90    92    89    1
    91    93    40   ar
    92    94    93    1
    93    95     1    1
    94     7     9    1
    95    15    17    1
    96    17    18    1
    97    26    28    1
    98    34    36    1
    99    36    37    1
   100    41    95   ar
   101    49    50    1
   102    49    95   ar
   103    73    93   ar
@<TRIPOS>SUBSTRUCTURE
     1 RES1        1 GROUP             0 ****  ****    0  
@<TRIPOS>CRYSIN
   30.8770   14.3754   16.9723   90.0000  100.7263   90.0000    15     1
