@<TRIPOS>MOLECULE
UYIVAC01
    89    97     1     0     0
SMALL
USER_CHARGES
****
Generated from the CSD

@<TRIPOS>ATOM
     1 Fe1      2.0324   1.6971   8.8154   Fe        1 RES1   2.0000
     2 B1       4.8243   0.1702   7.4751   B         1 RES1  -1.0000
     3 H1       5.6910  -0.0983   7.1345   H         1 RES1   0.0000
     4 H2       4.2321  -0.5956   7.4325   H         1 RES1   0.0000
     5 N1       4.2597   1.3162   6.6169   N.pl3     1 RES1   0.0000
     6 N2       3.0768   1.9197   6.8976   N.2       1 RES1   0.0000
     7 C1       4.7278   1.7780   5.4506   C.2       1 RES1   0.0000
     8 H3       5.5213   1.5139   5.0449   H         1 RES1   0.0000
     9 C2       3.8424   2.7110   4.9481   C.2       1 RES1   0.0000
    10 H4       3.9094   3.1907   4.1541   H         1 RES1   0.0000
    11 C3       2.8404   2.7688   5.8893   C.2       1 RES1   0.0000
    12 H5       2.0955   3.3242   5.8335   H         1 RES1   0.0000
    13 N3       4.9611   0.6466   8.9420   N.pl3     1 RES1   0.0000
    14 N4       3.9037   1.1093   9.6643   N.2       1 RES1   0.0000
    15 C4       6.0531   0.6440   9.7063   C.2       1 RES1   0.0000
    16 H6       6.9029   0.3770   9.4384   H         1 RES1   0.0000
    17 C5       5.7150   1.0988  10.9437   C.2       1 RES1   0.0000
    18 H7       6.2740   1.1926  11.6804   H         1 RES1   0.0000
    19 C6       4.3729   1.3892  10.8799   C.2       1 RES1   0.0000
    20 H8       3.8672   1.7325  11.5816   H         1 RES1   0.0000
    21 B2       0.0635   3.8496  10.6843   B         1 RES1  -1.0000
    22 H9      -0.5552   3.6982   9.9541   H         1 RES1   0.0000
    23 H10     -0.3473   4.4684  11.3087   H         1 RES1   0.0000
    24 N5       0.3781   2.5091  11.3976   N.pl3     1 RES1   0.0000
    25 N6       1.0454   1.5042  10.7796   N.2       1 RES1   0.0000
    26 C7       0.1170   2.1506  12.6631   C.2       1 RES1   0.0000
    27 H11     -0.3296   2.6743  13.2878   H         1 RES1   0.0000
    28 C8       0.6117   0.8949  12.8920   C.2       1 RES1   0.0000
    29 H12      0.5692   0.3975  13.6762   H         1 RES1   0.0000
    30 C9       1.1882   0.5382  11.6970   C.2       1 RES1   0.0000
    31 H13      1.6217  -0.2699  11.5448   H         1 RES1   0.0000
    32 N7       1.3865   4.4451  10.1418   N.pl3     1 RES1   0.0000
    33 N8       2.1694   3.7877   9.2470   N.2       1 RES1   0.0000
    34 C10      1.9306   5.6289  10.4263   C.2       1 RES1   0.0000
    35 H14      1.5800   6.2625  11.0106   H         1 RES1   0.0000
    36 C11      3.0880   5.7535   9.7180   C.2       1 RES1   0.0000
    37 H15      3.6721   6.4767   9.7197   H         1 RES1   0.0000
    38 C12      3.2145   4.5849   8.9944   C.2       1 RES1   0.0000
    39 H16      3.9161   4.3818   8.4204   H         1 RES1   0.0000
    40 N9       1.3607  -0.3855   8.3891   N.ar      1 RES1   0.0000
    41 C13      1.9624  -1.4679   8.8887   C.ar      1 RES1   0.0000
    42 H17      2.7298  -1.3569   9.4033   H         1 RES1   0.0000
    43 C14      1.4850  -2.7573   8.6677   C.ar      1 RES1   0.0000
    44 C15      2.1734  -3.9513   9.2196   C.2       1 RES1   0.0000
    45 O1       1.7683  -5.0586   9.1186   O.2       1 RES1   0.0000
    46 O2       3.3083  -3.6357   9.8175   O.3       1 RES1   0.0000
    47 C16      4.1237  -4.7398  10.3024   C.3       1 RES1   0.0000
    48 H18      3.6144  -5.2723  10.9336   H         1 RES1   0.0000
    49 H19      4.3796  -5.3090   9.5606   H         1 RES1   0.0000
    50 C17      5.2902  -4.2249  10.9386   C.3       1 RES1   0.0000
    51 H20      4.9968  -3.8347  11.7758   H         1 RES1   0.0000
    52 H21      5.8370  -4.9921  11.1697   H         1 RES1   0.0000
    53 C18      6.1415  -3.3007  10.3526   C.3       1 RES1   0.0000
    54 H22      5.6007  -2.5247  10.1366   H         1 RES1   0.0000
    55 H23      6.4275  -3.6821   9.5071   H         1 RES1   0.0000
    56 C19      7.3428  -2.8034  11.0173   C.3       1 RES1   0.0000
    57 H24      7.7887  -2.1740  10.4447   H         1 RES1   0.0000
    58 H25      7.1000  -2.3706  11.8395   H         1 RES1   0.0000
    59 H26      7.9333  -3.5383  11.2065   H         1 RES1   0.0000
    60 C20      0.3402  -2.9109   7.9050   C.ar      1 RES1   0.0000
    61 H27     -0.0112  -3.7584   7.7507   H         1 RES1   0.0000
    62 C21     -0.2701  -1.8088   7.3818   C.ar      1 RES1   0.0000
    63 H28     -1.0359  -1.8983   6.8632   H         1 RES1   0.0000
    64 C22      0.2639  -0.5498   7.6299   C.ar      1 RES1   0.0000
    65 C23     -0.3300   0.6879   7.0955   C.ar      1 RES1   0.0000
    66 C24     -1.3309   0.7000   6.1220   C.ar      1 RES1   0.0000
    67 H29     -1.6591  -0.0998   5.7782   H         1 RES1   0.0000
    68 C25     -1.8267   1.8940   5.6778   C.ar      1 RES1   0.0000
    69 H30     -2.4885   1.9129   5.0248   H         1 RES1   0.0000
    70 C26     -1.3346   3.0748   6.2089   C.ar      1 RES1   0.0000
    71 C27     -1.8561   4.4024   5.7851   C.2       1 RES1   0.0000
    72 O3      -2.6095   4.5095   4.8404   O.2       1 RES1   0.0000
    73 O4      -1.4322   5.3747   6.5026   O.3       1 RES1   0.0000
    74 C28     -1.7878   6.7510   6.1885   C.3       1 RES1   0.0000
    75 H31     -2.6603   6.9666   6.5568   H         1 RES1   0.0000
    76 H32     -1.8169   6.8801   5.2274   H         1 RES1   0.0000
    77 C29     -0.6082   7.7324   6.8733   C.3       1 RES1   0.0000
    78 H33     -1.0285   8.5700   7.1228   H         1 RES1   0.0000
    79 H34     -0.3106   7.3070   7.6937   H         1 RES1   0.0000
    80 C30      0.6473   8.0698   6.0445   C.3       1 RES1   0.0000
    81 H35      0.4002   8.2062   5.1152   H         1 RES1   0.0000
    82 H36      1.0500   8.8869   6.3743   H         1 RES1   0.0000
    83 C31      1.5679   7.0033   6.1449   C.3       1 RES1   0.0000
    84 H37      2.3522   7.2072   5.6292   H         1 RES1   0.0000
    85 H38      1.8139   6.8772   7.0642   H         1 RES1   0.0000
    86 H39      1.1665   6.1979   5.8084   H         1 RES1   0.0000
    87 C32     -0.3244   2.9969   7.1636   C.ar      1 RES1   0.0000
    88 H40      0.0152   3.7862   7.5179   H         1 RES1   0.0000
    89 N10      0.1769   1.8340   7.5933   N.ar      1 RES1   0.0000
@<TRIPOS>BOND
     1     1     6    1
     2     2     3    1
     3     4     2    1
     4     5     2    1
     5     6     5    1
     6     7     5    1
     7     8     7    1
     8     9     7    2
     9    10     9    1
    10    11     6    2
    11    12    11    1
    12    13     2    1
    13    14     1    1
    14    15    13    1
    15    16    15    1
    16    17    15    2
    17    18    17    1
    18    19    14    2
    19    20    19    1
    20    21    22    1
    21    23    21    1
    22    24    21    1
    23    25     1    1
    24    26    24    1
    25    27    26    1
    26    28    26    2
    27    29    28    1
    28    30    25    2
    29    31    30    1
    30    32    21    1
    31    33     1    1
    32    34    32    1
    33    35    34    1
    34    36    34    2
    35    37    36    1
    36    38    33    2
    37    39    38    1
    38    40     1    1
    39    41    40   ar
    40    42    41    1
    41    43    41   ar
    42    44    43    1
    43    45    44    2
    44    46    44    1
    45    47    46    1
    46    48    47    1
    47    49    47    1
    48    50    47    1
    49    51    50    1
    50    52    50    1
    51    53    50    1
    52    54    53    1
    53    55    53    1
    54    56    53    1
    55    57    56    1
    56    58    56    1
    57    59    56    1
    58    60    43   ar
    59    61    60    1
    60    62    60   ar
    61    63    62    1
    62    64    40   ar
    63    65    64    1
    64    66    65   ar
    65    67    66    1
    66    68    66   ar
    67    69    68    1
    68    70    68   ar
    69    71    70    1
    70    72    71    2
    71    73    71    1
    72    74    73    1
    73    75    74    1
    74    76    74    1
    75    77    74    1
    76    78    77    1
    77    79    77    1
    78    80    77    1
    79    81    80    1
    80    82    80    1
    81    83    80    1
    82    84    83    1
    83    85    83    1
    84    86    83    1
    85    87    70   ar
    86    88    87    1
    87    89     1    1
    88     9    11    1
    89    13    14    1
    90    17    19    1
    91    24    25    1
    92    28    30    1
    93    32    33    1
    94    36    38    1
    95    62    64   ar
    96    65    89   ar
    97    87    89   ar
@<TRIPOS>SUBSTRUCTURE
     1 RES1        1 GROUP             0 ****  ****    0  
@<TRIPOS>CRYSIN
   29.8345   14.6697   17.0434   90.0000  100.7610   90.0000    15     1
