@<TRIPOS>MOLECULE
UYOTEJ
    77    84     1     0     0
SMALL
NO_CHARGES
****
Generated from the CSD

@<TRIPOS>ATOM
     1 Fe1      3.6021   7.6510   7.6665   Fe        1 RES1   0.0000
     2 P1       5.5469   6.7552   8.0461   P.3       1 RES1   0.0000
     3 P2       4.5629   8.7676   6.1301   P.3       1 RES1   0.0000
     4 P3       1.7523   7.9257   6.5407   P.3       1 RES1   0.0000
     5 C1       6.7221   7.1674   6.6508   C.3       1 RES1   0.0000
     6 H1       7.3988   7.8159   6.9690   H         1 RES1   0.0000
     7 H2       7.1949   6.3475   6.3632   H         1 RES1   0.0000
     8 C2       5.9631   7.7647   5.4602   C.3       1 RES1   0.0000
     9 H3       5.6171   7.0411   4.8793   H         1 RES1   0.0000
    10 H4       6.5660   8.3364   4.9234   H         1 RES1   0.0000
    11 C3       3.4180   9.1594   4.7307   C.3       1 RES1   0.0000
    12 H5       3.1057  10.0967   4.8045   H         1 RES1   0.0000
    13 H6       3.8951   9.0601   3.8689   H         1 RES1   0.0000
    14 C4       2.2187   8.2086   4.7729   C.3       1 RES1   0.0000
    15 H7       2.4540   7.3480   4.3444   H         1 RES1   0.0000
    16 H8       1.4553   8.6027   4.2811   H         1 RES1   0.0000
    17 C5       6.5194   7.1163   9.5707   C.ar      1 RES1   0.0000
    18 C6       6.1236   6.5055  10.7609   C.ar      1 RES1   0.0000
    19 H9       5.4306   5.8555  10.7344   H         1 RES1   0.0000
    20 C7       6.7004   6.8109  11.9691   C.ar      1 RES1   0.0000
    21 H10      6.4001   6.3851  12.7628   H         1 RES1   0.0000
    22 C8       7.7198   7.7422  12.0266   C.ar      1 RES1   0.0000
    23 H11      8.1221   7.9588  12.8606   H         1 RES1   0.0000
    24 C9       8.1470   8.3470  10.8839   C.ar      1 RES1   0.0000
    25 H12      8.8540   8.9804  10.9261   H         1 RES1   0.0000
    26 C10      7.5539   8.0491   9.6416   C.ar      1 RES1   0.0000
    27 H13      7.8586   8.4824   8.8536   H         1 RES1   0.0000
    28 C11      5.5467   4.9122   8.0885   C.ar      1 RES1   0.0000
    29 C12      4.3690   4.1915   7.9050   C.ar      1 RES1   0.0000
    30 H14      3.5492   4.6534   7.7742   H         1 RES1   0.0000
    31 C13      4.3842   2.7939   7.9127   C.ar      1 RES1   0.0000
    32 H15      3.5763   2.3094   7.7934   H         1 RES1   0.0000
    33 C14      5.5759   2.1168   8.0950   C.ar      1 RES1   0.0000
    34 H16      5.5889   1.1675   8.0829   H         1 RES1   0.0000
    35 C15      6.7568   2.8255   8.2971   C.ar      1 RES1   0.0000
    36 H17      7.5723   2.3591   8.4357   H         1 RES1   0.0000
    37 C16      6.7449   4.2066   8.2969   C.ar      1 RES1   0.0000
    38 H18      7.5539   4.6835   8.4395   H         1 RES1   0.0000
    39 C17      5.3601  10.3916   6.4123   C.ar      1 RES1   0.0000
    40 C18      5.9034  11.1002   5.3417   C.ar      1 RES1   0.0000
    41 H19      5.8546  10.7406   4.4632   H         1 RES1   0.0000
    42 C19      6.5172  12.3279   5.5532   C.ar      1 RES1   0.0000
    43 H20      6.9032  12.7988   4.8237   H         1 RES1   0.0000
    44 C20      6.5649  12.8650   6.8262   C.ar      1 RES1   0.0000
    45 H21      6.9715  13.7120   6.9671   H         1 RES1   0.0000
    46 C21      6.0260  12.1759   7.8950   C.ar      1 RES1   0.0000
    47 H22      6.0682  12.5445   8.7693   H         1 RES1   0.0000
    48 C22      5.4176  10.9362   7.6868   C.ar      1 RES1   0.0000
    49 H23      5.0424  10.4638   8.4203   H         1 RES1   0.0000
    50 C23      0.6094   9.3279   6.9128   C.ar      1 RES1   0.0000
    51 C24      1.1256  10.4442   7.5620   C.ar      1 RES1   0.0000
    52 H24      2.0452  10.4668   7.8011   H         1 RES1   0.0000
    53 C25      0.3036  11.5290   7.8655   C.ar      1 RES1   0.0000
    54 H25      0.6636  12.2888   8.3072   H         1 RES1   0.0000
    55 C26     -1.0367  11.4989   7.5231   C.ar      1 RES1   0.0000
    56 H26     -1.6006  12.2331   7.7397   H         1 RES1   0.0000
    57 C27     -1.5550  10.3946   6.8655   C.ar      1 RES1   0.0000
    58 H27     -2.4724  10.3795   6.6182   H         1 RES1   0.0000
    59 C28     -0.7461   9.3129   6.5645   C.ar      1 RES1   0.0000
    60 H28     -1.1115   8.5561   6.1178   H         1 RES1   0.0000
    61 C29      0.6246   6.4889   6.4468   C.ar      1 RES1   0.0000
    62 C30      0.1540   5.9368   5.2606   C.ar      1 RES1   0.0000
    63 H29      0.3752   6.3490   4.4345   H         1 RES1   0.0000
    64 C31     -0.6311   4.7918   5.2627   C.ar      1 RES1   0.0000
    65 H30     -0.9347   4.4232   4.4422   H         1 RES1   0.0000
    66 C32     -0.9749   4.1870   6.4590   C.ar      1 RES1   0.0000
    67 H31     -1.5106   3.4032   6.4629   H         1 RES1   0.0000
    68 C33     -0.5314   4.7317   7.6458   C.ar      1 RES1   0.0000
    69 H32     -0.7699   4.3254   8.4721   H         1 RES1   0.0000
    70 C34      0.2592   5.8691   7.6362   C.ar      1 RES1   0.0000
    71 H33      0.5574   6.2331   8.4606   H         1 RES1   0.0000
    72 B1       2.8172   7.7843   9.6167   B         1 RES1   0.0000
    73 H34      3.6436   6.6950   6.6910   H         1 RES1   0.0000
    74 H35      2.9387   6.8154   8.8440   H         1 RES1   0.0000
    75 H36      3.4050   8.6057   8.9226   H         1 RES1   0.0000
    76 H37      3.3725   7.6128  10.5791   H         1 RES1   0.0000
    77 H38      1.7133   8.0641   9.7892   H         1 RES1   0.0000
@<TRIPOS>BOND
     1     1     2    1
     2     2     5    1
     3     3     1    1
     4     4     1    1
     5     5     6    1
     6     7     5    1
     7     8     3    1
     8     9     8    1
     9    10     8    1
    10    11     3    1
    11    12    11    1
    12    13    11    1
    13    14     4    1
    14    15    14    1
    15    16    14    1
    16    17     2    1
    17    18    17   ar
    18    19    18    1
    19    20    18   ar
    20    21    20    1
    21    22    20   ar
    22    23    22    1
    23    24    22   ar
    24    25    24    1
    25    26    17   ar
    26    27    26    1
    27    28     2    1
    28    29    28   ar
    29    30    29    1
    30    31    29   ar
    31    32    31    1
    32    33    31   ar
    33    34    33    1
    34    35    33   ar
    35    36    35    1
    36    37    28   ar
    37    38    37    1
    38    39     3    1
    39    40    39   ar
    40    41    40    1
    41    42    40   ar
    42    43    42    1
    43    44    42   ar
    44    45    44    1
    45    46    44   ar
    46    47    46    1
    47    48    39   ar
    48    49    48    1
    49    50     4    1
    50    51    50   ar
    51    52    51    1
    52    53    51   ar
    53    54    53    1
    54    55    53   ar
    55    56    55    1
    56    57    55   ar
    57    58    57    1
    58    59    50   ar
    59    60    59    1
    60    61     4    1
    61    62    61   ar
    62    63    62    1
    63    64    62   ar
    64    65    64    1
    65    66    64   ar
    66    67    66    1
    67    68    66   ar
    68    69    68    1
    69    70    61   ar
    70    71    70    1
    71    72    74    1
    72    73     1    1
    73    74     1    1
    74    75     1    1
    75    76    72    1
    76    77    72    1
    77     5     8    1
    78    11    14    1
    79    24    26   ar
    80    35    37   ar
    81    46    48   ar
    82    57    59   ar
    83    68    70   ar
    84    72    75    1
@<TRIPOS>SUBSTRUCTURE
     1 RES1        1 GROUP             0 ****  ****    0  
@<TRIPOS>CRYSIN
   10.8439   15.0450   19.1720   90.0000   90.0000   90.0000    19     1
