@<TRIPOS>MOLECULE
UYULOS
    95   100     1     0     0
SMALL
NO_CHARGES
****
Generated from the CSD

@<TRIPOS>ATOM
     1 Fe1      2.5920   3.5591   8.7041   Fe        1 RES1   0.0000
     2 Si1      4.7466   1.8498  10.1103   Si        1 RES1   0.0000
     3 Si2      2.1353   3.5893   5.6412   Si        1 RES1   0.0000
     4 N1       2.8323   4.4244   6.9680   N.2       1 RES1   0.0000
     5 N2       3.0744   1.9853   9.7578   N.2       1 RES1   0.0000
     6 C1       3.4307   5.7053   6.8296   C.ar      1 RES1   0.0000
     7 C2       2.0853   1.1623  10.3681   C.ar      1 RES1   0.0000
     8 C3       4.8180   5.8398   6.5503   C.ar      1 RES1   0.0000
     9 C4       1.6058  -0.0025   9.7181   C.ar      1 RES1   0.0000
    10 C5       2.6546   6.8782   7.0095   C.ar      1 RES1   0.0000
    11 C6       1.5305   1.5230  11.6222   C.ar      1 RES1   0.0000
    12 C7       5.3937   7.1090   6.5470   C.ar      1 RES1   0.0000
    13 H1       6.3221   7.1973   6.3657   H         1 RES1   0.0000
    14 C8       2.0386   2.7149  12.4079   C.3       1 RES1   0.0000
    15 H2       2.8266   3.0846  11.9158   H         1 RES1   0.0000
    16 C9       4.7345   4.6302   9.8772   C.2       1 RES1   0.0000
    17 H3       5.2101   4.8498   9.0846   H         1 RES1   0.0000
    18 C10      3.6051   5.3124  10.1215   C.2       1 RES1   0.0000
    19 H4       3.0973   5.1261  10.9024   H         1 RES1   0.0000
    20 H5       3.3135   5.9817   9.5137   H         1 RES1   0.0000
    21 C11      1.1445   6.8292   7.2083   C.3       1 RES1   0.0000
    22 H6       0.8519   5.8793   7.0969   H         1 RES1   0.0000
    23 C12      0.5709  -0.7353  10.3023   C.ar      1 RES1   0.0000
    24 H7       0.2407  -1.5078   9.8588   H         1 RES1   0.0000
    25 C13      5.3067   3.5621  10.7363   C.3       1 RES1   0.0000
    26 H8       5.0062   3.6897  11.6709   H         1 RES1   0.0000
    27 H9       6.2952   3.6156  10.7201   H         1 RES1   0.0000
    28 C14      5.6734   4.6361   6.1970   C.3       1 RES1   0.0000
    29 H10      5.1932   3.8179   6.5132   H         1 RES1   0.0000
    30 C15      0.5023   0.7551  12.1680   C.ar      1 RES1   0.0000
    31 H11      0.1301   1.0040  13.0058   H         1 RES1   0.0000
    32 C16      0.3844   2.6114   7.6025   C.2       1 RES1   0.0000
    33 H12      0.5378   1.6810   7.7174   H         1 RES1   0.0000
    34 C17      0.1981   3.3441   8.7129   C.2       1 RES1   0.0000
    35 H13      0.0414   4.2786   8.6447   H         1 RES1   0.0000
    36 H14      0.2231   2.9277   9.5665   H         1 RES1   0.0000
    37 C18      3.2800   8.1267   7.0067   C.ar      1 RES1   0.0000
    38 H15      2.7608   8.9097   7.1479   H         1 RES1   0.0000
    39 C19      4.6440   8.2423   6.8014   C.ar      1 RES1   0.0000
    40 H16      5.0621   9.0947   6.8351   H         1 RES1   0.0000
    41 C20      0.0141  -0.3599  11.5155   C.ar      1 RES1   0.0000
    42 H17     -0.6961  -0.8647  11.8941   H         1 RES1   0.0000
    43 C21      7.0644   4.6421   6.8470   C.3       1 RES1   0.0000
    44 H18      7.5901   5.3867   6.4869   H         1 RES1   0.0000
    45 H19      7.5198   3.7965   6.6520   H         1 RES1   0.0000
    46 H20      6.9714   4.7469   7.8169   H         1 RES1   0.0000
    47 C22      0.7406   7.2813   8.6119   C.3       1 RES1   0.0000
    48 H21      1.1574   6.6943   9.2768   H         1 RES1   0.0000
    49 H22     -0.2343   7.2363   8.7017   H         1 RES1   0.0000
    50 H23      1.0397   8.2033   8.7568   H         1 RES1   0.0000
    51 C23      2.2344  -0.4812   8.4213   C.3       1 RES1   0.0000
    52 H24      2.6216   0.3177   7.9612   H         1 RES1   0.0000
    53 C24      0.3710   3.1300   6.2103   C.3       1 RES1   0.0000
    54 H25     -0.2105   3.9297   6.1612   H         1 RES1   0.0000
    55 H26     -0.0024   2.4413   5.6049   H         1 RES1   0.0000
    56 C25      5.1515   0.5986  11.4375   C.3       1 RES1   0.0000
    57 H27      5.3508   1.0648  12.2761   H         1 RES1   0.0000
    58 H28      5.9313   0.0722  11.1631   H         1 RES1   0.0000
    59 H29      4.3850   0.0025  11.5692   H         1 RES1   0.0000
    60 C26      1.9863   4.6482   4.1068   C.3       1 RES1   0.0000
    61 H30      2.0475   5.5941   4.3555   H         1 RES1   0.0000
    62 H31      1.1226   4.4789   3.6758   H         1 RES1   0.0000
    63 H32      2.7106   4.4263   3.4852   H         1 RES1   0.0000
    64 C27      5.7452   1.5179   8.5679   C.3       1 RES1   0.0000
    65 H33      5.5311   0.6247   8.2261   H         1 RES1   0.0000
    66 H34      6.7006   1.5659   8.7807   H         1 RES1   0.0000
    67 H35      5.5279   2.1888   7.8874   H         1 RES1   0.0000
    68 C28      3.0127   1.9869   5.2490   C.3       1 RES1   0.0000
    69 H36      3.9033   2.1817   4.8895   H         1 RES1   0.0000
    70 H37      2.4950   1.4852   4.5851   H         1 RES1   0.0000
    71 H38      3.0997   1.4536   6.0664   H         1 RES1   0.0000
    72 C29      5.8310   4.5263   4.6739   C.3       1 RES1   0.0000
    73 H39      4.9455   4.4801   4.2565   H         1 RES1   0.0000
    74 H40      6.3379   3.7167   4.4555   H         1 RES1   0.0000
    75 H41      6.3099   5.3124   4.3377   H         1 RES1   0.0000
    76 C30      0.4042   7.6752   6.1595   C.3       1 RES1   0.0000
    77 H42      0.5909   8.6247   6.3147   H         1 RES1   0.0000
    78 H43     -0.5600   7.5158   6.2324   H         1 RES1   0.0000
    79 H44      0.7097   7.4246   5.2627   H         1 RES1   0.0000
    80 C31      1.2429  -1.1380   7.4522   C.3       1 RES1   0.0000
    81 H45      0.9297  -1.9861   7.8303   H         1 RES1   0.0000
    82 H46      1.6871  -1.3066   6.5951   H         1 RES1   0.0000
    83 H47      0.4787  -0.5407   7.3121   H         1 RES1   0.0000
    84 C32      1.0057   3.8345  12.5261   C.3       1 RES1   0.0000
    85 H48      0.7407   4.1304  11.6302   H         1 RES1   0.0000
    86 H49      1.3953   4.5880  13.0170   H         1 RES1   0.0000
    87 H50      0.2185   3.5035  13.0070   H         1 RES1   0.0000
    88 C33      3.3870  -1.4556   8.7058   C.3       1 RES1   0.0000
    89 H51      4.0342  -1.0297   9.3060   H         1 RES1   0.0000
    90 H52      3.8292  -1.6932   7.8642   H         1 RES1   0.0000
    91 H53      3.0331  -2.2657   9.1289   H         1 RES1   0.0000
    92 C34      2.5218   2.2996  13.8045   C.3       1 RES1   0.0000
    93 H54      1.7552   2.0123  14.3433   H         1 RES1   0.0000
    94 H55      2.9591   3.0615  14.2388   H         1 RES1   0.0000
    95 H56      3.1593   1.5598  13.7230   H         1 RES1   0.0000
@<TRIPOS>BOND
     1     1     4    1
     2     2     5    1
     3     3     4    1
     4     4     6    1
     5     5     1    1
     6     6     8   ar
     7     7     5    1
     8     8    12   ar
     9     9     7   ar
    10    10     6   ar
    11    11     7   ar
    12    12    13    1
    13    14    11    1
    14    15    14    1
    15    16     1   un
    16    17    16    1
    17    18     1   un
    18    19    18    1
    19    20    18    1
    20    21    10    1
    21    22    21    1
    22    23     9   ar
    23    24    23    1
    24    25     2    1
    25    26    25    1
    26    27    25    1
    27    28     8    1
    28    29    28    1
    29    30    11   ar
    30    31    30    1
    31    32     1   un
    32    33    32    1
    33    34     1   un
    34    35    34    1
    35    36    34    1
    36    37    10   ar
    37    38    37    1
    38    39    12   ar
    39    40    39    1
    40    41    23   ar
    41    42    41    1
    42    43    28    1
    43    44    43    1
    44    45    43    1
    45    46    43    1
    46    47    21    1
    47    48    47    1
    48    49    47    1
    49    50    47    1
    50    51     9    1
    51    52    51    1
    52    53     3    1
    53    54    53    1
    54    55    53    1
    55    56     2    1
    56    57    56    1
    57    58    56    1
    58    59    56    1
    59    60     3    1
    60    61    60    1
    61    62    60    1
    62    63    60    1
    63    64     2    1
    64    65    64    1
    65    66    64    1
    66    67    64    1
    67    68     3    1
    68    69    68    1
    69    70    68    1
    70    71    68    1
    71    72    28    1
    72    73    72    1
    73    74    72    1
    74    75    72    1
    75    76    21    1
    76    77    76    1
    77    78    76    1
    78    79    76    1
    79    80    51    1
    80    81    80    1
    81    82    80    1
    82    83    80    1
    83    84    14    1
    84    85    84    1
    85    86    84    1
    86    87    84    1
    87    88    51    1
    88    89    88    1
    89    90    88    1
    90    91    88    1
    91    92    14    1
    92    93    92    1
    93    94    92    1
    94    95    92    1
    95    16    18    2
    96    16    25    1
    97    30    41   ar
    98    32    34    2
    99    32    53    1
   100    37    39   ar
@<TRIPOS>SUBSTRUCTURE
     1 RES1        1 GROUP             0 ****  ****    0  
@<TRIPOS>CRYSIN
   15.7788   13.0161   17.0238   90.0000   97.3700   90.0000   231     1
