@<TRIPOS>MOLECULE
UZAXUQ
    97   108     1     0     0
SMALL
NO_CHARGES
****
Generated from the CSD

@<TRIPOS>ATOM
     1 Fe1      4.8224  11.4285   4.6060   Fe        1 RES1   0.0000
     2 S1       1.9903  13.3595   7.9514   S.2       1 RES1   0.0000
     3 N1       3.8434  12.4987   6.1076   N.2       1 RES1   0.0000
     4 N2       2.8752  10.4893   4.1583   N.ar      1 RES1   0.0000
     5 N3       3.8563  12.7492   3.1662   N.2       1 RES1   0.0000
     6 N4       4.1195  14.0020   2.6687   N.2       1 RES1   0.0000
     7 N5       2.0136  13.4996   2.2864   N.pl3     1 RES1   0.0000
     8 N6       0.6425  13.4939   1.9649   N.2       1 RES1   0.0000
     9 N7       1.8114  16.4961   1.8037   N.ar      1 RES1   0.0000
    10 C1       3.0744  12.8548   6.8666   C.1       1 RES1   0.0000
    11 C2       2.4666   9.3163   4.6346   C.ar      1 RES1   0.0000
    12 H1       3.0482   8.8319   5.1753   H         1 RES1   0.0000
    13 C3       1.2315   8.7897   4.3665   C.ar      1 RES1   0.0000
    14 H2       0.9793   7.9680   4.7184   H         1 RES1   0.0000
    15 C4       0.3835   9.4934   3.5752   C.ar      1 RES1   0.0000
    16 H3      -0.4601   9.1565   3.3799   H         1 RES1   0.0000
    17 C5       0.7751  10.7062   3.0612   C.ar      1 RES1   0.0000
    18 H4       0.2088  11.1931   2.5075   H         1 RES1   0.0000
    19 C6       2.0240  11.1867   3.3836   C.ar      1 RES1   0.0000
    20 C7       2.6009  12.4562   2.9396   C.2       1 RES1   0.0000
    21 C8       3.0076  14.4447   2.1307   C.2       1 RES1   0.0000
    22 C9       2.9182  15.8008   1.5587   C.ar      1 RES1   0.0000
    23 C10      3.9947  16.3016   0.8715   C.ar      1 RES1   0.0000
    24 H5       4.7524  15.7805   0.7287   H         1 RES1   0.0000
    25 C11      3.9273  17.5933   0.3980   C.ar      1 RES1   0.0000
    26 H6       4.6334  17.9565  -0.0866   H         1 RES1   0.0000
    27 C12      2.8181  18.3263   0.6485   C.ar      1 RES1   0.0000
    28 H7       2.7539  19.2067   0.3547   H         1 RES1   0.0000
    29 C13      1.7946  17.7487   1.3422   C.ar      1 RES1   0.0000
    30 H8       1.0357  18.2605   1.5034   H         1 RES1   0.0000
    31 C14      0.3058  14.1126   0.9221   C.2       1 RES1   0.0000
    32 H9       0.9528  14.5668   0.4311   H         1 RES1   0.0000
    33 C15     -1.0871  14.1313   0.4680   C.ar      1 RES1   0.0000
    34 C16     -1.9605  13.1766   0.9194   C.ar      1 RES1   0.0000
    35 H10     -1.6728  12.5576   1.5504   H         1 RES1   0.0000
    36 C17     -3.2713  13.1147   0.4505   C.ar      1 RES1   0.0000
    37 H11     -3.8480  12.4594   0.7710   H         1 RES1   0.0000
    38 C18     -3.7031  13.9990  -0.4615   C.ar      1 RES1   0.0000
    39 H12     -4.5717  13.9336  -0.7867   H         1 RES1   0.0000
    40 C19     -2.8663  15.0234  -0.9350   C.ar      1 RES1   0.0000
    41 C20     -3.3330  15.9869  -1.8489   C.ar      1 RES1   0.0000
    42 H13     -4.2113  15.9405  -2.1519   H         1 RES1   0.0000
    43 C21     -2.5278  16.9793  -2.2956   C.ar      1 RES1   0.0000
    44 H14     -2.8534  17.6090  -2.8981   H         1 RES1   0.0000
    45 C22     -1.2142  17.0541  -1.8525   C.ar      1 RES1   0.0000
    46 H15     -0.6649  17.7370  -2.1630   H         1 RES1   0.0000
    47 C23     -0.7184  16.1453  -0.9737   C.ar      1 RES1   0.0000
    48 H16      0.1656  16.2148  -0.6946   H         1 RES1   0.0000
    49 C24     -1.5251  15.0954  -0.4753   C.ar      1 RES1   0.0000
    50 S1B      7.6544   9.4975   1.2607   S.2       1 RES1   0.0000
    51 N1B      5.8014  10.3583   3.1045   N.2       1 RES1   0.0000
    52 N2B      6.7696  12.3677   5.0537   N.ar      1 RES1   0.0000
    53 N3B      5.7884  10.1078   6.0458   N.2       1 RES1   0.0000
    54 N4B      5.5253   8.8550   6.5433   N.2       1 RES1   0.0000
    55 N5B      7.6312   9.3574   6.9256   N.pl3     1 RES1   0.0000
    56 N6B      9.0023   9.3631   7.2471   N.2       1 RES1   0.0000
    57 N7B      7.8334   6.3609   7.4083   N.ar      1 RES1   0.0000
    58 C1B      6.5704  10.0022   2.3454   C.1       1 RES1   0.0000
    59 C2B      7.1781  13.5407   4.5775   C.ar      1 RES1   0.0000
    60 H1B      6.5966  14.0251   4.0367   H         1 RES1   0.0000
    61 C3B      8.4133  14.0673   4.8455   C.ar      1 RES1   0.0000
    62 H2B      8.6654  14.8890   4.4936   H         1 RES1   0.0000
    63 C4B      9.2613  13.3636   5.6368   C.ar      1 RES1   0.0000
    64 H3B     10.1048  13.7005   5.8321   H         1 RES1   0.0000
    65 C5B      8.8696  12.1508   6.1509   C.ar      1 RES1   0.0000
    66 H4B      9.4359  11.6639   6.7045   H         1 RES1   0.0000
    67 C6B      7.6207  11.6703   5.8284   C.ar      1 RES1   0.0000
    68 C7B      7.0438  10.4008   6.2725   C.2       1 RES1   0.0000
    69 C8B      6.6372   8.4123   7.0813   C.2       1 RES1   0.0000
    70 C9B      6.7265   7.0562   7.6533   C.ar      1 RES1   0.0000
    71 C10B     5.6501   6.5554   8.3406   C.ar      1 RES1   0.0000
    72 H5B      4.8924   7.0765   8.4833   H         1 RES1   0.0000
    73 C11B     5.7174   5.2637   8.8141   C.ar      1 RES1   0.0000
    74 H6B      5.0113   4.9005   9.2986   H         1 RES1   0.0000
    75 C12B     6.8267   4.5307   8.5635   C.ar      1 RES1   0.0000
    76 H7B      6.8908   3.6503   8.8574   H         1 RES1   0.0000
    77 C13B     7.8501   5.1083   7.8698   C.ar      1 RES1   0.0000
    78 H8B      8.6091   4.5965   7.7086   H         1 RES1   0.0000
    79 C14B     9.3389   8.7444   8.2899   C.2       1 RES1   0.0000
    80 H9B      8.6920   8.2902   8.7809   H         1 RES1   0.0000
    81 C15B    10.7319   8.7257   8.7440   C.ar      1 RES1   0.0000
    82 C16B    11.6052   9.6804   8.2927   C.ar      1 RES1   0.0000
    83 H10B    11.3175  10.2994   7.6616   H         1 RES1   0.0000
    84 C17B    12.9160   9.7423   8.7616   C.ar      1 RES1   0.0000
    85 H11B    13.4927  10.3976   8.4410   H         1 RES1   0.0000
    86 C18B    13.3479   8.8580   9.6735   C.ar      1 RES1   0.0000
    87 H12B    14.2164   8.9234   9.9987   H         1 RES1   0.0000
    88 C19B    12.5110   7.8336  10.1470   C.ar      1 RES1   0.0000
    89 C20B    12.9777   6.8701  11.0609   C.ar      1 RES1   0.0000
    90 H13B    13.8560   6.9165  11.3639   H         1 RES1   0.0000
    91 C21B    12.1725   5.8777  11.5077   C.ar      1 RES1   0.0000
    92 H14B    12.4981   5.2480  12.1101   H         1 RES1   0.0000
    93 C22B    10.8589   5.8029  11.0646   C.ar      1 RES1   0.0000
    94 H15B    10.3096   5.1200  11.3750   H         1 RES1   0.0000
    95 C23B    10.3631   6.7117  10.1857   C.ar      1 RES1   0.0000
    96 H16B     9.4791   6.6422   9.9066   H         1 RES1   0.0000
    97 C24B    11.1698   7.7616   9.6874   C.ar      1 RES1   0.0000
@<TRIPOS>BOND
     1     1     3    1
     2     2    10    2
     3     3    10    2
     4     4     1    1
     5     5     1    1
     6     6     5    1
     7     7     8    1
     8     8    31    2
     9     9    22   ar
    10    11     4   ar
    11    12    11    1
    12    13    11   ar
    13    14    13    1
    14    15    13   ar
    15    16    15    1
    16    17    15   ar
    17    18    17    1
    18    19     4   ar
    19    20     5    2
    20    21     6    2
    21    22    21    1
    22    23    22   ar
    23    24    23    1
    24    25    23   ar
    25    26    25    1
    26    27    25   ar
    27    28    27    1
    28    29     9   ar
    29    30    29    1
    30    31    32    1
    31    33    31    1
    32    34    33   ar
    33    35    34    1
    34    36    34   ar
    35    37    36    1
    36    38    36   ar
    37    39    38    1
    38    40    38   ar
    39    41    40   ar
    40    42    41    1
    41    43    41   ar
    42    44    43    1
    43    45    43   ar
    44    46    45    1
    45    47    45   ar
    46    48    47    1
    47    49    33   ar
    48    50    58    2
    49    51     1    1
    50    52     1    1
    51    53     1    1
    52    54    53    1
    53    55    56    1
    54    56    79    2
    55    57    70   ar
    56    58    51    2
    57    59    52   ar
    58    60    59    1
    59    61    59   ar
    60    62    61    1
    61    63    61   ar
    62    64    63    1
    63    65    63   ar
    64    66    65    1
    65    67    52   ar
    66    68    53    2
    67    69    54    2
    68    70    69    1
    69    71    70   ar
    70    72    71    1
    71    73    71   ar
    72    74    73    1
    73    75    73   ar
    74    76    75    1
    75    77    57   ar
    76    78    77    1
    77    79    80    1
    78    81    79    1
    79    82    81   ar
    80    83    82    1
    81    84    82   ar
    82    85    84    1
    83    86    84   ar
    84    87    86    1
    85    88    86   ar
    86    89    88   ar
    87    90    89    1
    88    91    89   ar
    89    92    91    1
    90    93    91   ar
    91    94    93    1
    92    95    93   ar
    93    96    95    1
    94    97    81   ar
    95     7    20    1
    96     7    21    1
    97    17    19   ar
    98    19    20    1
    99    27    29   ar
   100    40    49   ar
   101    47    49   ar
   102    55    68    1
   103    55    69    1
   104    65    67   ar
   105    67    68    1
   106    75    77   ar
   107    88    97   ar
   108    95    97   ar
@<TRIPOS>SUBSTRUCTURE
     1 RES1        1 GROUP             0 ****  ****    0  
@<TRIPOS>CRYSIN
   10.2742   22.8570    9.2335   90.0000   93.9090   90.0000    14     1
