@<TRIPOS>MOLECULE
UZAXUQ01
    97   108     1     0     0
SMALL
NO_CHARGES
****
Generated from the CSD

@<TRIPOS>ATOM
     1 Fe1      4.8282  11.4288   4.5009   Fe        1 RES1   0.0000
     2 S1       1.9513  13.3412   7.8310   S.2       1 RES1   0.0000
     3 N1       3.8560  12.4825   5.9942   N.2       1 RES1   0.0000
     4 N2       2.9224  10.4621   4.0786   N.ar      1 RES1   0.0000
     5 N3       3.8598  12.7428   3.0966   N.2       1 RES1   0.0000
     6 N4       4.0965  14.0116   2.6191   N.2       1 RES1   0.0000
     7 N5       1.9826  13.4990   2.2768   N.pl3     1 RES1   0.0000
     8 N6       0.6042  13.4848   1.9927   N.2       1 RES1   0.0000
     9 N7       1.7399  16.5081   1.8239   N.ar      1 RES1   0.0000
    10 C1       3.0593  12.8423   6.7478   C.1       1 RES1   0.0000
    11 C2       2.5516   9.2614   4.5252   C.ar      1 RES1   0.0000
    12 H1       3.1610   8.7659   5.0582   H         1 RES1   0.0000
    13 C3       1.3159   8.7092   4.2444   C.ar      1 RES1   0.0000
    14 H2       1.0788   7.8561   4.5874   H         1 RES1   0.0000
    15 C4       0.4360   9.4148   3.4603   C.ar      1 RES1   0.0000
    16 H3      -0.4176   9.0516   3.2542   H         1 RES1   0.0000
    17 C5       0.8022  10.6564   2.9733   C.ar      1 RES1   0.0000
    18 H4       0.2124  11.1545   2.4197   H         1 RES1   0.0000
    19 C6       2.0447  11.1545   3.3109   C.ar      1 RES1   0.0000
    20 C7       2.5936  12.4477   2.8910   C.2       1 RES1   0.0000
    21 C8       2.9671  14.4533   2.1180   C.2       1 RES1   0.0000
    22 C9       2.8562  15.8156   1.5612   C.ar      1 RES1   0.0000
    23 C10      3.9290  16.3301   0.8561   C.ar      1 RES1   0.0000
    24 H5       4.7000  15.8014   0.6904   H         1 RES1   0.0000
    25 C11      3.8544  17.6334   0.3979   C.ar      1 RES1   0.0000
    26 H6       4.5695  18.0117  -0.1008   H         1 RES1   0.0000
    27 C12      2.7341  18.3694   0.6742   C.ar      1 RES1   0.0000
    28 H7       2.6627  19.2734   0.3880   H         1 RES1   0.0000
    29 C13      1.7079  17.7685   1.3791   C.ar      1 RES1   0.0000
    30 H8       0.9308  18.2837   1.5591   H         1 RES1   0.0000
    31 C14      0.2386  14.1330   0.9632   C.2       1 RES1   0.0000
    32 H9       0.8819  14.6219   0.4636   H         1 RES1   0.0000
    33 C15     -1.1612  14.1351   0.5392   C.ar      1 RES1   0.0000
    34 C16     -2.0291  13.1769   1.0190   C.ar      1 RES1   0.0000
    35 H10     -1.7236  12.5602   1.6734   H         1 RES1   0.0000
    36 C17     -3.3488  13.0946   0.5635   C.ar      1 RES1   0.0000
    37 H11     -3.9307  12.4276   0.9065   H         1 RES1   0.0000
    38 C18     -3.7960  13.9760  -0.3736   C.ar      1 RES1   0.0000
    39 H12     -4.6853  13.8974  -0.6985   H         1 RES1   0.0000
    40 C19     -2.9652  15.0023  -0.8714   C.ar      1 RES1   0.0000
    41 C20     -3.4494  15.9532  -1.7986   C.ar      1 RES1   0.0000
    42 H13     -4.3471  15.8928  -2.1028   H         1 RES1   0.0000
    43 C21     -2.6520  16.9546  -2.2631   C.ar      1 RES1   0.0000
    44 H14     -2.9949  17.5866  -2.8842   H         1 RES1   0.0000
    45 C22     -1.3220  17.0483  -1.8211   C.ar      1 RES1   0.0000
    46 H15     -0.7654  17.7443  -2.1505   H         1 RES1   0.0000
    47 C23     -0.8196  16.1511  -0.9245   C.ar      1 RES1   0.0000
    48 H16      0.0824  16.2357  -0.6364   H         1 RES1   0.0000
    49 C24     -1.6187  15.0942  -0.4127   C.ar      1 RES1   0.0000
    50 S1B      7.7050   9.5163   1.1709   S.2       1 RES1   0.0000
    51 N1B      5.8003  10.3750   3.0077   N.2       1 RES1   0.0000
    52 N2B      6.7339  12.3954   4.9233   N.ar      1 RES1   0.0000
    53 N3B      5.7965  10.1147   5.9053   N.2       1 RES1   0.0000
    54 N4B      5.5598   8.8459   6.3828   N.2       1 RES1   0.0000
    55 N5B      7.6737   9.3585   6.7251   N.pl3     1 RES1   0.0000
    56 N6B      9.0522   9.3727   7.0091   N.2       1 RES1   0.0000
    57 N7B      7.9164   6.3494   7.1780   N.ar      1 RES1   0.0000
    58 C1B      6.5970  10.0152   2.2541   C.1       1 RES1   0.0000
    59 C2B      7.1047  13.5961   4.4766   C.ar      1 RES1   0.0000
    60 H1B      6.4953  14.0916   3.9437   H         1 RES1   0.0000
    61 C3B      8.3405  14.1483   4.7575   C.ar      1 RES1   0.0000
    62 H2B      8.5775  15.0014   4.4145   H         1 RES1   0.0000
    63 C4B      9.2203  13.4427   5.5416   C.ar      1 RES1   0.0000
    64 H3B     10.0739  13.8059   5.7477   H         1 RES1   0.0000
    65 C5B      8.8541  12.2011   6.0286   C.ar      1 RES1   0.0000
    66 H4B      9.4439  11.7030   6.5822   H         1 RES1   0.0000
    67 C6B      7.6117  11.7030   5.6910   C.ar      1 RES1   0.0000
    68 C7B      7.0627  10.4098   6.1109   C.2       1 RES1   0.0000
    69 C8B      6.6892   8.4042   6.8839   C.2       1 RES1   0.0000
    70 C9B      6.8001   7.0419   7.4407   C.ar      1 RES1   0.0000
    71 C10B     5.7273   6.5274   8.1458   C.ar      1 RES1   0.0000
    72 H5B      4.9563   7.0561   8.3114   H         1 RES1   0.0000
    73 C11B     5.8019   5.2241   8.6040   C.ar      1 RES1   0.0000
    74 H6B      5.0868   4.8458   9.1027   H         1 RES1   0.0000
    75 C12B     6.9222   4.4881   8.3276   C.ar      1 RES1   0.0000
    76 H7B      6.9936   3.5841   8.6139   H         1 RES1   0.0000
    77 C13B     7.9484   5.0890   7.6228   C.ar      1 RES1   0.0000
    78 H8B      8.7255   4.5738   7.4428   H         1 RES1   0.0000
    79 C14B     9.4177   8.7245   8.0387   C.2       1 RES1   0.0000
    80 H9B      8.7744   8.2356   8.5383   H         1 RES1   0.0000
    81 C15B    10.8175   8.7224   8.4627   C.ar      1 RES1   0.0000
    82 C16B    11.6854   9.6806   7.9829   C.ar      1 RES1   0.0000
    83 H10B    11.3799  10.2973   7.3284   H         1 RES1   0.0000
    84 C17B    13.0051   9.7629   8.4384   C.ar      1 RES1   0.0000
    85 H11B    13.5870  10.4299   8.0954   H         1 RES1   0.0000
    86 C18B    13.4523   8.8815   9.3755   C.ar      1 RES1   0.0000
    87 H12B    14.3416   8.9601   9.7004   H         1 RES1   0.0000
    88 C19B    12.6215   7.8552   9.8733   C.ar      1 RES1   0.0000
    89 C20B    13.1057   6.9043  10.8005   C.ar      1 RES1   0.0000
    90 H13B    14.0034   6.9647  11.1047   H         1 RES1   0.0000
    91 C21B    12.3084   5.9029  11.2649   C.ar      1 RES1   0.0000
    92 H14B    12.6512   5.2709  11.8861   H         1 RES1   0.0000
    93 C22B    10.9783   5.8092  10.8230   C.ar      1 RES1   0.0000
    94 H15B    10.4217   5.1132  11.1524   H         1 RES1   0.0000
    95 C23B    10.4759   6.7064   9.9264   C.ar      1 RES1   0.0000
    96 H16B     9.5739   6.6218   9.6383   H         1 RES1   0.0000
    97 C24B    11.2750   7.7633   9.4146   C.ar      1 RES1   0.0000
@<TRIPOS>BOND
     1     1     3    1
     2     2    10    2
     3     3    10    2
     4     4     1    1
     5     5     1    1
     6     6     5    1
     7     7     8    1
     8     8    31    2
     9     9    22   ar
    10    11     4   ar
    11    12    11    1
    12    13    11   ar
    13    14    13    1
    14    15    13   ar
    15    16    15    1
    16    17    15   ar
    17    18    17    1
    18    19     4   ar
    19    20     5    2
    20    21     6    2
    21    22    21    1
    22    23    22   ar
    23    24    23    1
    24    25    23   ar
    25    26    25    1
    26    27    25   ar
    27    28    27    1
    28    29     9   ar
    29    30    29    1
    30    31    32    1
    31    33    31    1
    32    34    33   ar
    33    35    34    1
    34    36    34   ar
    35    37    36    1
    36    38    36   ar
    37    39    38    1
    38    40    38   ar
    39    41    40   ar
    40    42    41    1
    41    43    41   ar
    42    44    43    1
    43    45    43   ar
    44    46    45    1
    45    47    45   ar
    46    48    47    1
    47    49    33   ar
    48    50    58    2
    49    51     1    1
    50    52     1    1
    51    53     1    1
    52    54    53    1
    53    55    56    1
    54    56    79    2
    55    57    70   ar
    56    58    51    2
    57    59    52   ar
    58    60    59    1
    59    61    59   ar
    60    62    61    1
    61    63    61   ar
    62    64    63    1
    63    65    63   ar
    64    66    65    1
    65    67    52   ar
    66    68    53    2
    67    69    54    2
    68    70    69    1
    69    71    70   ar
    70    72    71    1
    71    73    71   ar
    72    74    73    1
    73    75    73   ar
    74    76    75    1
    75    77    57   ar
    76    78    77    1
    77    79    80    1
    78    81    79    1
    79    82    81   ar
    80    83    82    1
    81    84    82   ar
    82    85    84    1
    83    86    84   ar
    84    87    86    1
    85    88    86   ar
    86    89    88   ar
    87    90    89    1
    88    91    89   ar
    89    92    91    1
    90    93    91   ar
    91    94    93    1
    92    95    93   ar
    93    96    95    1
    94    97    81   ar
    95     7    20    1
    96     7    21    1
    97    17    19   ar
    98    19    20    1
    99    27    29   ar
   100    40    49   ar
   101    47    49   ar
   102    55    68    1
   103    55    69    1
   104    65    67   ar
   105    67    68    1
   106    75    77   ar
   107    88    97   ar
   108    95    97   ar
@<TRIPOS>SUBSTRUCTURE
     1 RES1        1 GROUP             0 ****  ****    0  
@<TRIPOS>CRYSIN
   10.2020   22.8575    9.0184   90.0000   93.4690   90.0000    14     1
