@<TRIPOS>MOLECULE
UZAYEB01
    97   108     1     0     0
SMALL
NO_CHARGES
****
Generated from the CSD

@<TRIPOS>ATOM
     1 Fe1      7.2593  11.5575   5.9939   Fe        1 RES1   0.0000
     2 Se1      4.9434  14.3810   2.6017   Se        1 RES1   0.0000
     3 N1       6.4679  13.0200   4.6907   N.2       1 RES1   0.0000
     4 N2       5.3280  11.4575   7.0808   N.ar      1 RES1   0.0000
     5 N3       6.0608  10.1695   4.8838   N.2       1 RES1   0.0000
     6 N4       6.1570   9.6658   3.6113   N.2       1 RES1   0.0000
     7 N5       4.0897   9.4159   4.3348   N.pl3     1 RES1   0.0000
     8 N6       2.7451   9.0467   4.5594   N.2       1 RES1   0.0000
     9 N7       3.5649   9.1682   1.3390   N.ar      1 RES1   0.0000
    10 C1       5.8623  13.5447   3.8670   C.1       1 RES1   0.0000
    11 C2       5.0733  12.0722   8.2356   C.ar      1 RES1   0.0000
    12 H1       5.7118  12.6909   8.5713   H         1 RES1   0.0000
    13 C3       3.9288  11.8498   8.9635   C.ar      1 RES1   0.0000
    14 H2       3.7813  12.3059   9.7845   H         1 RES1   0.0000
    15 C4       3.0044  10.9607   8.4850   C.ar      1 RES1   0.0000
    16 H3       2.2105  10.7840   8.9765   H         1 RES1   0.0000
    17 C5       3.2348  10.3188   7.2784   C.ar      1 RES1   0.0000
    18 H4       2.6046   9.6988   6.9278   H         1 RES1   0.0000
    19 C6       4.4024  10.6015   6.5988   C.ar      1 RES1   0.0000
    20 C7       4.8206  10.0387   5.3005   C.2       1 RES1   0.0000
    21 C8       4.9650   9.2254   3.2824   C.2       1 RES1   0.0000
    22 C9       4.6852   8.7435   1.9146   C.ar      1 RES1   0.0000
    23 C10      5.6343   7.9714   1.2827   C.ar      1 RES1   0.0000
    24 H5       6.4288   7.7100   1.7322   H         1 RES1   0.0000
    25 C11      5.3973   7.5872  -0.0216   C.ar      1 RES1   0.0000
    26 H6       6.0283   7.0529  -0.4891   H         1 RES1   0.0000
    27 C12      4.2500   7.9851  -0.6258   C.ar      1 RES1   0.0000
    28 H7       4.0540   7.7154  -1.5165   H         1 RES1   0.0000
    29 C13      3.3772   8.7803   0.0683   C.ar      1 RES1   0.0000
    30 H8       2.5922   9.0756  -0.3764   H         1 RES1   0.0000
    31 C14      2.3336   8.0461   3.9186   C.2       1 RES1   0.0000
    32 H9       2.9036   7.6266   3.2859   H         1 RES1   0.0000
    33 C15      0.9767   7.5205   4.1402   C.ar      1 RES1   0.0000
    34 C16      0.4137   7.5812   5.3914   C.ar      1 RES1   0.0000
    35 H10      0.8600   8.0549   6.0826   H         1 RES1   0.0000
    36 C17     -0.8055   6.9573   5.6618   C.ar      1 RES1   0.0000
    37 H11     -1.1843   7.0179   6.5310   H         1 RES1   0.0000
    38 C18     -1.4524   6.2653   4.6932   C.ar      1 RES1   0.0000
    39 H12     -2.2627   5.8171   4.9018   H         1 RES1   0.0000
    40 C19     -0.9395   6.1995   3.3770   C.ar      1 RES1   0.0000
    41 C20     -1.6151   5.5064   2.3520   C.ar      1 RES1   0.0000
    42 H13     -2.4124   5.0314   2.5546   H         1 RES1   0.0000
    43 C21     -1.1458   5.5057   1.0873   C.ar      1 RES1   0.0000
    44 H14     -1.6184   5.0407   0.4076   H         1 RES1   0.0000
    45 C22      0.0414   6.1930   0.7708   C.ar      1 RES1   0.0000
    46 H15      0.3515   6.2129  -0.1271   H         1 RES1   0.0000
    47 C23      0.7503   6.8333   1.7526   C.ar      1 RES1   0.0000
    48 H16      1.5640   7.2712   1.5332   H         1 RES1   0.0000
    49 C24      0.2895   6.8511   3.0787   C.ar      1 RES1   0.0000
    50 Se1A     9.5751   8.7340   9.3861   Se        1 RES1   0.0000
    51 N1A      8.0507  10.0950   7.2971   N.2       1 RES1   0.0000
    52 N2A      9.1905  11.6575   4.9070   N.ar      1 RES1   0.0000
    53 N3A      8.4578  12.9455   7.1040   N.2       1 RES1   0.0000
    54 N4A      8.3616  13.4492   8.3765   N.2       1 RES1   0.0000
    55 N5A     10.4289  13.6991   7.6530   N.pl3     1 RES1   0.0000
    56 N6A     11.7734  14.0683   7.4284   N.2       1 RES1   0.0000
    57 N7A     10.9537  13.9468  10.6488   N.ar      1 RES1   0.0000
    58 C1A      8.6563   9.5703   8.1208   C.1       1 RES1   0.0000
    59 C2A      9.4452  11.0428   3.7522   C.ar      1 RES1   0.0000
    60 H1A      8.8068  10.4241   3.4165   H         1 RES1   0.0000
    61 C3A     10.5897  11.2652   3.0243   C.ar      1 RES1   0.0000
    62 H2A     10.7372  10.8091   2.2034   H         1 RES1   0.0000
    63 C4A     11.5142  12.1543   3.5028   C.ar      1 RES1   0.0000
    64 H3A     12.3080  12.3309   3.0113   H         1 RES1   0.0000
    65 C5A     11.2838  12.7962   4.7094   C.ar      1 RES1   0.0000
    66 H4A     11.9140  13.4162   5.0601   H         1 RES1   0.0000
    67 C6A     10.1162  12.5135   5.3890   C.ar      1 RES1   0.0000
    68 C7A      9.6980  13.0763   6.6873   C.2       1 RES1   0.0000
    69 C8A      9.5536  13.8896   8.7054   C.2       1 RES1   0.0000
    70 C9A      9.8333  14.3715  10.0732   C.ar      1 RES1   0.0000
    71 C10A     8.8843  15.1436  10.7051   C.ar      1 RES1   0.0000
    72 H5A      8.0897  15.4049  10.2556   H         1 RES1   0.0000
    73 C11A     9.1213  15.5278  12.0094   C.ar      1 RES1   0.0000
    74 H6A      8.4903  16.0621  12.4769   H         1 RES1   0.0000
    75 C12A    10.2686  15.1299  12.6136   C.ar      1 RES1   0.0000
    76 H7A     10.4646  15.3996  13.5043   H         1 RES1   0.0000
    77 C13A    11.1414  14.3347  11.9195   C.ar      1 RES1   0.0000
    78 H8A     11.9264  14.0394  12.3642   H         1 RES1   0.0000
    79 C14A    12.1849  15.0689   8.0692   C.2       1 RES1   0.0000
    80 H9A     11.6150  15.4884   8.7020   H         1 RES1   0.0000
    81 C15A    13.5418  15.5944   7.8476   C.ar      1 RES1   0.0000
    82 C16A    14.1048  15.5337   6.5964   C.ar      1 RES1   0.0000
    83 H10A    13.6585  15.0601   5.9052   H         1 RES1   0.0000
    84 C17A    15.3241  16.1577   6.3260   C.ar      1 RES1   0.0000
    85 H11A    15.7028  16.0971   5.4569   H         1 RES1   0.0000
    86 C18A    15.9710  16.8497   7.2946   C.ar      1 RES1   0.0000
    87 H12A    16.7813  17.2979   7.0860   H         1 RES1   0.0000
    88 C19A    15.4580  16.9155   8.6109   C.ar      1 RES1   0.0000
    89 C20A    16.1337  17.6086   9.6358   C.ar      1 RES1   0.0000
    90 H13A    16.9309  18.0836   9.4332   H         1 RES1   0.0000
    91 C21A    15.6643  17.6093  10.9005   C.ar      1 RES1   0.0000
    92 H14A    16.1370  18.0742  11.5802   H         1 RES1   0.0000
    93 C22A    14.4771  16.9220  11.2170   C.ar      1 RES1   0.0000
    94 H15A    14.1670  16.9021  12.1149   H         1 RES1   0.0000
    95 C23A    13.7682  16.2817  10.2352   C.ar      1 RES1   0.0000
    96 H16A    12.9546  15.8438  10.4546   H         1 RES1   0.0000
    97 C24A    14.2290  16.2639   8.9091   C.ar      1 RES1   0.0000
@<TRIPOS>BOND
     1     1     3    1
     2     2    10    2
     3     3    10    2
     4     4     1    1
     5     5     1    1
     6     6     5    1
     7     7     8    1
     8     8    31    2
     9     9    22   ar
    10    11     4   ar
    11    12    11    1
    12    13    11   ar
    13    14    13    1
    14    15    13   ar
    15    16    15    1
    16    17    15   ar
    17    18    17    1
    18    19     4   ar
    19    20     5    2
    20    21     6    2
    21    22    21    1
    22    23    22   ar
    23    24    23    1
    24    25    23   ar
    25    26    25    1
    26    27    25   ar
    27    28    27    1
    28    29     9   ar
    29    30    29    1
    30    31    32    1
    31    33    31    1
    32    34    33   ar
    33    35    34    1
    34    36    34   ar
    35    37    36    1
    36    38    36   ar
    37    39    38    1
    38    40    38   ar
    39    41    40   ar
    40    42    41    1
    41    43    41   ar
    42    44    43    1
    43    45    43   ar
    44    46    45    1
    45    47    45   ar
    46    48    47    1
    47    49    33   ar
    48    50    58    2
    49    51     1    1
    50    52     1    1
    51    53     1    1
    52    54    53    1
    53    55    56    1
    54    56    79    2
    55    57    70   ar
    56    58    51    2
    57    59    52   ar
    58    60    59    1
    59    61    59   ar
    60    62    61    1
    61    63    61   ar
    62    64    63    1
    63    65    63   ar
    64    66    65    1
    65    67    52   ar
    66    68    53    2
    67    69    54    2
    68    70    69    1
    69    71    70   ar
    70    72    71    1
    71    73    71   ar
    72    74    73    1
    73    75    73   ar
    74    76    75    1
    75    77    57   ar
    76    78    77    1
    77    79    80    1
    78    81    79    1
    79    82    81   ar
    80    83    82    1
    81    84    82   ar
    82    85    84    1
    83    86    84   ar
    84    87    86    1
    85    88    86   ar
    86    89    88   ar
    87    90    89    1
    88    91    89   ar
    89    92    91    1
    90    93    91   ar
    91    94    93    1
    92    95    93   ar
    93    96    95    1
    94    97    81   ar
    95     7    20    1
    96     7    21    1
    97    17    19   ar
    98    19    20    1
    99    27    29   ar
   100    40    49   ar
   101    47    49   ar
   102    55    68    1
   103    55    69    1
   104    65    67   ar
   105    67    68    1
   106    75    77   ar
   107    88    97   ar
   108    95    97   ar
@<TRIPOS>SUBSTRUCTURE
     1 RES1        1 GROUP             0 ****  ****    0  
@<TRIPOS>CRYSIN
    9.5547    9.5691   12.9900   70.2960   77.1860   83.7520     2     1
