@<TRIPOS>MOLECULE
UZAYEB
    97   108     1     0     0
SMALL
NO_CHARGES
****
Generated from the CSD

@<TRIPOS>ATOM
     1 Fe1      6.9532  11.6479   5.9155   Fe        1 RES1   0.0000
     2 Se1      4.7095  14.5140   2.6841   Se        1 RES1   0.0000
     3 N1       6.1972  13.0157   4.7537   N.2       1 RES1   0.0000
     4 N2       5.2340  11.5954   6.9765   N.ar      1 RES1   0.0000
     5 N3       5.9093  10.3768   4.8370   N.2       1 RES1   0.0000
     6 N4       6.0499   9.8494   3.5741   N.2       1 RES1   0.0000
     7 N5       3.9846   9.4969   4.2858   N.pl3     1 RES1   0.0000
     8 N6       2.6544   9.0969   4.5166   N.2       1 RES1   0.0000
     9 N7       3.4899   9.1585   1.2955   N.ar      1 RES1   0.0000
    10 C1       5.6118  13.6038   3.9421   C.1       1 RES1   0.0000
    11 C2       4.9703  12.2687   8.1077   C.ar      1 RES1   0.0000
    12 H1       5.6157  12.8870   8.4295   H         1 RES1   0.0000
    13 C3       3.7924  12.0985   8.8271   C.ar      1 RES1   0.0000
    14 H2       3.6416  12.5979   9.6209   H         1 RES1   0.0000
    15 C4       2.8441  11.2005   8.3822   C.ar      1 RES1   0.0000
    16 H3       2.0484  11.0517   8.8791   H         1 RES1   0.0000
    17 C5       3.0740  10.5169   7.1932   C.ar      1 RES1   0.0000
    18 H4       2.4349   9.9022   6.8537   H         1 RES1   0.0000
    19 C6       4.2611  10.7551   6.5177   C.ar      1 RES1   0.0000
    20 C7       4.6801  10.1714   5.2506   C.2       1 RES1   0.0000
    21 C8       4.8791   9.3296   3.2452   C.2       1 RES1   0.0000
    22 C9       4.6406   8.8005   1.8882   C.ar      1 RES1   0.0000
    23 C10      5.6272   8.0492   1.2777   C.ar      1 RES1   0.0000
    24 H5       6.4357   7.8481   1.7344   H         1 RES1   0.0000
    25 C11      5.4109   7.5948  -0.0130   C.ar      1 RES1   0.0000
    26 H6       6.0629   7.0632  -0.4543   H         1 RES1   0.0000
    27 C12      4.2382   7.9280  -0.6412   C.ar      1 RES1   0.0000
    28 H7       4.0552   7.6200  -1.5215   H         1 RES1   0.0000
    29 C13      3.3251   8.7220   0.0343   C.ar      1 RES1   0.0000
    30 H8       2.5314   8.9750  -0.4224   H         1 RES1   0.0000
    31 C14      2.2489   8.0966   3.8474   C.2       1 RES1   0.0000
    32 H9       2.8118   7.7047   3.1896   H         1 RES1   0.0000
    33 C15      0.9073   7.5429   4.0923   C.ar      1 RES1   0.0000
    34 C16      0.3555   7.5890   5.3499   C.ar      1 RES1   0.0000
    35 H10      0.7871   8.0904   6.0326   H         1 RES1   0.0000
    36 C17     -0.8392   6.9055   5.6422   C.ar      1 RES1   0.0000
    37 H11     -1.2143   6.9561   6.5141   H         1 RES1   0.0000
    38 C18     -1.4600   6.1676   4.6720   C.ar      1 RES1   0.0000
    39 H12     -2.2451   5.6799   4.8909   H         1 RES1   0.0000
    40 C19     -0.9580   6.1163   3.3517   C.ar      1 RES1   0.0000
    41 C20     -1.6052   5.3796   2.3319   C.ar      1 RES1   0.0000
    42 H13     -2.3662   4.8540   2.5496   H         1 RES1   0.0000
    43 C21     -1.1615   5.4083   1.0459   C.ar      1 RES1   0.0000
    44 H14     -1.6104   4.9067   0.3739   H         1 RES1   0.0000
    45 C22     -0.0284   6.1892   0.7158   C.ar      1 RES1   0.0000
    46 H15      0.2579   6.2449  -0.1881   H         1 RES1   0.0000
    47 C23      0.6574   6.8626   1.6883   C.ar      1 RES1   0.0000
    48 H16      1.4367   7.3535   1.4564   H         1 RES1   0.0000
    49 C24      0.2248   6.8415   3.0299   C.ar      1 RES1   0.0000
    50 Se1A     9.1970   8.7817   9.1468   Se        1 RES1   0.0000
    51 N1A      7.7093  10.2800   7.0773   N.2       1 RES1   0.0000
    52 N2A      8.6724  11.7003   4.8545   N.ar      1 RES1   0.0000
    53 N3A      7.9972  12.9189   6.9940   N.2       1 RES1   0.0000
    54 N4A      7.8566  13.4463   8.2568   N.2       1 RES1   0.0000
    55 N5A      9.9218  13.7988   7.5452   N.pl3     1 RES1   0.0000
    56 N6A     11.2520  14.1988   7.3144   N.2       1 RES1   0.0000
    57 N7A     10.4165  14.1372  10.5354   N.ar      1 RES1   0.0000
    58 C1A      8.2946   9.6919   7.8889   C.1       1 RES1   0.0000
    59 C2A      8.9362  11.0270   3.7232   C.ar      1 RES1   0.0000
    60 H1A      8.2908  10.4088   3.4014   H         1 RES1   0.0000
    61 C3A     10.1141  11.1972   3.0039   C.ar      1 RES1   0.0000
    62 H2A     10.2648  10.6979   2.2100   H         1 RES1   0.0000
    63 C4A     11.0623  12.0952   3.4487   C.ar      1 RES1   0.0000
    64 H3A     11.8580  12.2440   2.9518   H         1 RES1   0.0000
    65 C5A     10.8324  12.7788   4.6377   C.ar      1 RES1   0.0000
    66 H4A     11.4715  13.3936   4.9773   H         1 RES1   0.0000
    67 C6A      9.6454  12.5407   5.3133   C.ar      1 RES1   0.0000
    68 C7A      9.2264  13.1243   6.5804   C.2       1 RES1   0.0000
    69 C8A      9.0274  13.9661   8.5857   C.2       1 RES1   0.0000
    70 C9A      9.2659  14.4952   9.9427   C.ar      1 RES1   0.0000
    71 C10A     8.2793  15.2466  10.5532   C.ar      1 RES1   0.0000
    72 H5A      7.4707  15.4476  10.0965   H         1 RES1   0.0000
    73 C11A     8.4955  15.7009  11.8439   C.ar      1 RES1   0.0000
    74 H6A      7.8435  16.2325  12.2852   H         1 RES1   0.0000
    75 C12A     9.6683  15.3677  12.4722   C.ar      1 RES1   0.0000
    76 H7A      9.8512  15.6758  13.3524   H         1 RES1   0.0000
    77 C13A    10.5813  14.5737  11.7966   C.ar      1 RES1   0.0000
    78 H8A     11.3750  14.3207  12.2533   H         1 RES1   0.0000
    79 C14A    11.6576  15.1991   7.9835   C.2       1 RES1   0.0000
    80 H9A     11.0947  15.5911   8.6413   H         1 RES1   0.0000
    81 C15A    12.9991  15.7528   7.7386   C.ar      1 RES1   0.0000
    82 C16A    13.5510  15.7068   6.4810   C.ar      1 RES1   0.0000
    83 H10A    13.1194  15.2054   5.7983   H         1 RES1   0.0000
    84 C17A    14.7456  16.3902   6.1888   C.ar      1 RES1   0.0000
    85 H11A    15.1208  16.3396   5.3168   H         1 RES1   0.0000
    86 C18A    15.3664  17.1281   7.1589   C.ar      1 RES1   0.0000
    87 H12A    16.1515  17.6158   6.9400   H         1 RES1   0.0000
    88 C19A    14.8644  17.1794   8.4792   C.ar      1 RES1   0.0000
    89 C20A    15.5117  17.9162   9.4991   C.ar      1 RES1   0.0000
    90 H13A    16.2727  18.4417   9.2814   H         1 RES1   0.0000
    91 C21A    15.0680  17.8874  10.7851   C.ar      1 RES1   0.0000
    92 H14A    15.5169  18.3890  11.4571   H         1 RES1   0.0000
    93 C22A    13.9348  17.1065  11.1152   C.ar      1 RES1   0.0000
    94 H15A    13.6485  17.0508  12.0190   H         1 RES1   0.0000
    95 C23A    13.2491  16.4332  10.1427   C.ar      1 RES1   0.0000
    96 H16A    12.4697  15.9422  10.3745   H         1 RES1   0.0000
    97 C24A    13.6817  16.4543   8.8010   C.ar      1 RES1   0.0000
@<TRIPOS>BOND
     1     1     3    1
     2     2    10    2
     3     3    10    2
     4     4     1    1
     5     5     1    1
     6     6     5    1
     7     7     8    1
     8     8    31    2
     9     9    22   ar
    10    11     4   ar
    11    12    11    1
    12    13    11   ar
    13    14    13    1
    14    15    13   ar
    15    16    15    1
    16    17    15   ar
    17    18    17    1
    18    19     4   ar
    19    20     5    2
    20    21     6    2
    21    22    21    1
    22    23    22   ar
    23    24    23    1
    24    25    23   ar
    25    26    25    1
    26    27    25   ar
    27    28    27    1
    28    29     9   ar
    29    30    29    1
    30    31    32    1
    31    33    31    1
    32    34    33   ar
    33    35    34    1
    34    36    34   ar
    35    37    36    1
    36    38    36   ar
    37    39    38    1
    38    40    38   ar
    39    41    40   ar
    40    42    41    1
    41    43    41   ar
    42    44    43    1
    43    45    43   ar
    44    46    45    1
    45    47    45   ar
    46    48    47    1
    47    49    33   ar
    48    50    58    2
    49    51     1    1
    50    52     1    1
    51    53     1    1
    52    54    53    1
    53    55    56    1
    54    56    79    2
    55    57    70   ar
    56    58    51    2
    57    59    52   ar
    58    60    59    1
    59    61    59   ar
    60    62    61    1
    61    63    61   ar
    62    64    63    1
    63    65    63   ar
    64    66    65    1
    65    67    52   ar
    66    68    53    2
    67    69    54    2
    68    70    69    1
    69    71    70   ar
    70    72    71    1
    71    73    71   ar
    72    74    73    1
    73    75    73   ar
    74    76    75    1
    75    77    57   ar
    76    78    77    1
    77    79    80    1
    78    81    79    1
    79    82    81   ar
    80    83    82    1
    81    84    82   ar
    82    85    84    1
    83    86    84   ar
    84    87    86    1
    85    88    86   ar
    86    89    88   ar
    87    90    89    1
    88    91    89   ar
    89    92    91    1
    90    93    91   ar
    91    94    93    1
    92    95    93   ar
    93    96    95    1
    94    97    81   ar
    95     7    20    1
    96     7    21    1
    97    17    19   ar
    98    19    20    1
    99    27    29   ar
   100    40    49   ar
   101    47    49   ar
   102    55    68    1
   103    55    69    1
   104    65    67   ar
   105    67    68    1
   106    75    77   ar
   107    88    97   ar
   108    95    97   ar
@<TRIPOS>SUBSTRUCTURE
     1 RES1        1 GROUP             0 ****  ****    0  
@<TRIPOS>CRYSIN
    9.1743    9.6666   12.7883   70.1700   78.1010   83.7780     2     1
