@<TRIPOS>MOLECULE
UZUCIE
   169   174     7     0     0
SMALL
USER_CHARGES
****
Generated from the CSD

@<TRIPOS>ATOM
     1 I1      -5.9111  11.7326  10.3991   I         1 RES1   0.0000
     2 I2      -0.7854  12.4727  11.0843   I         1 RES1   0.0000
     3 C1      -3.9594  12.1247  10.7299   C.1       1 RES1   0.0000
     4 C2      -2.7874  12.2804  10.8858   C.1       1 RES1   0.0000
     5 I3       1.8294   8.5172   5.8600   I         2 RES2   0.0000
     6 I4       2.1290   4.2839   2.7932   I         2 RES2   0.0000
     7 C3       2.0485   5.9036   3.9991   C.1       2 RES2   0.0000
     8 C4       1.9589   6.8620   4.6958   C.1       2 RES2   0.0000
     9 Fe1      3.7480  12.9063   8.6756   Fe        3 RES3   0.0000
    10 N1       1.7307  14.9487   7.5386   N.1       3 RES3   0.0000
    11 N2       1.8717  10.7802   7.4319   N.1       3 RES3   0.0000
    12 N3       2.0677  12.8413  11.2827   N.1       3 RES3   0.0000
    13 C5       2.5099  14.2138   7.9632   C.1       3 RES3   0.0000
    14 C6       2.5752  11.5582   7.9080   C.1       3 RES3  -1.0000
    15 C7       2.6964  12.8625  10.3153   C.1       3 RES3  -1.0000
    16 N1B      5.7654  10.8640   9.8127   N.1       3 RES3   0.0000
    17 N2B      5.6244  15.0325   9.9194   N.1       3 RES3   0.0000
    18 N3B      5.4284  12.9714   6.0686   N.1       3 RES3   0.0000
    19 C5B      4.9862  11.5989   9.3881   C.1       3 RES3  -1.0000
    20 C6B      4.9208  14.2545   9.4433   C.1       3 RES3   0.0000
    21 C7B      4.7997  12.9502   7.0359   C.1       3 RES3   0.0000
    22 Cl1      1.7348  16.3049  12.4683   Cl        4 RES4   0.0000
    23 Cl2      1.4006  17.6510   9.8982   Cl        4 RES4   0.0000
    24 C8       1.7924  16.1270  10.7127   C.3       4 RES4   0.0000
    25 H1       1.2068  15.4876  10.4802   H         4 RES4   0.0000
    26 H2       2.7090  15.8696  10.5149   H         4 RES4   0.0000
    27 Cl3      0.8399  14.3782  15.5939   Cl        5 RES5   0.0000
    28 Cl4      1.7159  11.6126  15.2048   Cl        5 RES5   0.0000
    29 C9       1.9072  13.3041  14.6948   C.3       5 RES5   0.0000
    30 H3       2.8018  13.5672  14.9742   H         5 RES5   0.0000
    31 H4       1.7365  13.3684  13.8116   H         5 RES5   0.0000
    32 P1      -0.4223  13.9025   1.1176   P.3       6 RES6   0.0000
    33 N4       0.0000  12.9063   0.0000   N.1       6 RES6   1.0000
    34 C10     -2.1448  13.7236   1.5897   C.ar      6 RES6   0.0000
    35 C11      2.1984  12.8441   4.6783   C.ar      6 RES6   0.0000
    36 H5       2.7650  12.5243   5.4310   H         6 RES6   0.0000
    37 C12      1.7813  14.2589   2.7833   C.ar      6 RES6   0.0000
    38 H6       2.0665  14.9481   2.1967   H         6 RES6   0.0000
    39 C13     -0.2857  15.6048   0.5408   C.ar      6 RES6   0.0000
    40 C14      0.5491  13.6423   2.5935   C.ar      6 RES6   0.0000
    41 C15     -2.6283  14.4448   2.6900   C.ar      6 RES6   0.0000
    42 H7      -2.0351  14.9326   3.2100   H         6 RES6   0.0000
    43 C16      0.9714  12.2311   4.5007   C.ar      6 RES6   0.0000
    44 H8       0.7017  11.5073   5.0666   H         6 RES6   0.0000
    45 C17      2.6007  13.8676   3.8352   C.ar      6 RES6   0.0000
    46 H9       3.3839  14.3106   3.9561   H         6 RES6   0.0000
    47 C18     -3.9720  14.4125   3.0134   C.ar      6 RES6   0.0000
    48 H10     -4.3138  14.8991   3.8173   H         6 RES6   0.0000
    49 C19     -0.3848  15.8369  -0.8353   C.ar      6 RES6   0.0000
    50 H11     -0.4249  15.0798  -1.4280   H         6 RES6   0.0000
    51 C20     -0.2610  17.9824   0.9231   C.ar      6 RES6   0.0000
    52 H12     -0.1778  18.7426   1.5269   H         6 RES6   0.0000
    53 C21     -4.8509  13.6683   2.2366   C.ar      6 RES6   0.0000
    54 H13     -5.7998  13.6498   2.4431   H         6 RES6   0.0000
    55 C22      0.1444  12.6314   3.4716   C.ar      6 RES6   0.0000
    56 H14     -0.7459  12.2017   3.3800   H         6 RES6   0.0000
    57 C23     -0.2148  16.6851   1.4211   C.ar      6 RES6   0.0000
    58 H15     -0.1217  16.5253   2.3251   H         6 RES6   0.0000
    59 C24     -3.0340  12.9639   0.8277   C.ar      6 RES6   0.0000
    60 H16     -2.7498  12.4546   0.0885   H         6 RES6   0.0000
    61 C25     -0.4353  17.1412  -1.3118   C.ar      6 RES6   0.0000
    62 H17     -0.4905  17.2997  -2.2383   H         6 RES6   0.0000
    63 C26     -0.3866  18.2062  -0.4303   C.ar      6 RES6   0.0000
    64 H18     -0.3956  19.1091  -0.8155   H         6 RES6   0.0000
    65 C27     -4.3816  12.9396   1.1573   C.ar      6 RES6   0.0000
    66 H19     -4.9268  12.4572   0.6941   H         6 RES6   0.0000
    67 P1B      0.4223  11.9102  -1.1176   P.3       6 RES6   0.0000
    68 C10B     2.1448  12.0891  -1.5897   C.ar      6 RES6   0.0000
    69 C11B    -2.1984  12.9686  -4.6783   C.ar      6 RES6   0.0000
    70 H5B     -2.7650  13.2884  -5.4310   H         6 RES6   0.0000
    71 C12B    -1.7813  11.5538  -2.7833   C.ar      6 RES6   0.0000
    72 H6B     -2.0665  10.8646  -2.1967   H         6 RES6   0.0000
    73 C13B     0.2857  10.2079  -0.5408   C.ar      6 RES6   0.0000
    74 C14B    -0.5491  12.1704  -2.5935   C.ar      6 RES6   0.0000
    75 C15B     2.6283  11.3679  -2.6900   C.ar      6 RES6   0.0000
    76 H7B      2.0351  10.8801  -3.2100   H         6 RES6   0.0000
    77 C16B    -0.9714  13.5816  -4.5007   C.ar      6 RES6   0.0000
    78 H8B     -0.7017  14.3054  -5.0666   H         6 RES6   0.0000
    79 C17B    -2.6007  11.9451  -3.8352   C.ar      6 RES6   0.0000
    80 H9B     -3.3839  11.5021  -3.9561   H         6 RES6   0.0000
    81 C18B     3.9720  11.4002  -3.0134   C.ar      6 RES6   0.0000
    82 H10B     4.3138  10.9136  -3.8173   H         6 RES6   0.0000
    83 C19B     0.3848   9.9758   0.8353   C.ar      6 RES6   0.0000
    84 H11B     0.4249  10.7329   1.4280   H         6 RES6   0.0000
    85 C20B     0.2610   7.8303  -0.9231   C.ar      6 RES6   0.0000
    86 H12B     0.1778   7.0701  -1.5269   H         6 RES6   0.0000
    87 C21B     4.8509  12.1444  -2.2366   C.ar      6 RES6   0.0000
    88 H13B     5.7998  12.1629  -2.4431   H         6 RES6   0.0000
    89 C22B    -0.1444  13.1813  -3.4716   C.ar      6 RES6   0.0000
    90 H14B     0.7459  13.6110  -3.3800   H         6 RES6   0.0000
    91 C23B     0.2148   9.1276  -1.4211   C.ar      6 RES6   0.0000
    92 H15B     0.1217   9.2874  -2.3251   H         6 RES6   0.0000
    93 C24B     3.0340  12.8488  -0.8277   C.ar      6 RES6   0.0000
    94 H16B     2.7498  13.3581  -0.0885   H         6 RES6   0.0000
    95 C25B     0.4353   8.6715   1.3118   C.ar      6 RES6   0.0000
    96 H17B     0.4905   8.5130   2.2383   H         6 RES6   0.0000
    97 C26B     0.3866   7.6065   0.4303   C.ar      6 RES6   0.0000
    98 H18B     0.3956   6.7036   0.8155   H         6 RES6   0.0000
    99 C27B     4.3816  12.8731  -1.1573   C.ar      6 RES6   0.0000
   100 H19B     4.9268  13.3555  -0.6941   H         6 RES6   0.0000
   101 P2      -0.3554   6.8706  13.2055   P.3       7 RES7   0.0000
   102 P3       0.3628   7.0982  16.1277   P.3       7 RES7   0.0000
   103 N5       0.0349   7.4232  14.6261   N.1       7 RES7   1.0000
   104 C28      0.6423   5.3507  16.4561   C.ar      7 RES7   0.0000
   105 C29      0.7321   7.5629  11.9627   C.ar      7 RES7   0.0000
   106 C30     -2.2682   8.2389  11.6994   C.ar      7 RES7   0.0000
   107 H20     -1.5831   8.4666  11.1742   H         7 RES7   0.0000
   108 C31     -0.2200   3.1006  16.4138   C.ar      7 RES7   0.0000
   109 H21     -0.8775   2.5167  16.3033   H         7 RES7   0.0000
   110 C32     -0.2324   5.0779  13.0527   C.ar      7 RES7   0.0000
   111 C33     -0.4326   4.4635  16.3171   C.ar      7 RES7   0.0000
   112 H22     -1.2937   4.7934  16.1887   H         7 RES7   0.0000
   113 C34     -1.3400   4.2444  12.8871   C.ar      7 RES7   0.0000
   114 H23     -2.2062   4.6050  12.8399   H         7 RES7   0.0000
   115 C35      2.0424   8.6426  17.7599   C.ar      7 RES7   0.0000
   116 H24      1.3175   8.7066  18.3594   H         7 RES7   0.0000
   117 C36      1.0525   2.6040  16.6579   C.ar      7 RES7   0.0000
   118 H25      1.1774   1.6520  16.6885   H         7 RES7   0.0000
   119 C37      1.3939   8.7642  12.2139   C.ar      7 RES7   0.0000
   120 H26      1.2906   9.1713  13.0135   H         7 RES7   0.0000
   121 C38     -4.5903   8.3589  12.2922   C.ar      7 RES7   0.0000
   122 H27     -5.4603   8.6886  12.1320   H         7 RES7   0.0000
   123 C39      2.9547   7.8765  15.6675   C.ar      7 RES7   0.0000
   124 H28      2.8873   7.4392  14.9047   H         7 RES7   0.0000
   125 C40      0.8445   6.9488  10.7182   C.ar      7 RES7   0.0000
   126 H29      0.3828   6.1976  10.5912   H         7 RES7   0.0000
   127 C41      2.1278   3.4690  16.8104   C.ar      7 RES7   0.0000
   128 H30      3.0246   3.1491  16.9435   H         7 RES7   0.0000
   129 C42     -3.0819   7.0629  13.6393   C.ar      7 RES7   0.0000
   130 H31     -2.9546   6.5409  14.3495   H         7 RES7   0.0000
   131 C43     -1.1686   2.8655  12.8519   C.ar      7 RES7   0.0000
   132 H32     -1.8848   2.3154  12.7584   H         7 RES7   0.0000
   133 C44     -4.3619   7.5254  13.3850   C.ar      7 RES7   0.0000
   134 H33     -5.0039   7.2818  13.9504   H         7 RES7   0.0000
   135 C45      4.3323   9.1054  17.1934   C.ar      7 RES7   0.0000
   136 H34      5.1775   9.4397  17.4085   H         7 RES7   0.0000
   137 C46      2.2839   8.7105   9.9822   C.ar      7 RES7   0.0000
   138 H35      2.8120   9.0809   9.2829   H         7 RES7   0.0000
   139 C47      1.1998   3.1380  13.1285   C.ar      7 RES7   0.0000
   140 H36      1.9938   2.7852  13.2408   H         7 RES7   0.0000
   141 C48      1.6177   7.5311   9.7275   C.ar      7 RES7   0.0000
   142 H37      1.7238   7.0701   8.8995   H         7 RES7   0.0000
   143 C49     -3.5486   8.7162  11.4640   C.ar      7 RES7   0.0000
   144 H38     -3.6613   9.2900  10.7751   H         7 RES7   0.0000
   145 C50     -1.0901   7.1708  18.4984   C.ar      7 RES7   0.0000
   146 H39     -0.5452   6.5435  18.7567   H         7 RES7   0.0000
   147 C51     -2.9807   8.6034  18.8608   C.ar      7 RES7   0.0000
   148 H40     -3.6806   8.9518  19.5202   H         7 RES7   0.0000
   149 C52     -1.8436   8.6359  16.7367   C.ar      7 RES7   0.0000
   150 H41     -1.7676   8.9725  15.8938   H         7 RES7   0.0000
   151 C53      1.0394   4.5108  13.1615   C.ar      7 RES7   0.0000
   152 H42      1.8013   5.0670  13.2165   H         7 RES7   0.0000
   153 C54      2.1809   9.3272  11.2141   C.ar      7 RES7   0.0000
   154 H43      2.6143  10.1031  11.3651   H         7 RES7   0.0000
   155 C55      1.9293   4.8438  16.7075   C.ar      7 RES7   0.0000
   156 H44      2.6619   5.4387  16.8394   H         7 RES7   0.0000
   157 C56      1.8797   7.9593  16.5608   C.ar      7 RES7   0.0000
   158 C57     -0.9592   7.6669  17.1969   C.ar      7 RES7   0.0000
   159 C58     -2.0228   7.4015  12.7966   C.ar      7 RES7   0.0000
   160 C59      4.1750   8.4369  15.9807   C.ar      7 RES7   0.0000
   161 H45      4.8354   8.3427  15.3767   H         7 RES7   0.0000
   162 C60      0.0904   2.3144  12.9821   C.ar      7 RES7   0.0000
   163 H46      0.1954   1.3965  13.0083   H         7 RES7   0.0000
   164 C61      3.2681   9.2242  18.0705   C.ar      7 RES7   0.0000
   165 H47      3.3484   9.6643  18.9129   H         7 RES7   0.0000
   166 C62     -2.0877   7.6408  19.3172   C.ar      7 RES7   0.0000
   167 H48     -2.1760   7.3050  20.1622   H         7 RES7   0.0000
   168 C63     -2.8548   9.0982  17.5682   C.ar      7 RES7   0.0000
   169 H49     -3.5008   9.7572  17.3027   H         7 RES7   0.0000
@<TRIPOS>BOND
     1     1     3    1
     2     2     4    1
     3     3     4    3
     4     5     8    1
     5     6     7    1
     6     7     8    3
     7     9    13    1
     8    10    13    3
     9    11    14    3
    10    12    15    3
    11    14     9    1
    12    15     9    1
    13    16    19    3
    14    17    20    3
    15    18    21    3
    16    19     9    1
    17    20     9    1
    18    21     9    1
    19    22    24    1
    20    23    24    1
    21    24    25    1
    22    26    24    1
    23    27    29    1
    24    28    29    1
    25    29    30    1
    26    31    29    1
    27    32    33    2
    28    33    67    2
    29    34    32    1
    30    35    36    1
    31    37    38    1
    32    39    32    1
    33    40    32    1
    34    41    34   ar
    35    42    41    1
    36    43    35   ar
    37    44    43    1
    38    45    35   ar
    39    46    45    1
    40    47    41   ar
    41    48    47    1
    42    49    39   ar
    43    50    49    1
    44    51    52    1
    45    53    47   ar
    46    54    53    1
    47    55    40   ar
    48    56    55    1
    49    57    39   ar
    50    58    57    1
    51    59    34   ar
    52    60    59    1
    53    61    49   ar
    54    62    61    1
    55    63    51   ar
    56    64    63    1
    57    65    53   ar
    58    66    65    1
    59    67    68    1
    60    68    75   ar
    61    69    70    1
    62    71    72    1
    63    73    67    1
    64    74    67    1
    65    75    76    1
    66    77    69   ar
    67    78    77    1
    68    79    69   ar
    69    80    79    1
    70    81    75   ar
    71    82    81    1
    72    83    73   ar
    73    84    83    1
    74    85    86    1
    75    87    81   ar
    76    88    87    1
    77    89    74   ar
    78    90    89    1
    79    91    73   ar
    80    92    91    1
    81    93    68   ar
    82    94    93    1
    83    95    83   ar
    84    96    95    1
    85    97    85   ar
    86    98    97    1
    87    99    87   ar
    88   100    99    1
    89    37    40   ar
    90    37    45   ar
    91    43    55   ar
    92    51    57   ar
    93    59    65   ar
    94    61    63   ar
    95    71    74   ar
    96    71    79   ar
    97    77    89   ar
    98    85    91   ar
    99    93    99   ar
   100    95    97   ar
   101   101   103    2
   102   102   103    2
   103   104   102    1
   104   105   101    1
   105   106   107    1
   106   108   109    1
   107   110   101    1
   108   111   104   ar
   109   112   111    1
   110   113   110   ar
   111   114   113    1
   112   115   116    1
   113   117   108   ar
   114   118   117    1
   115   119   105   ar
   116   120   119    1
   117   121   122    1
   118   123   124    1
   119   125   105   ar
   120   126   125    1
   121   127   117   ar
   122   128   127    1
   123   129   130    1
   124   131   113   ar
   125   132   131    1
   126   133   121   ar
   127   134   133    1
   128   135   136    1
   129   137   138    1
   130   139   140    1
   131   141   125   ar
   132   142   141    1
   133   143   106   ar
   134   144   143    1
   135   145   146    1
   136   147   148    1
   137   149   150    1
   138   151   110   ar
   139   152   151    1
   140   153   119   ar
   141   154   153    1
   142   155   104   ar
   143   156   155    1
   144   157   102    1
   145   158   102    1
   146   159   101    1
   147   160   123   ar
   148   161   160    1
   149   162   131   ar
   150   163   162    1
   151   164   115   ar
   152   165   164    1
   153   166   145   ar
   154   167   166    1
   155   168   147   ar
   156   169   168    1
   157   106   159   ar
   158   108   111   ar
   159   115   157   ar
   160   121   143   ar
   161   123   157   ar
   162   127   155   ar
   163   129   133   ar
   164   129   159   ar
   165   135   160   ar
   166   135   164   ar
   167   137   141   ar
   168   137   153   ar
   169   139   151   ar
   170   139   162   ar
   171   145   158   ar
   172   147   166   ar
   173   149   158   ar
   174   149   168   ar
@<TRIPOS>SUBSTRUCTURE
     1 RES1        1 GROUP             0 ****  ****    0  
     2 RES2        5 GROUP             0 ****  ****    0  
     3 RES3        9 GROUP             0 ****  ****    0  
     4 RES4       22 GROUP             0 ****  ****    0  
     5 RES5       27 GROUP             0 ****  ****    0  
     6 RES6       32 GROUP             0 ****  ****    0  
     7 RES7      101 GROUP             0 ****  ****    0  
@<TRIPOS>CRYSIN
   14.4382   25.8127   18.6885   90.0000  111.8060   90.0000   231     1
