@<TRIPOS>MOLECULE
VABFIR
    96   104     2     0     0
SMALL
USER_CHARGES
****
Generated from the CSD

@<TRIPOS>ATOM
     1 Fe1      5.7774   5.8077   6.5183   Fe        1 RES1   2.0000
     2 N1       4.4583   5.3737   5.0921   N.ar      1 RES1   0.0000
     3 N2       2.7355   4.4525   3.0727   N.ar      1 RES1   0.0000
     4 N3       6.6799   4.2807   5.6944   N.2       1 RES1   0.0000
     5 N4       6.8336   2.7522   4.1313   N.pl3     1 RES1   0.0000
     6 N5       7.7933   3.5372   5.9708   N.2       1 RES1   0.0000
     7 C1       3.2373   5.8925   4.9213   C.ar      1 RES1   0.0000
     8 H1       2.9445   6.5957   5.4884   H         1 RES1   0.0000
     9 C2       2.3897   5.4182   3.9293   C.ar      1 RES1   0.0000
    10 H2       1.5228   5.7986   3.8562   H         1 RES1   0.0000
    11 C3       3.9731   3.9577   3.2227   C.ar      1 RES1   0.0000
    12 H3       4.2764   3.2922   2.6165   H         1 RES1   0.0000
    13 C4       4.8219   4.3791   4.2278   C.ar      1 RES1   0.0000
    14 C5       6.1127   3.8149   4.6098   C.2       1 RES1   0.0000
    15 C6       7.8765   2.6168   5.0269   C.2       1 RES1   0.0000
    16 C7       8.9289   1.5913   5.0087   C.ar      1 RES1   0.0000
    17 C8      10.1717   1.9215   5.5654   C.ar      1 RES1   0.0000
    18 H4      10.3243   2.7955   5.9056   H         1 RES1   0.0000
    19 C9      11.1704   0.9736   5.6162   C.ar      1 RES1   0.0000
    20 H5      12.0166   1.2011   5.9838   H         1 RES1   0.0000
    21 C10     10.9501  -0.3147   5.1325   C.ar      1 RES1   0.0000
    22 H6      11.6459  -0.9601   5.1625   H         1 RES1   0.0000
    23 C11      9.7163  -0.6481   4.6098   C.ar      1 RES1   0.0000
    24 H7       9.5603  -1.5300   4.2930   H         1 RES1   0.0000
    25 C12      8.6982   0.3008   4.5433   C.ar      1 RES1   0.0000
    26 H8       7.8512   0.0677   4.1835   H         1 RES1   0.0000
    27 C13      6.6668   2.1591   2.8172   C.ar      1 RES1   0.0000
    28 C14      5.8210   1.0678   2.6491   C.ar      1 RES1   0.0000
    29 H9       5.4012   0.6631   3.3987   H         1 RES1   0.0000
    30 C15      5.5993   0.5820   1.3689   C.ar      1 RES1   0.0000
    31 H10      5.0262  -0.1659   1.2476   H         1 RES1   0.0000
    32 C16      6.2032   1.1702   0.2568   C.ar      1 RES1   0.0000
    33 C17      7.0689   2.2399   0.4667   C.ar      1 RES1   0.0000
    34 H11      7.4994   2.6447  -0.2777   H         1 RES1   0.0000
    35 C18      7.3162   2.7304   1.7482   C.ar      1 RES1   0.0000
    36 H12      7.9242   3.4473   1.8812   H         1 RES1   0.0000
    37 C19      5.9229   0.6720  -1.1342   C.3       1 RES1   0.0000
    38 H13      5.7900  -0.2991  -1.1133   H         1 RES1   0.0000
    39 H14      6.6822   0.8847  -1.7169   H         1 RES1   0.0000
    40 H15      5.1154   1.1054  -1.4797   H         1 RES1   0.0000
    41 C20      7.2859   7.7362   4.6450   C.1       1 RES1   0.0000
    42 N6       6.7145   7.0144   5.3294   N.1       1 RES1   0.0000
    43 B1       8.1311   8.7022   3.7194   B         1 RES1  -1.0000
    44 H16      7.5647   9.4420   3.4156   H         1 RES1   0.0000
    45 H17      8.4610   8.2044   2.9424   H         1 RES1   0.0000
    46 H18      8.8910   9.0585   4.2252   H         1 RES1   0.0000
    47 N1A      7.0964   6.2418   7.9445   N.ar      1 RES1   0.0000
    48 N2A      8.8192   7.1629   9.9639   N.ar      1 RES1   0.0000
    49 N3A      4.8748   7.3348   7.3423   N.2       1 RES1   0.0000
    50 N4A      4.7212   8.8632   8.9054   N.pl3     1 RES1   0.0000
    51 N5A      3.7614   8.0782   7.0659   N.2       1 RES1   0.0000
    52 C1A      8.3174   5.7230   8.1153   C.ar      1 RES1   0.0000
    53 H1A      8.6102   5.0198   7.5482   H         1 RES1   0.0000
    54 C2A      9.1650   6.1972   9.1074   C.ar      1 RES1   0.0000
    55 H2A     10.0319   5.8169   9.1804   H         1 RES1   0.0000
    56 C3A      7.5816   7.6577   9.8140   C.ar      1 RES1   0.0000
    57 H3A      7.2783   8.3232  10.4202   H         1 RES1   0.0000
    58 C4A      6.7328   7.2363   8.8089   C.ar      1 RES1   0.0000
    59 C5A      5.4420   7.8005   8.4269   C.2       1 RES1   0.0000
    60 C6A      3.6783   8.9986   8.0097   C.2       1 RES1   0.0000
    61 C7A      2.6258  10.0242   8.0280   C.ar      1 RES1   0.0000
    62 C8A      1.3830   9.6939   7.4713   C.ar      1 RES1   0.0000
    63 H4A      1.2304   8.8199   7.1311   H         1 RES1   0.0000
    64 C9A      0.3843  10.6418   7.4205   C.ar      1 RES1   0.0000
    65 H5A     -0.4619  10.4144   7.0528   H         1 RES1   0.0000
    66 C10A     0.6046  11.9301   7.9041   C.ar      1 RES1   0.0000
    67 H6A     -0.0912  12.5755   7.8741   H         1 RES1   0.0000
    68 C11A     1.8385  12.2636   8.4269   C.ar      1 RES1   0.0000
    69 H7A      1.9944  13.1454   8.7437   H         1 RES1   0.0000
    70 C12A     2.8565  11.3147   8.4934   C.ar      1 RES1   0.0000
    71 H8A      3.7035  11.5478   8.8532   H         1 RES1   0.0000
    72 C13A     4.8879   9.4564  10.2194   C.ar      1 RES1   0.0000
    73 C14A     5.7338  10.5476  10.3876   C.ar      1 RES1   0.0000
    74 H9A      6.1535  10.9523   9.6380   H         1 RES1   0.0000
    75 C15A     5.9554  11.0334  11.6678   C.ar      1 RES1   0.0000
    76 H10A     6.5285  11.7813  11.7891   H         1 RES1   0.0000
    77 C16A     5.3515  10.4452  12.7798   C.ar      1 RES1   0.0000
    78 C17A     4.4858   9.3755  12.5700   C.ar      1 RES1   0.0000
    79 H11A     4.0553   8.9707  13.3144   H         1 RES1   0.0000
    80 C18A     4.2385   8.8851  11.2885   C.ar      1 RES1   0.0000
    81 H12A     3.6306   8.1682  11.1555   H         1 RES1   0.0000
    82 C19A     5.6318  10.9434  14.1709   C.3       1 RES1   0.0000
    83 H13A     5.7647  11.9146  14.1500   H         1 RES1   0.0000
    84 H14A     4.8725  10.7307  14.7536   H         1 RES1   0.0000
    85 H15A     6.4394  10.5101  14.5163   H         1 RES1   0.0000
    86 C20A     4.2688   3.8793   8.3917   C.1       1 RES1   0.0000
    87 N6A      4.8402   4.6010   7.7073   N.1       1 RES1   0.0000
    88 B1A      3.4236   2.9132   9.3173   B         1 RES1  -1.0000
    89 H16A     3.9900   2.1734   9.6211   H         1 RES1   0.0000
    90 H17A     3.0937   3.4110  10.0943   H         1 RES1   0.0000
    91 H18A     2.6637   2.5569   8.8115   H         1 RES1   0.0000
    92 C21      5.8615   7.4912   1.4353   C.3       2 RES2   0.0000
    93 H19      6.4956   7.8341   2.1276   H         2 RES2   0.0000
    94 Cl1      5.9560   8.5598   0.0306   Cl        2 RES2   0.0000
    95 Cl2      4.2338   7.5248   2.1216   Cl        2 RES2   0.0000
    96 Cl3      6.3194   5.8617   1.0508   Cl        2 RES2   0.0000
@<TRIPOS>BOND
     1     1     2    1
     2     2     7   ar
     3     3     9   ar
     4     4     1    1
     5     5    14    1
     6     6     4    1
     7     7     8    1
     8     9     7   ar
     9    10     9    1
    10    11     3   ar
    11    12    11    1
    12    13     2   ar
    13    14     4    2
    14    15     5    1
    15    16    15    1
    16    17    16   ar
    17    18    17    1
    18    19    17   ar
    19    20    19    1
    20    21    19   ar
    21    22    21    1
    22    23    21   ar
    23    24    23    1
    24    25    16   ar
    25    26    25    1
    26    27     5    1
    27    28    27   ar
    28    29    28    1
    29    30    28   ar
    30    31    30    1
    31    32    30   ar
    32    33    32   ar
    33    34    33    1
    34    35    27   ar
    35    36    35    1
    36    37    32    1
    37    38    37    1
    38    39    37    1
    39    40    37    1
    40    41    42    3
    41    42     1    1
    42    43    41    1
    43    44    43    1
    44    45    43    1
    45    46    43    1
    46    47     1    1
    47    48    54   ar
    48    49     1    1
    49    50    59    1
    50    51    49    1
    51    52    47   ar
    52    53    52    1
    53    54    52   ar
    54    55    54    1
    55    56    48   ar
    56    57    56    1
    57    58    47   ar
    58    59    49    2
    59    60    50    1
    60    61    60    1
    61    62    61   ar
    62    63    62    1
    63    64    62   ar
    64    65    64    1
    65    66    64   ar
    66    67    66    1
    67    68    66   ar
    68    69    68    1
    69    70    61   ar
    70    71    70    1
    71    72    50    1
    72    73    72   ar
    73    74    73    1
    74    75    73   ar
    75    76    75    1
    76    77    75   ar
    77    78    77   ar
    78    79    78    1
    79    80    72   ar
    80    81    80    1
    81    82    77    1
    82    83    82    1
    83    84    82    1
    84    85    82    1
    85    86    87    3
    86    87     1    1
    87    88    86    1
    88    89    88    1
    89    90    88    1
    90    91    88    1
    91     6    15    2
    92    11    13   ar
    93    13    14    1
    94    23    25   ar
    95    33    35   ar
    96    51    60    2
    97    56    58   ar
    98    58    59    1
    99    68    70   ar
   100    78    80   ar
   101    92    93    1
   102    94    92    1
   103    95    92    1
   104    96    92    1
@<TRIPOS>SUBSTRUCTURE
     1 RES1        1 GROUP             0 ****  ****    0  
     2 RES2       92 GROUP             0 ****  ****    0  
@<TRIPOS>CRYSIN
    7.5100   11.6149   13.2703   88.0990   79.2430   82.2420     2     1
