@<TRIPOS>MOLECULE
VACJAN
    89    93     3     0     0
SMALL
NO_CHARGES
****
Generated from the CSD

@<TRIPOS>ATOM
     1 Br1     11.1572   5.2986   9.7489   Br        1 RES1   0.0000
     2 Br2     11.0845   7.3041   6.8077   Br        1 RES1   0.0000
     3 Fe1      9.3542   6.2715   8.3085   Fe        1 RES1   0.0000
     4 P1       9.3536   8.1218   9.6391   P.3       1 RES1   0.0000
     5 P2       9.4261   4.4417   6.9540   P.3       1 RES1   0.0000
     6 N1       7.8967   5.7763   9.4870   N.2       1 RES1   0.0000
     7 N2       7.8478   6.7009   7.1968   N.2       1 RES1   0.0000
     8 C1       5.4066   5.6983   9.8146   C.3       1 RES1   0.0000
     9 H1       4.9943   4.8730   9.4810   H         1 RES1   0.0000
    10 H2       4.7848   6.4447   9.6949   H         1 RES1   0.0000
    11 H3       5.6167   5.5964  10.7660   H         1 RES1   0.0000
    12 C2       6.6764   5.9714   9.0457   C.2       1 RES1   0.0000
    13 C3       6.6601   6.4582   7.7024   C.2       1 RES1   0.0000
    14 C4       5.3570   6.6663   6.9978   C.3       1 RES1   0.0000
    15 H4       5.5254   6.9439   6.0734   H         1 RES1   0.0000
    16 H5       4.8422   7.3591   7.4601   H         1 RES1   0.0000
    17 H6       4.8488   5.8282   6.9978   H         1 RES1   0.0000
    18 C5       8.0533   5.4115  10.9126   C.3       1 RES1   0.0000
    19 H7       8.9027   4.9188  11.0412   H         1 RES1   0.0000
    20 H8       7.3079   4.8220  11.1908   H         1 RES1   0.0000
    21 C6       8.0572   6.6783  11.7667   C.3       1 RES1   0.0000
    22 H9       8.1503   6.4217  12.7196   H         1 RES1   0.0000
    23 H10      7.1865   7.1375  11.6635   H         1 RES1   0.0000
    24 C7       9.1811   7.6544  11.4032   C.3       1 RES1   0.0000
    25 H11     10.0379   7.2573  11.6994   H         1 RES1   0.0000
    26 H12      9.0458   8.4825  11.9268   H         1 RES1   0.0000
    27 C8       7.9638   9.2538   9.3150   C.ar      1 RES1   0.0000
    28 C9       7.0713   9.7060  10.2903   C.ar      1 RES1   0.0000
    29 H13      7.1772   9.4276  11.1923   H         1 RES1   0.0000
    30 C10      6.0232  10.5685   9.9462   C.ar      1 RES1   0.0000
    31 H14      5.4275  10.8897  10.6134   H         1 RES1   0.0000
    32 C11      5.8654  10.9457   8.6448   C.ar      1 RES1   0.0000
    33 H15      5.1415  11.5138   8.4085   H         1 RES1   0.0000
    34 C12      6.7366  10.5193   7.6650   C.ar      1 RES1   0.0000
    35 H16      6.6127  10.7955   6.7645   H         1 RES1   0.0000
    36 C13      7.7996   9.6810   7.9986   C.ar      1 RES1   0.0000
    37 H17      8.4123   9.4021   7.3284   H         1 RES1   0.0000
    38 C14     10.7788   9.2785   9.7727   C.ar      1 RES1   0.0000
    39 C15     12.0833   8.7994   9.6201   C.ar      1 RES1   0.0000
    40 H18     12.2312   7.8890   9.3957   H         1 RES1   0.0000
    41 C16     13.1559   9.6504   9.7966   C.ar      1 RES1   0.0000
    42 H19     14.0416   9.3257   9.6860   H         1 RES1   0.0000
    43 C17     12.9432  10.9733  10.1347   C.ar      1 RES1   0.0000
    44 H20     13.6852  11.5546  10.2559   H         1 RES1   0.0000
    45 C18     11.6524  11.4585  10.2963   C.ar      1 RES1   0.0000
    46 H21     11.5120  12.3671  10.5326   H         1 RES1   0.0000
    47 C19     10.5755  10.6169  10.1153   C.ar      1 RES1   0.0000
    48 H22      9.6920  10.9483  10.2230   H         1 RES1   0.0000
    49 C20      7.9814   7.0876   5.7607   C.3       1 RES1   0.0000
    50 H23      8.8129   7.6088   5.6306   H         1 RES1   0.0000
    51 H24      7.2150   7.6546   5.4944   H         1 RES1   0.0000
    52 C21      8.0180   5.8438   4.9006   C.3       1 RES1   0.0000
    53 H25      8.0631   6.1186   3.9507   H         1 RES1   0.0000
    54 H26      7.1706   5.3468   5.0262   H         1 RES1   0.0000
    55 C22      9.1895   4.8939   5.1923   C.3       1 RES1   0.0000
    56 H27     10.0231   5.3162   4.8632   H         1 RES1   0.0000
    57 H28      9.0536   4.0629   4.6717   H         1 RES1   0.0000
    58 C23      8.0827   3.2600   7.3494   C.ar      1 RES1   0.0000
    59 C24      7.9822   2.7822   8.6358   C.ar      1 RES1   0.0000
    60 H29      8.6293   3.0440   9.2791   H         1 RES1   0.0000
    61 C25      6.9560   1.9232   9.0158   C.ar      1 RES1   0.0000
    62 H30      6.9056   1.5895   9.9029   H         1 RES1   0.0000
    63 C26      6.0114   1.5640   8.0719   C.ar      1 RES1   0.0000
    64 H31      5.2787   1.0164   8.3262   H         1 RES1   0.0000
    65 C27      6.1162   1.9869   6.7929   C.ar      1 RES1   0.0000
    66 H32      5.4818   1.6940   6.1481   H         1 RES1   0.0000
    67 C28      7.1551   2.8555   6.4054   C.ar      1 RES1   0.0000
    68 H33      7.2193   3.1587   5.5064   H         1 RES1   0.0000
    69 C29     10.8834   3.3375   6.7540   C.ar      1 RES1   0.0000
    70 C30     10.7007   1.9968   6.4069   C.ar      1 RES1   0.0000
    71 H34      9.8225   1.6481   6.3127   H         1 RES1   0.0000
    72 C31     11.7979   1.1738   6.1975   C.ar      1 RES1   0.0000
    73 H35     11.6683   0.2598   5.9761   H         1 RES1   0.0000
    74 C32     13.0907   1.6827   6.3112   C.ar      1 RES1   0.0000
    75 H36     13.8424   1.1285   6.1392   H         1 RES1   0.0000
    76 C33     13.2638   2.9908   6.6702   C.ar      1 RES1   0.0000
    77 H37     14.1451   3.3344   6.7675   H         1 RES1   0.0000
    78 C34     12.1793   3.8304   6.8961   C.ar      1 RES1   0.0000
    79 H38     12.3195   4.7354   7.1459   H         1 RES1   0.0000
    80 C35      1.7128  10.6732   6.4398   C.3       2 RES2   0.0000
    81 H39      1.3467  10.2121   7.2491   H         2 RES2   0.0000
    82 Cl1      0.5333  10.5682   5.1612   Cl        2 RES2   0.0000
    83 Cl2      2.0390  12.3249   6.8452   Cl        2 RES2   0.0000
    84 Cl3      3.2049   9.8603   5.9582   Cl        2 RES2   0.0000
    85 C36      1.7736   1.9838  10.2574   C.3       3 RES3   0.0000
    86 H40      1.4955   2.6033   9.5244   H         3 RES3   0.0000
    87 Cl4      2.4502   0.5194   9.5379   Cl        3 RES3   0.0000
    88 Cl5      0.3657   1.5964  11.2347   Cl        3 RES3   0.0000
    89 Cl6      2.9935   2.7671  11.2163   Cl        3 RES3   0.0000
@<TRIPOS>BOND
     1     1     3    1
     2     2     3    1
     3     3     4    1
     4     4    24    1
     5     5     3    1
     6     6     3    1
     7     7     3    1
     8     8     9    1
     9    10     8    1
    10    11     8    1
    11    12     6    2
    12    13     7    2
    13    14    13    1
    14    15    14    1
    15    16    14    1
    16    17    14    1
    17    18     6    1
    18    19    18    1
    19    20    18    1
    20    21    18    1
    21    22    21    1
    22    23    21    1
    23    24    21    1
    24    25    24    1
    25    26    24    1
    26    27     4    1
    27    28    27   ar
    28    29    28    1
    29    30    28   ar
    30    31    30    1
    31    32    30   ar
    32    33    32    1
    33    34    32   ar
    34    35    34    1
    35    36    27   ar
    36    37    36    1
    37    38     4    1
    38    39    38   ar
    39    40    39    1
    40    41    39   ar
    41    42    41    1
    42    43    41   ar
    43    44    43    1
    44    45    43   ar
    45    46    45    1
    46    47    38   ar
    47    48    47    1
    48    49     7    1
    49    50    49    1
    50    51    49    1
    51    52    49    1
    52    53    52    1
    53    54    52    1
    54    55     5    1
    55    56    55    1
    56    57    55    1
    57    58     5    1
    58    59    58   ar
    59    60    59    1
    60    61    59   ar
    61    62    61    1
    62    63    61   ar
    63    64    63    1
    64    65    63   ar
    65    66    65    1
    66    67    58   ar
    67    68    67    1
    68    69     5    1
    69    70    69   ar
    70    71    70    1
    71    72    70   ar
    72    73    72    1
    73    74    72   ar
    74    75    74    1
    75    76    74   ar
    76    77    76    1
    77    78    69   ar
    78    79    78    1
    79     8    12    1
    80    12    13    1
    81    34    36   ar
    82    45    47   ar
    83    52    55    1
    84    65    67   ar
    85    76    78   ar
    86    80    81    1
    87    82    80    1
    88    83    80    1
    89    84    80    1
    90    85    86    1
    91    87    85    1
    92    88    85    1
    93    89    85    1
@<TRIPOS>SUBSTRUCTURE
     1 RES1        1 GROUP             0 ****  ****    0  
     2 RES2       80 GROUP             0 ****  ****    0  
     3 RES3       85 GROUP             0 ****  ****    0  
@<TRIPOS>CRYSIN
   10.6315   25.4730   14.9590   90.0000   90.0280   90.0000   231     1
