@<TRIPOS>MOLECULE
VAGYOR
   140   141     1     0     0
SMALL
NO_CHARGES
****
Generated from the CSD

@<TRIPOS>ATOM
     1 Fe1      3.1559  13.7672   8.2775   Fe        1 RES1   0.0000
     2 Ga1      1.5155  14.4619   6.5469   Ga        1 RES1   0.0000
     3 Ga2      1.5034  11.9290   7.9780   Ga        1 RES1   0.0000
     4 Ga3      1.2766  11.6618   4.5192   Ga        1 RES1   0.0000
     5 Si1      0.6959  16.6271   5.9121   Si        1 RES1   0.0000
     6 Si2      2.3589  17.6559   4.6055   Si        1 RES1   0.0000
     7 Si3     -1.2238  16.2531   4.6084   Si        1 RES1   0.0000
     8 Si4      0.1838  17.9538   7.7873   Si        1 RES1   0.0000
     9 Si5      0.6733  10.2474   9.4729   Si        1 RES1   0.0000
    10 Si6     -1.2617   9.4133   8.4347   Si        1 RES1   0.0000
    11 Si7      2.3123   8.5596   9.6284   Si        1 RES1   0.0000
    12 Si8      0.1619  11.0640  11.6173   Si        1 RES1   0.0000
    13 Si9      2.1056  10.5374   2.5863   Si        1 RES1   0.0000
    14 Si10     3.4291   8.7127   3.2388   Si        1 RES1   0.0000
    15 Si11     3.3519  12.0886   1.3420   Si        1 RES1   0.0000
    16 Si12     0.1918   9.8267   1.4234   Si        1 RES1   0.0000
    17 O1       0.2181  13.1287   7.1303   O.3       1 RES1   0.0000
    18 O2       1.8235  13.4749   4.8480   O.3       1 RES1   0.0000
    19 O3       1.7898  11.0047   6.2387   O.3       1 RES1   0.0000
    20 O4      -0.6126  11.8731   4.8068   O.3       1 RES1   0.0000
    21 C1       3.3426  16.3554   3.6851   C.3       1 RES1   0.0000
    22 H1       2.7569  15.8636   3.1060   H         1 RES1   0.0000
    23 H2       3.7472  15.7568   4.3174   H         1 RES1   0.0000
    24 H3       4.0270  16.7825   3.1642   H         1 RES1   0.0000
    25 C2       3.5426  18.6625   5.6306   C.3       1 RES1   0.0000
    26 H4       3.9892  18.0893   6.2581   H         1 RES1   0.0000
    27 H5       3.0571  19.3398   6.1079   H         1 RES1   0.0000
    28 H6       4.1908  19.0756   5.0564   H         1 RES1   0.0000
    29 C3       1.6049  18.7862   3.3338   C.3       1 RES1   0.0000
    30 H7       1.0244  18.2804   2.7620   H         1 RES1   0.0000
    31 H8       2.3010  19.1880   2.8104   H         1 RES1   0.0000
    32 H9       1.0992  19.4719   3.7771   H         1 RES1   0.0000
    33 C4      -2.4372  15.1695   5.5094   C.3       1 RES1   0.0000
    34 H10     -2.0490  14.3011   5.6499   H         1 RES1   0.0000
    35 H11     -3.2374  15.0795   4.9885   H         1 RES1   0.0000
    36 H12     -2.6512  15.5629   6.3598   H         1 RES1   0.0000
    37 C5      -0.7744  15.3858   3.0188   C.3       1 RES1   0.0000
    38 H13     -0.1313  15.9114   2.5367   H         1 RES1   0.0000
    39 H14     -1.5623  15.2734   2.4809   H         1 RES1   0.0000
    40 H15     -0.3983  14.5259   3.2175   H         1 RES1   0.0000
    41 C6      -2.0440  17.8673   4.1793   C.3       1 RES1   0.0000
    42 H16     -1.4016  18.4546   3.7747   H         1 RES1   0.0000
    43 H17     -2.3889  18.2747   4.9788   H         1 RES1   0.0000
    44 H18     -2.7645  17.7071   3.5663   H         1 RES1   0.0000
    45 C7      -0.1876  19.6967   7.1933   C.3       1 RES1   0.0000
    46 H19     -0.9943  19.6911   6.6724   H         1 RES1   0.0000
    47 H20      0.5408  20.0114   6.6506   H         1 RES1   0.0000
    48 H21     -0.2972  20.2756   7.9492   H         1 RES1   0.0000
    49 C8       1.5959  18.0864   8.9813   C.3       1 RES1   0.0000
    50 H22      2.3258  18.5501   8.5621   H         1 RES1   0.0000
    51 H23      1.8802  17.2069   9.2405   H         1 RES1   0.0000
    52 H24      1.3118  18.5754   9.7590   H         1 RES1   0.0000
    53 C9      -1.2765  17.2546   8.7027   C.3       1 RES1   0.0000
    54 H25     -1.1269  16.3245   8.8795   H         1 RES1   0.0000
    55 H26     -2.0663  17.3558   8.1648   H         1 RES1   0.0000
    56 H27     -1.3907  17.7267   9.5313   H         1 RES1   0.0000
    57 C10     -2.4375  10.8024   8.0122   C.3       1 RES1   0.0000
    58 H28     -2.6803  11.2717   8.8141   H         1 RES1   0.0000
    59 H29     -3.2267  10.4399   7.6027   H         1 RES1   0.0000
    60 H30     -2.0099  11.4094   7.4040   H         1 RES1   0.0000
    61 C11     -2.1459   8.2226   9.5724   C.3       1 RES1   0.0000
    62 H31     -2.3956   8.6779  10.3817   H         1 RES1   0.0000
    63 H32     -1.5635   7.4920   9.7857   H         1 RES1   0.0000
    64 H33     -2.9345   7.8910   9.1388   H         1 RES1   0.0000
    65 C12     -0.8221   8.5261   6.8638   C.3       1 RES1   0.0000
    66 H34     -0.4222   9.1444   6.2484   H         1 RES1   0.0000
    67 H35     -1.6176   8.1552   6.4737   H         1 RES1   0.0000
    68 H36     -0.2018   7.8180   7.0576   H         1 RES1   0.0000
    69 C13      3.2918   8.4615   8.0364   C.3       1 RES1   0.0000
    70 H37      3.7762   9.2821   7.9080   H         1 RES1   0.0000
    71 H38      2.6921   8.3266   7.2999   H         1 RES1   0.0000
    72 H39      3.9105   7.7281   8.0873   H         1 RES1   0.0000
    73 C14      3.5023   8.8830  11.0285   C.3       1 RES1   0.0000
    74 H40      3.0184   8.9252  11.8547   H         1 RES1   0.0000
    75 H41      3.9552   9.7149  10.8783   H         1 RES1   0.0000
    76 H42      4.1465   8.1721  11.0722   H         1 RES1   0.0000
    77 C15      1.5369   6.8850   9.9044   C.3       1 RES1   0.0000
    78 H43      0.9475   6.9271  10.6627   H         1 RES1   0.0000
    79 H44      2.2254   6.2386  10.0715   H         1 RES1   0.0000
    80 H45      1.0390   6.6321   9.1242   H         1 RES1   0.0000
    81 C16      1.5709  12.0642  12.3029   C.3       1 RES1   0.0000
    82 H46      2.3797  11.5499  12.2593   H         1 RES1   0.0000
    83 H47      1.3872  12.2890  13.2187   H         1 RES1   0.0000
    84 H48      1.6740  12.8679  11.7893   H         1 RES1   0.0000
    85 C17     -0.1399   9.6137  12.7633   C.3       1 RES1   0.0000
    86 H49      0.6237   9.0320  12.7487   H         1 RES1   0.0000
    87 H50     -0.9161   9.1303  12.4701   H         1 RES1   0.0000
    88 H51     -0.2819   9.9369  13.6548   H         1 RES1   0.0000
    89 C18     -1.3647  12.1344  11.5858   C.3       1 RES1   0.0000
    90 H52     -2.1287  11.5949  11.3653   H         1 RES1   0.0000
    91 H53     -1.2588  12.8229  10.9244   H         1 RES1   0.0000
    92 H54     -1.4933  12.5335  12.4483   H         1 RES1   0.0000
    93 C19      4.7386   9.2315   4.4700   C.3       1 RES1   0.0000
    94 H55      4.3160   9.5856   5.2550   H         1 RES1   0.0000
    95 H56      5.2987   9.9031   4.0776   H         1 RES1   0.0000
    96 H57      5.2715   8.4699   4.7099   H         1 RES1   0.0000
    97 C20      2.3525   7.3880   4.0146   C.3       1 RES1   0.0000
    98 H58      1.8186   7.7758   4.7123   H         1 RES1   0.0000
    99 H59      2.9099   6.6995   4.3853   H         1 RES1   0.0000
   100 H60      1.7781   7.0086   3.3459   H         1 RES1   0.0000
   101 C21      4.2953   7.9866   1.7444   C.3       1 RES1   0.0000
   102 H61      3.6406   7.6915   1.1072   H         1 RES1   0.0000
   103 H62      4.8343   7.2419   2.0182   H         1 RES1   0.0000
   104 H63      4.8543   8.6554   1.3422   H         1 RES1   0.0000
   105 C22      4.8293  12.6712   2.3259   C.3       1 RES1   0.0000
   106 H64      5.3765  11.9181   2.5585   H         1 RES1   0.0000
   107 H65      4.5287  13.1068   3.1278   H         1 RES1   0.0000
   108 H66      5.3420  13.2894   1.8001   H         1 RES1   0.0000
   109 C23      3.9554  11.3476  -0.2544   C.3       1 RES1   0.0000
   110 H67      3.2059  11.0188  -0.7559   H         1 RES1   0.0000
   111 H68      4.5548  10.6226  -0.0630   H         1 RES1   0.0000
   112 H69      4.4139  12.0192  -0.7632   H         1 RES1   0.0000
   113 C24      2.2909  13.5676   0.9085   C.3       1 RES1   0.0000
   114 H70      1.6044  13.3007   0.2932   H         1 RES1   0.0000
   115 H71      2.8372  14.2449   0.5039   H         1 RES1   0.0000
   116 H72      1.8876  13.9189   1.7056   H         1 RES1   0.0000
   117 C25     -0.9061   8.8015   2.5464   C.3       1 RES1   0.0000
   118 H73     -0.4133   8.0484   2.8759   H         1 RES1   0.0000
   119 H74     -1.6714   8.4952   2.0545   H         1 RES1   0.0000
   120 H75     -1.1974   9.3411   3.2853   H         1 RES1   0.0000
   121 C26     -0.7939  11.2661   0.8068   C.3       1 RES1   0.0000
   122 H76     -1.0711  11.8057   1.5506   H         1 RES1   0.0000
   123 H77     -1.5667  10.9457   0.3368   H         1 RES1   0.0000
   124 H78     -0.2532  11.7916   0.2132   H         1 RES1   0.0000
   125 C27      0.6646   8.7650  -0.0242   C.3       1 RES1   0.0000
   126 H79      1.0411   7.9416   0.2932   H         1 RES1   0.0000
   127 H80      1.3119   9.2287  -0.5621   H         1 RES1   0.0000
   128 H81     -0.1148   8.5795  -0.5524   H         1 RES1   0.0000
   129 C28      4.0576  12.9241   9.5943   C.1       1 RES1   0.0000
   130 O5       4.6146  12.3902  10.4301   O.2       1 RES1   0.0000
   131 C29      4.0579  15.3072   8.2133   C.1       1 RES1   0.0000
   132 O6       4.6234  16.3020   8.1793   O.2       1 RES1   0.0000
   133 C30      1.7799  14.3123   9.2696   C.1       1 RES1   0.0000
   134 O7       0.9024  14.6664   9.9165   O.2       1 RES1   0.0000
   135 C31      3.9534  12.9747   6.9025   C.1       1 RES1   0.0000
   136 O8       4.4912  12.4857   6.0037   O.2       1 RES1   0.0000
   137 H82     -0.2481  12.7162   6.2556   H         1 RES1   0.0000
   138 H83      2.1199  13.6126   4.3538   H         1 RES1   0.0000
   139 H84      2.1395  10.5298   6.2387   H         1 RES1   0.0000
   140 H85     -1.0912  11.7551   4.5815   H         1 RES1   0.0000
@<TRIPOS>BOND
     1     1     2    1
     2     2     5    1
     3     3     1    1
     4     4    13    1
     5     5     6    1
     6     6    21    1
     7     7     5    1
     8     8     5    1
     9     9     3    1
    10    10     9    1
    11    11     9    1
    12    12     9    1
    13    13    14    1
    14    14    93    1
    15    15    13    1
    16    16    13    1
    17    17     2    1
    18    18     2    1
    19    19     3    1
    20    20     4    1
    21    21    22    1
    22    23    21    1
    23    24    21    1
    24    25     6    1
    25    26    25    1
    26    27    25    1
    27    28    25    1
    28    29     6    1
    29    30    29    1
    30    31    29    1
    31    32    29    1
    32    33     7    1
    33    34    33    1
    34    35    33    1
    35    36    33    1
    36    37     7    1
    37    38    37    1
    38    39    37    1
    39    40    37    1
    40    41     7    1
    41    42    41    1
    42    43    41    1
    43    44    41    1
    44    45     8    1
    45    46    45    1
    46    47    45    1
    47    48    45    1
    48    49     8    1
    49    50    49    1
    50    51    49    1
    51    52    49    1
    52    53     8    1
    53    54    53    1
    54    55    53    1
    55    56    53    1
    56    57    10    1
    57    58    57    1
    58    59    57    1
    59    60    57    1
    60    61    10    1
    61    62    61    1
    62    63    61    1
    63    64    61    1
    64    65    10    1
    65    66    65    1
    66    67    65    1
    67    68    65    1
    68    69    11    1
    69    70    69    1
    70    71    69    1
    71    72    69    1
    72    73    11    1
    73    74    73    1
    74    75    73    1
    75    76    73    1
    76    77    11    1
    77    78    77    1
    78    79    77    1
    79    80    77    1
    80    81    12    1
    81    82    81    1
    82    83    81    1
    83    84    81    1
    84    85    12    1
    85    86    85    1
    86    87    85    1
    87    88    85    1
    88    89    12    1
    89    90    89    1
    90    91    89    1
    91    92    89    1
    92    93    94    1
    93    95    93    1
    94    96    93    1
    95    97    14    1
    96    98    97    1
    97    99    97    1
    98   100    97    1
    99   101    14    1
   100   102   101    1
   101   103   101    1
   102   104   101    1
   103   105    15    1
   104   106   105    1
   105   107   105    1
   106   108   105    1
   107   109    15    1
   108   110   109    1
   109   111   109    1
   110   112   109    1
   111   113    15    1
   112   114   113    1
   113   115   113    1
   114   116   113    1
   115   117    16    1
   116   118   117    1
   117   119   117    1
   118   120   117    1
   119   121    16    1
   120   122   121    1
   121   123   121    1
   122   124   121    1
   123   125    16    1
   124   126   125    1
   125   127   125    1
   126   128   125    1
   127   129     1    1
   128   130   129    3
   129   131     1    1
   130   132   131    3
   131   133     1    1
   132   134   133    3
   133   135     1    1
   134   136   135    3
   135   137    17    1
   136   138    18    1
   137   139    19    1
   138   140    20    1
   139     3    17    1
   140     4    18    1
   141     4    19    1
@<TRIPOS>SUBSTRUCTURE
     1 RES1        1 GROUP             0 ****  ****    0  
@<TRIPOS>CRYSIN
    9.3260   28.1020   24.6050   90.0000  100.0440   90.0000    14     1
