@<TRIPOS>MOLECULE
VAHHAP
    80    85     3     0     0
SMALL
USER_CHARGES
****
Generated from the CSD

@<TRIPOS>ATOM
     1 C1       9.6595  10.6818  16.1962   C.3       1 RES1   0.0000
     2 H1       9.5850   9.9745  16.8846   H         1 RES1   0.0000
     3 H2       8.9736  10.5128  15.5037   H         1 RES1   0.0000
     4 C2       9.4302  12.0360  16.8249   C.ar      1 RES1   0.0000
     5 C3       8.1903  12.5536  17.0657   C.ar      1 RES1   0.0000
     6 H3       7.4108  12.0930  16.7732   H         1 RES1   0.0000
     7 C4       8.0814  13.7663  17.7441   C.ar      1 RES1   0.0000
     8 H4       7.2293  14.1389  17.9431   H         1 RES1   0.0000
     9 C5       9.2411  14.4149  18.1222   C.ar      1 RES1   0.0000
    10 H5       9.1991  15.2395  18.5918   H         1 RES1   0.0000
    11 C6      10.4428  13.8560  17.8118   C.ar      1 RES1   0.0000
    12 H6      11.2318  14.3304  18.0466   H         1 RES1   0.0000
    13 C7      10.9644  11.3356  14.2642   C.3       1 RES1   0.0000
    14 H7      10.0989  11.8083  14.1627   H         1 RES1   0.0000
    15 H8      11.0236  10.6542  13.5479   H         1 RES1   0.0000
    16 C8      12.0839  12.3207  14.0970   C.ar      1 RES1   0.0000
    17 C9      12.4259  12.8537  12.8873   C.ar      1 RES1   0.0000
    18 H9      11.9616  12.5794  12.1053   H         1 RES1   0.0000
    19 C10     13.4289  13.7784  12.7918   C.ar      1 RES1   0.0000
    20 H10     13.6811  14.1355  11.9481   H         1 RES1   0.0000
    21 C11     14.0594  14.1717  13.9398   C.ar      1 RES1   0.0000
    22 H11     14.7510  14.8221  13.9020   H         1 RES1   0.0000
    23 C12     13.6945  13.6335  15.1356   C.ar      1 RES1   0.0000
    24 H12     14.1473  13.9112  15.9236   H         1 RES1   0.0000
    25 C13     11.5471   9.2759  15.5057   C.3       1 RES1   0.0000
    26 H13     11.1268   8.7859  14.7556   H         1 RES1   0.0000
    27 H14     11.3656   8.7808  16.3434   H         1 RES1   0.0000
    28 C14     13.0277   9.3828  15.2829   C.3       1 RES1   0.0000
    29 H15     13.4289   8.4771  15.2809   H         1 RES1   0.0000
    30 H16     13.2016   9.7986  14.4014   H         1 RES1   0.0000
    31 C15     13.9065   9.4070  17.5790   C.3       1 RES1   0.0000
    32 H17     14.6937   9.7761  18.0506   H         1 RES1   0.0000
    33 H18     14.1186   8.4771  17.3124   H         1 RES1   0.0000
    34 C16     12.7392   9.3949  18.5122   C.ar      1 RES1   0.0000
    35 C17     12.5959   8.4599  19.5030   C.ar      1 RES1   0.0000
    36 H19     13.1557   7.6922  19.5209   H         1 RES1   0.0000
    37 C18     11.6407   8.6376  20.4740   C.ar      1 RES1   0.0000
    38 H20     11.5509   8.0079  21.1784   H         1 RES1   0.0000
    39 C19     10.8173   9.7330  20.4163   C.ar      1 RES1   0.0000
    40 H21     10.1581   9.8796  21.0829   H         1 RES1   0.0000
    41 C20     10.9682  10.6007  19.3837   C.ar      1 RES1   0.0000
    42 H22     10.3855  11.3494  19.3379   H         1 RES1   0.0000
    43 C21     14.9802  10.7318  15.8539   C.3       1 RES1   0.0000
    44 H23     15.3127  11.4133  16.4906   H         1 RES1   0.0000
    45 H24     14.8217  11.1873  14.9884   H         1 RES1   0.0000
    46 C22     16.0673   9.6951  15.6550   C.ar      1 RES1   0.0000
    47 C23     16.1036   8.8929  14.5188   C.ar      1 RES1   0.0000
    48 H25     15.4559   9.0050  13.8324   H         1 RES1   0.0000
    49 C24     17.1028   7.9217  14.3915   C.ar      1 RES1   0.0000
    50 H26     17.1181   7.3610  13.6235   H         1 RES1   0.0000
    51 C25     18.0619   7.7716  15.3665   C.ar      1 RES1   0.0000
    52 H27     18.7382   7.1091  15.2749   H         1 RES1   0.0000
    53 C26     18.0351   8.5927  16.4847   C.ar      1 RES1   0.0000
    54 H28     18.7000   8.5030  17.1572   H         1 RES1   0.0000
    55 C27     17.0397   9.5398  16.6120   C.ar      1 RES1   0.0000
    56 H29     17.0283  10.0987  17.3800   H         1 RES1   0.0000
    57 Fe1     12.2851  11.6801  16.8872   Fe        1 RES1   2.0000
    58 N1      10.9892  10.6473  15.5953   N.3       1 RES1   0.0000
    59 N2      10.5746  12.6726  17.1930   N.ar      1 RES1   0.0000
    60 N3      12.7010  12.7088  15.2371   N.ar      1 RES1   0.0000
    61 N4      13.6563  10.2109  16.3633   N.3       1 RES1   0.0000
    62 N5      11.9158  10.4558  18.4107   N.ar      1 RES1   0.0000
    63 N6      13.2913  12.6122  17.9451   N.2       1 RES1   0.0000
    64 O1      13.4805  12.8658  19.0872   O.2       1 RES1   0.0000
    65 C28     16.7150   0.7228  10.3066   C.3       2 RES2   0.0000
    66 F1      17.6473  -0.0914   9.8052   F         2 RES2   0.0000
    67 F2      15.9947   1.1558   9.2700   F         2 RES2   0.0000
    68 F3      17.3645   1.7631  10.8061   F         2 RES2   0.0000
    69 O2      14.7701   0.8988  11.9342   O.3       2 RES2  -1.0000
    70 O3      16.6653  -0.4589  12.5550   O.2       2 RES2   0.0000
    71 O4      15.1655  -1.2214  10.8279   O.2       2 RES2   0.0000
    72 S1      15.7058  -0.1132  11.5478   S.o2      2 RES2   0.0000
    73 C29     17.4964  13.3057  18.4624   C.3       3 RES3   0.0000
    74 F4      18.6216  12.6036  18.5460   F         3 RES3   0.0000
    75 F5      16.5144  12.4414  18.6614   F         3 RES3   0.0000
    76 F6      17.5097  14.1510  19.4732   F         3 RES3   0.0000
    77 O5      16.1074  14.8203  16.9383   O.3       3 RES3  -1.0000
    78 O6      18.4917  14.9911  16.8547   O.2       3 RES3   0.0000
    79 O7      17.3798  13.0418  15.9315   O.2       3 RES3   0.0000
    80 S2      17.3603  14.1322  16.8520   S.o2      3 RES3   0.0000
@<TRIPOS>BOND
     1     1     2    1
     2     3     1    1
     3     4     1    1
     4     5     4   ar
     5     6     5    1
     6     7     5   ar
     7     8     7    1
     8     9     7   ar
     9    10     9    1
    10    11     9   ar
    11    12    11    1
    12    13    14    1
    13    15    13    1
    14    16    13    1
    15    17    16   ar
    16    18    17    1
    17    19    17   ar
    18    20    19    1
    19    21    19   ar
    20    22    21    1
    21    23    21   ar
    22    24    23    1
    23    25    26    1
    24    27    25    1
    25    28    25    1
    26    29    28    1
    27    30    28    1
    28    31    32    1
    29    33    31    1
    30    34    31    1
    31    35    34   ar
    32    36    35    1
    33    37    35   ar
    34    38    37    1
    35    39    37   ar
    36    40    39    1
    37    41    39   ar
    38    42    41    1
    39    43    44    1
    40    45    43    1
    41    46    43    1
    42    47    46   ar
    43    48    47    1
    44    49    47   ar
    45    50    49    1
    46    51    49   ar
    47    52    51    1
    48    53    51   ar
    49    54    53    1
    50    55    46   ar
    51    56    55    1
    52    57    58    1
    53    58     1    1
    54    59     4   ar
    55    60    16   ar
    56    61    28    1
    57    62    34   ar
    58    63    57    1
    59    64    63    2
    60    11    59   ar
    61    13    58    1
    62    23    60   ar
    63    25    58    1
    64    31    61    1
    65    41    62   ar
    66    43    61    1
    67    53    55   ar
    68    57    59    1
    69    57    60    1
    70    57    61    1
    71    57    62    1
    72    65    66    1
    73    67    65    1
    74    68    65    1
    75    69    72    1
    76    70    72    2
    77    71    72    2
    78    72    65    1
    79    73    74    1
    80    75    73    1
    81    76    73    1
    82    77    80    1
    83    78    80    2
    84    79    80    2
    85    80    73    1
@<TRIPOS>SUBSTRUCTURE
     1 RES1        1 GROUP             0 ****  ****    0  
     2 RES2       65 GROUP             0 ****  ****    0  
     3 RES3       73 GROUP             0 ****  ****    0  
@<TRIPOS>CRYSIN
   19.1050   17.2510   19.8970   90.0000   90.0000   90.0000    61     1
