@<TRIPOS>MOLECULE
VAKBOY
    56    65     1     0     0
SMALL
NO_CHARGES
****
Generated from the CSD

@<TRIPOS>ATOM
     1 Fe1      2.3622   1.9059   3.2616   Fe        1 RES1   0.0000
     2 P1       3.9536   3.3632   2.5557   P.3       1 RES1   0.0000
     3 O1       0.1085   3.7192   3.5953   O.2       1 RES1   0.0000
     4 O2       1.4847   1.3032   0.5674   O.2       1 RES1   0.0000
     5 C1       1.0327   3.0456   3.5234   C.1       1 RES1   0.0000
     6 C2       1.8726   1.5465   1.6333   C.1       1 RES1   0.0000
     7 C3       5.5005   2.4523   2.2129   C.ar      1 RES1   0.0000
     8 C4       6.5413   2.3269   3.1258   C.ar      1 RES1   0.0000
     9 C5       7.6476   1.5526   2.8139   C.ar      1 RES1   0.0000
    10 C6       7.7213   0.9144   1.6027   C.ar      1 RES1   0.0000
    11 C7       6.7053   1.0251   0.7019   C.ar      1 RES1   0.0000
    12 C8       5.5923   1.7719   0.9940   C.ar      1 RES1   0.0000
    13 C9       4.4438   4.7596   3.6381   C.ar      1 RES1   0.0000
    14 C10      5.6647   5.4092   3.5204   C.ar      1 RES1   0.0000
    15 C11      5.9831   6.4805   4.3110   C.ar      1 RES1   0.0000
    16 C12      5.0745   6.9222   5.2469   C.ar      1 RES1   0.0000
    17 C13      3.8441   6.3200   5.3601   C.ar      1 RES1   0.0000
    18 C14      3.5379   5.2457   4.5725   C.ar      1 RES1   0.0000
    19 C15      3.6131   4.2306   0.9665   C.ar      1 RES1   0.0000
    20 C16      2.3167   4.5212   0.5872   C.ar      1 RES1   0.0000
    21 C17      2.0513   5.1741  -0.6041   C.ar      1 RES1   0.0000
    22 C18      3.0796   5.5446  -1.4314   C.ar      1 RES1   0.0000
    23 C19      4.3704   5.2907  -1.0690   C.ar      1 RES1   0.0000
    24 C20      4.6509   4.6495   0.1392   C.ar      1 RES1   0.0000
    25 O3       4.5082   2.1803   5.5191   O.3       1 RES1   0.0000
    26 O4       5.4623   3.4286   7.1127   O.2       1 RES1   0.0000
    27 C21      2.0208   0.1982   3.8247   C.2       1 RES1   0.0000
    28 C22      3.2271   0.4320   4.5175   C.2       1 RES1   0.0000
    29 C23      3.2264   1.6691   5.2347   C.2       1 RES1   0.0000
    30 C24      2.3420   2.1221   6.3511   C.2       1 RES1   0.0000
    31 C25      3.0828   2.8740   7.1799   C.2       1 RES1   0.0000
    32 C26      4.4670   2.9220   6.6753   C.2       1 RES1   0.0000
    33 C27      1.3448  -1.0541   3.5785   C.ar      1 RES1   0.0000
    34 C28      0.3684  -1.1907   2.6135   C.ar      1 RES1   0.0000
    35 C29     -0.3411  -2.3576   2.4667   C.ar      1 RES1   0.0000
    36 C30     -0.0905  -3.4401   3.2971   C.ar      1 RES1   0.0000
    37 C31      0.8880  -3.3290   4.2483   C.ar      1 RES1   0.0000
    38 C32      1.6010  -2.1679   4.3860   C.ar      1 RES1   0.0000
    39 C33      4.4325  -0.4397   4.3860   C.ar      1 RES1   0.0000
    40 C34      4.7473  -1.0083   3.1763   C.ar      1 RES1   0.0000
    41 C35      5.8056  -1.8962   3.0601   C.ar      1 RES1   0.0000
    42 C36      6.5426  -2.2235   4.1642   C.ar      1 RES1   0.0000
    43 C37      6.2479  -1.6628   5.3723   C.ar      1 RES1   0.0000
    44 C38      5.1948  -0.7660   5.4809   C.ar      1 RES1   0.0000
    45 C39      0.8912   1.8128   6.4489   C.ar      1 RES1   0.0000
    46 C40      0.4025   0.5284   6.3755   C.ar      1 RES1   0.0000
    47 C41     -0.9646   0.2839   6.3908   C.ar      1 RES1   0.0000
    48 C42     -1.8539   1.3344   6.5331   C.ar      1 RES1   0.0000
    49 C43     -1.3843   2.6103   6.6508   C.ar      1 RES1   0.0000
    50 C44     -0.0232   2.8588   6.6095   C.ar      1 RES1   0.0000
    51 C45      2.6955   3.5722   8.4355   C.ar      1 RES1   0.0000
    52 C46      1.7938   2.9880   9.3179   C.ar      1 RES1   0.0000
    53 C47      1.4316   3.6472  10.4801   C.ar      1 RES1   0.0000
    54 C48      1.9483   4.8796  10.7508   C.ar      1 RES1   0.0000
    55 C49      2.8619   5.4443   9.9020   C.ar      1 RES1   0.0000
    56 C50      3.2431   4.7956   8.7551   C.ar      1 RES1   0.0000
@<TRIPOS>BOND
     1     1     2    1
     2     2     7    1
     3     3     5    3
     4     4     6    3
     5     5     1    1
     6     6     1    1
     7     7     8   ar
     8     8     9   ar
     9     9    10   ar
    10    10    11   ar
    11    11    12   ar
    12    12     7   ar
    13    13     2    1
    14    14    13   ar
    15    15    14   ar
    16    16    15   ar
    17    17    16   ar
    18    18    13   ar
    19    19     2    1
    20    20    19   ar
    21    21    20   ar
    22    22    21   ar
    23    23    22   ar
    24    24    19   ar
    25    25    29    1
    26    26    32    2
    27    27     1    2
    28    28     1   un
    29    29     1   un
    30    30    29    1
    31    31    30    2
    32    32    25    1
    33    33    27    1
    34    34    33   ar
    35    35    34   ar
    36    36    35   ar
    37    37    36   ar
    38    38    33   ar
    39    39    28    1
    40    40    39   ar
    41    41    40   ar
    42    42    41   ar
    43    43    42   ar
    44    44    39   ar
    45    45    30    1
    46    46    45   ar
    47    47    46   ar
    48    48    47   ar
    49    49    48   ar
    50    50    45   ar
    51    51    31    1
    52    52    51   ar
    53    53    52   ar
    54    54    53   ar
    55    55    54   ar
    56    56    51   ar
    57    17    18   ar
    58    23    24   ar
    59    27    28    1
    60    28    29    2
    61    31    32    1
    62    37    38   ar
    63    43    44   ar
    64    49    50   ar
    65    55    56   ar
@<TRIPOS>SUBSTRUCTURE
     1 RES1        1 GROUP             0 ****  ****    0  
@<TRIPOS>CRYSIN
   10.2570   13.9160   16.0070   91.1100  106.2200  105.2200     2     1
