@<TRIPOS>MOLECULE
VAKCAL
    98   116     3     0     0
SMALL
USER_CHARGES
****
Generated from the CSD

@<TRIPOS>ATOM
     1 Sb1     -2.2392   0.9820   0.1624   Sb        1 RES1   0.0000
     2 Sb2      1.1028   2.8183  -3.0538   Sb        1 RES1  -1.0000
     3 Sb3      1.0411   1.7119   3.6116   Sb        1 RES1  -1.0000
     4 I1       0.8926   2.0728   0.2605   I         1 RES1   0.0000
     5 I2      -2.1697   1.3874  -2.8424   I         1 RES1   0.0000
     6 I3      -2.1243   0.4521   3.1918   I         1 RES1   0.0000
     7 I4      -4.7993  -0.1834   0.0628   I         1 RES1   0.0000
     8 I5      -3.1002   3.6707   0.4428   I         1 RES1   0.0000
     9 I6       3.7069   3.5304  -2.5053   I         1 RES1   0.0000
    10 I7       1.5399   2.9387  -5.8258   I         1 RES1   0.0000
    11 I8       0.0240   5.3980  -2.7688   I         1 RES1   0.0000
    12 I9       3.6651   2.6249   3.4507   I         1 RES1   0.0000
    13 I10      1.2287   0.7355   6.2517   I         1 RES1   0.0000
    14 I11     -0.1187   4.1802   4.2812   I         1 RES1   0.0000
    15 I1A     -0.8926  -2.0728  -0.2605   I         1 RES1   0.0000
    16 Sb1A     2.2392  -0.9820  -0.1624   Sb        1 RES1   0.0000
    17 I3A      2.1243  -0.4521  -3.1918   I         1 RES1   0.0000
    18 I2A      2.1697  -1.3874   2.8424   I         1 RES1   0.0000
    19 Sb3A    -1.0411  -1.7119  -3.6116   Sb        1 RES1  -1.0000
    20 Sb2A    -1.1028  -2.8183   3.0538   Sb        1 RES1  -1.0000
    21 I4A      4.7993   0.1834  -0.0628   I         1 RES1   0.0000
    22 I5A      3.1002  -3.6707  -0.4428   I         1 RES1   0.0000
    23 I9A     -3.6651  -2.6249  -3.4507   I         1 RES1   0.0000
    24 I10A    -1.2287  -0.7355  -6.2517   I         1 RES1   0.0000
    25 I11A     0.1187  -4.1802  -4.2812   I         1 RES1   0.0000
    26 I6A     -3.7069  -3.5304   2.5053   I         1 RES1   0.0000
    27 I7A     -1.5399  -2.9387   5.8258   I         1 RES1   0.0000
    28 I8A     -0.0240  -5.3980   2.7688   I         1 RES1   0.0000
    29 Fe1      3.9540   7.8009   4.9692   Fe        2 RES2   2.0000
    30 N1       3.5603   6.1704   6.0204   N.ar      2 RES2   0.0000
    31 N2       2.1666   8.3375   5.6097   N.ar      2 RES2   0.0000
    32 N3       4.2524   9.5275   4.0652   N.ar      2 RES2   0.0000
    33 N4       4.8277   8.7298   6.4816   N.ar      2 RES2   0.0000
    34 N5       3.3011   6.9374   3.3036   N.ar      2 RES2   0.0000
    35 N6       5.7102   7.1376   4.3149   N.ar      2 RES2   0.0000
    36 C1       2.3986   6.2539   6.6946   C.ar      2 RES2   0.0000
    37 C2       1.8790   5.2425   7.5266   C.ar      2 RES2   0.0000
    38 C3       0.6408   5.4674   8.2023   C.ar      2 RES2   0.0000
    39 C4      -0.0492   6.6227   8.0660   C.ar      2 RES2   0.0000
    40 C5       0.4212   7.6443   7.1711   C.ar      2 RES2   0.0000
    41 C6       1.6329   7.4336   6.4984   C.ar      2 RES2   0.0000
    42 C7       4.2662   5.0682   6.1521   C.ar      2 RES2   0.0000
    43 C8       3.8144   3.9790   6.9474   C.ar      2 RES2   0.0000
    44 C9       2.6350   4.0707   7.6446   C.ar      2 RES2   0.0000
    45 C10      1.4701   9.4584   5.3768   C.ar      2 RES2   0.0000
    46 C11      0.2645   9.7389   6.0020   C.ar      2 RES2   0.0000
    47 C12     -0.2650   8.8392   6.8999   C.ar      2 RES2   0.0000
    48 C13      4.9386  10.4186   4.8497   C.ar      2 RES2   0.0000
    49 C14      5.2777  11.7023   4.4007   C.ar      2 RES2   0.0000
    50 C15      6.0711  12.5080   5.3140   C.ar      2 RES2   0.0000
    51 C16      6.4476  12.0490   6.5138   C.ar      2 RES2   0.0000
    52 C17      6.0654  10.7636   6.9964   C.ar      2 RES2   0.0000
    53 C18      5.2741   9.9826   6.1337   C.ar      2 RES2   0.0000
    54 C19      3.8918   9.9042   2.8439   C.ar      2 RES2   0.0000
    55 C20      4.1792  11.2191   2.3628   C.ar      2 RES2   0.0000
    56 C21      4.8721  12.0762   3.1381   C.ar      2 RES2   0.0000
    57 C22      5.1129   8.2764   7.7135   C.ar      2 RES2   0.0000
    58 C23      5.8966   8.9761   8.6115   C.ar      2 RES2   0.0000
    59 C24      6.3744  10.2124   8.2544   C.ar      2 RES2   0.0000
    60 C25      4.3068   6.4169   2.5666   C.ar      2 RES2   0.0000
    61 C26      4.1045   5.7899   1.3362   C.ar      2 RES2   0.0000
    62 C27      5.2519   5.2196   0.6574   C.ar      2 RES2   0.0000
    63 C28      6.4933   5.3270   1.1707   C.ar      2 RES2   0.0000
    64 C29      6.7341   5.9790   2.4180   C.ar      2 RES2   0.0000
    65 C30      5.6245   6.5276   3.1197   C.ar      2 RES2   0.0000
    66 C31      2.0685   6.8850   2.8026   C.ar      2 RES2   0.0000
    67 C32      1.7687   6.2582   1.5905   C.ar      2 RES2   0.0000
    68 C33      2.7734   5.7075   0.8167   C.ar      2 RES2   0.0000
    69 C34      6.9389   7.2496   4.8451   C.ar      2 RES2   0.0000
    70 C35      8.0741   6.7832   4.2398   C.ar      2 RES2   0.0000
    71 C36      7.9971   6.1418   3.0401   C.ar      2 RES2   0.0000
    72 H1       0.2453   4.6921   8.8428   H         2 RES2   0.0000
    73 H2      -0.9546   6.7808   8.6344   H         2 RES2   0.0000
    74 H3       5.2153   4.9895   5.6434   H         2 RES2   0.0000
    75 H4       4.4118   3.0752   7.0072   H         2 RES2   0.0000
    76 H5       2.2925   3.2531   8.2713   H         2 RES2   0.0000
    77 H6       1.8640  10.1752   4.6704   H         2 RES2   0.0000
    78 H7      -0.2591  10.6590   5.7844   H         2 RES2   0.0000
    79 H8      -1.2019   9.0519   7.3933   H         2 RES2   0.0000
    80 H9       6.3636  13.5046   5.0213   H         2 RES2   0.0000
    81 H10      7.0656  12.6736   7.1420   H         2 RES2   0.0000
    82 H11      3.3732   9.2031   2.2065   H         2 RES2   0.0000
    83 H12      3.8439  11.5218   1.3806   H         2 RES2   0.0000
    84 H13      5.1070  13.0638   2.7688   H         2 RES2   0.0000
    85 H14      4.7125   7.3207   8.0154   H         2 RES2   0.0000
    86 H15      6.1288   8.5575   9.5799   H         2 RES2   0.0000
    87 H16      6.9901  10.7696   8.9455   H         2 RES2   0.0000
    88 H17      5.1096   4.7047  -0.2804   H         2 RES2   0.0000
    89 H18      7.3263   4.9082   0.6267   H         2 RES2   0.0000
    90 H19      1.2662   7.3503   3.3557   H         2 RES2   0.0000
    91 H20      0.7424   6.2028   1.2580   H         2 RES2   0.0000
    92 H21      2.5647   5.2403  -0.1348   H         2 RES2   0.0000
    93 H22      7.0359   7.7378   5.8043   H         2 RES2   0.0000
    94 H23      9.0344   6.9209   4.7148   H         2 RES2   0.0000
    95 H24      8.8894   5.7623   2.5666   H         2 RES2   0.0000
    96 N7       6.9799   3.0662   5.3615   N.1       3 RES3   0.0000
    97 C37      7.3945   2.7616   4.3808   C.1       3 RES3   0.0000
    98 C38      7.7045   2.3602   2.9435   C.3       3 RES3   0.0000
@<TRIPOS>BOND
     1     1     4    1
     2     2     4    1
     3     3     4    1
     4     4    16    1
     5     5     1    1
     6     6     1    1
     7     7     1    1
     8     8     1    1
     9     9     2    1
    10    10     2    1
    11    11     2    1
    12    12     3    1
    13    13     3    1
    14    14     3    1
    15    15     1    1
    16    16    15    1
    17    17     2    1
    18    18     3    1
    19    19     5    1
    20    20     6    1
    21    21    16    1
    22    22    16    1
    23    23    19    1
    24    24    19    1
    25    25    19    1
    26    26    20    1
    27    27    20    1
    28    28    20    1
    29     2     5    1
    30     3     6    1
    31    15    20    1
    32    15    19    1
    33    16    18    1
    34    16    17    1
    35    17    19    1
    36    18    20    1
    37    29    30    1
    38    30    36   ar
    39    31    29    1
    40    32    29    1
    41    33    29    1
    42    34    29    1
    43    35    29    1
    44    36    37   ar
    45    37    38   ar
    46    38    39   ar
    47    39    40   ar
    48    40    41   ar
    49    41    31   ar
    50    42    30   ar
    51    43    42   ar
    52    44    37   ar
    53    45    31   ar
    54    46    45   ar
    55    47    40   ar
    56    48    32   ar
    57    49    48   ar
    58    50    49   ar
    59    51    50   ar
    60    52    51   ar
    61    53    33   ar
    62    54    32   ar
    63    55    54   ar
    64    56    49   ar
    65    57    33   ar
    66    58    57   ar
    67    59    52   ar
    68    60    34   ar
    69    61    60   ar
    70    62    61   ar
    71    63    62   ar
    72    64    63   ar
    73    65    35   ar
    74    66    34   ar
    75    67    66   ar
    76    68    61   ar
    77    69    35   ar
    78    70    69   ar
    79    71    64   ar
    80    72    38    1
    81    73    39    1
    82    74    42    1
    83    75    43    1
    84    76    44    1
    85    77    45    1
    86    78    46    1
    87    79    47    1
    88    80    50    1
    89    81    51    1
    90    82    54    1
    91    83    55    1
    92    84    56    1
    93    85    57    1
    94    86    58    1
    95    87    59    1
    96    88    62    1
    97    89    63    1
    98    90    66    1
    99    91    67    1
   100    92    68    1
   101    93    69    1
   102    94    70    1
   103    95    71    1
   104    36    41   ar
   105    43    44   ar
   106    46    47   ar
   107    48    53   ar
   108    52    53   ar
   109    55    56   ar
   110    58    59   ar
   111    60    65   ar
   112    64    65   ar
   113    67    68   ar
   114    70    71   ar
   115    96    97    3
   116    97    98    1
@<TRIPOS>SUBSTRUCTURE
     1 RES1        1 GROUP             0 ****  ****    0  
     2 RES2       29 GROUP             0 ****  ****    0  
     3 RES3       96 GROUP             0 ****  ****    0  
@<TRIPOS>CRYSIN
   13.5240   13.7680   15.9770  105.8500   92.0900   97.9400     2     1
