@<TRIPOS>MOLECULE
VANREJ
    89    96     1     0     0
SMALL
NO_CHARGES
****
Generated from the CSD

@<TRIPOS>ATOM
     1 Fe1      2.6609   2.6609   7.9580   Fe        1 RES1   0.0000
     2 C1       4.2780   5.1682   8.4100   C.3       1 RES1   0.0000
     3 H1       4.5442   4.9908   9.3363   H         1 RES1   0.0000
     4 C2       4.6149   6.6403   8.1188   C.3       1 RES1   0.0000
     5 H2       4.4149   6.8343   7.1893   H         1 RES1   0.0000
     6 H3       4.0540   7.2102   8.6694   H         1 RES1   0.0000
     7 C3       6.0810   6.9651   8.3957   C.3       1 RES1   0.0000
     8 H4       6.2810   6.8088   9.3316   H         1 RES1   0.0000
     9 H5       6.2539   7.9004   8.1983   H         1 RES1   0.0000
    10 C4       2.0315   5.0524   9.5958   C.3       1 RES1   0.0000
    11 H6       1.1052   4.8239   9.3729   H         1 RES1   0.0000
    12 C5       1.9623   6.4629  10.1608   C.ar      1 RES1   0.0000
    13 C6       2.9548   7.0223  10.9327   C.ar      1 RES1   0.0000
    14 H7       3.7412   6.5456  11.0775   H         1 RES1   0.0000
    15 C7       2.8074   8.2869  11.5041   C.ar      1 RES1   0.0000
    16 H8       3.4916   8.6493  12.0198   H         1 RES1   0.0000
    17 C8       1.6345   8.9981  11.2956   C.ar      1 RES1   0.0000
    18 H9       1.5217   9.8357  11.6855   H         1 RES1   0.0000
    19 C9       0.6511   8.4703  10.5221   C.ar      1 RES1   0.0000
    20 H10     -0.1293   8.9545  10.3740   H         1 RES1   0.0000
    21 C10      0.8015   7.2208   9.9555   C.ar      1 RES1   0.0000
    22 H11      0.1188   6.8734   9.4270   H         1 RES1   0.0000
    23 C11      2.1398   5.6178   7.2481   C.3       1 RES1   0.0000
    24 H12      1.2330   5.3156   7.1574   H         1 RES1   0.0000
    25 H13      2.6059   5.4870   6.4189   H         1 RES1   0.0000
    26 H14      2.1458   6.5501   7.4757   H         1 RES1   0.0000
    27 C12      3.2089   1.8571  10.9677   C.ar      1 RES1   0.0000
    28 H15      3.4796   1.0391  10.6176   H         1 RES1   0.0000
    29 C13      3.2360   2.0255  12.3476   C.ar      1 RES1   0.0000
    30 H16      3.5232   1.3413  12.9079   H         1 RES1   0.0000
    31 C14      2.8300   3.2134  12.8490   C.ar      1 RES1   0.0000
    32 H17      2.8345   3.3533  13.7673   H         1 RES1   0.0000
    33 C15      2.4119   4.2149  12.0070   C.ar      1 RES1   0.0000
    34 H18      2.1022   5.0209  12.3540   H         1 RES1   0.0000
    35 C16      2.4585   4.0089  10.6160   C.ar      1 RES1   0.0000
    36 C17      1.5353  -1.4014   9.4032   C.3       1 RES1   0.0000
    37 F1       1.3669  -0.6526  10.4361   F         1 RES1   0.0000
    38 F2       1.6796  -2.6480   9.7915   F         1 RES1   0.0000
    39 F3       0.4346  -1.3789   8.6679   F         1 RES1   0.0000
    40 N1       2.8059   4.8509   8.3085   N.3       1 RES1   0.0000
    41 N2       2.8149   2.8134  10.1167   N.ar      1 RES1   0.0000
    42 O1       4.0735  -0.9729   9.3252   O.2       1 RES1   0.0000
    43 O2       2.9894  -1.7638   7.3070   O.2       1 RES1   0.0000
    44 O3       2.6375   0.5040   8.0535   O.3       1 RES1   0.0000
    45 S1       2.9706  -0.8609   8.4054   S.o2      1 RES1   0.0000
    46 C1F      5.1682   4.2780   7.5060   C.3       1 RES1   0.0000
    47 H1F      4.9908   4.5442   6.5797   H         1 RES1   0.0000
    48 C2F      6.6403   4.6149   7.7972   C.3       1 RES1   0.0000
    49 H2F      6.8343   4.4149   8.7267   H         1 RES1   0.0000
    50 H3F      7.2102   4.0540   7.2466   H         1 RES1   0.0000
    51 C3F      6.9651   6.0810   7.5203   C.3       1 RES1   0.0000
    52 H4F      6.8088   6.2810   6.5844   H         1 RES1   0.0000
    53 H5F      7.9004   6.2539   7.7177   H         1 RES1   0.0000
    54 C4F      5.0524   2.0315   6.3202   C.3       1 RES1   0.0000
    55 H6F      4.8239   1.1052   6.5431   H         1 RES1   0.0000
    56 C5F      6.4629   1.9623   5.7552   C.ar      1 RES1   0.0000
    57 C6F      7.0223   2.9548   4.9833   C.ar      1 RES1   0.0000
    58 H7F      6.5456   3.7412   4.8385   H         1 RES1   0.0000
    59 C7F      8.2869   2.8074   4.4119   C.ar      1 RES1   0.0000
    60 H8F      8.6493   3.4916   3.8962   H         1 RES1   0.0000
    61 C8F      8.9981   1.6345   4.6204   C.ar      1 RES1   0.0000
    62 H9F      9.8357   1.5217   4.2305   H         1 RES1   0.0000
    63 C9F      8.4703   0.6511   5.3939   C.ar      1 RES1   0.0000
    64 H10F     8.9545  -0.1293   5.5420   H         1 RES1   0.0000
    65 C10F     7.2208   0.8015   5.9605   C.ar      1 RES1   0.0000
    66 H11F     6.8734   0.1188   6.4890   H         1 RES1   0.0000
    67 C11F     5.6178   2.1398   8.6679   C.3       1 RES1   0.0000
    68 H12F     5.3156   1.2330   8.7586   H         1 RES1   0.0000
    69 H13F     5.4870   2.6059   9.4971   H         1 RES1   0.0000
    70 H14F     6.5501   2.1458   8.4403   H         1 RES1   0.0000
    71 C12F     1.8571   3.2089   4.9483   C.ar      1 RES1   0.0000
    72 H15F     1.0391   3.4796   5.2984   H         1 RES1   0.0000
    73 C13F     2.0255   3.2360   3.5684   C.ar      1 RES1   0.0000
    74 H16F     1.3413   3.5232   3.0081   H         1 RES1   0.0000
    75 C14F     3.2134   2.8300   3.0670   C.ar      1 RES1   0.0000
    76 H17F     3.3533   2.8345   2.1487   H         1 RES1   0.0000
    77 C15F     4.2149   2.4119   3.9090   C.ar      1 RES1   0.0000
    78 H18F     5.0209   2.1022   3.5620   H         1 RES1   0.0000
    79 C16F     4.0089   2.4585   5.3000   C.ar      1 RES1   0.0000
    80 C17F    -1.4014   1.5353   6.5128   C.3       1 RES1   0.0000
    81 F1F     -0.6526   1.3669   5.4799   F         1 RES1   0.0000
    82 F2F     -2.6480   1.6796   6.1245   F         1 RES1   0.0000
    83 F3F     -1.3789   0.4346   7.2481   F         1 RES1   0.0000
    84 N1F      4.8509   2.8059   7.6075   N.3       1 RES1   0.0000
    85 N2F      2.8134   2.8149   5.7993   N.ar      1 RES1   0.0000
    86 O1F     -0.9729   4.0735   6.5908   O.2       1 RES1   0.0000
    87 O2F     -1.7638   2.9894   8.6090   O.2       1 RES1   0.0000
    88 O3F      0.5040   2.6375   7.8625   O.3       1 RES1   0.0000
    89 S1F     -0.8609   2.9706   7.5106   S.o2      1 RES1   0.0000
@<TRIPOS>BOND
     1     1    40    1
     2     2     3    1
     3     4     2    1
     4     5     4    1
     5     6     4    1
     6     7     4    1
     7     8     7    1
     8     9     7    1
     9    10    11    1
    10    12    10    1
    11    13    12   ar
    12    14    13    1
    13    15    13   ar
    14    16    15    1
    15    17    15   ar
    16    18    17    1
    17    19    17   ar
    18    20    19    1
    19    21    12   ar
    20    22    21    1
    21    23    24    1
    22    25    23    1
    23    26    23    1
    24    27    28    1
    25    29    27   ar
    26    30    29    1
    27    31    29   ar
    28    32    31    1
    29    33    31   ar
    30    34    33    1
    31    35    10    1
    32    36    37    1
    33    38    36    1
    34    39    36    1
    35    40     2    1
    36    41     1    1
    37    42    45    2
    38    43    45    2
    39    44     1    1
    40    45    36    1
    41    46     2    1
    42    47    46    1
    43    48    46    1
    44    49    48    1
    45    50    48    1
    46    51     7    1
    47    52    51    1
    48    53    51    1
    49    54    55    1
    50    56    54    1
    51    57    56   ar
    52    58    57    1
    53    59    57   ar
    54    60    59    1
    55    61    59   ar
    56    62    61    1
    57    63    61   ar
    58    64    63    1
    59    65    56   ar
    60    66    65    1
    61    67    68    1
    62    69    67    1
    63    70    67    1
    64    71    72    1
    65    73    71   ar
    66    74    73    1
    67    75    73   ar
    68    76    75    1
    69    77    75   ar
    70    78    77    1
    71    79    54    1
    72    80    81    1
    73    82    80    1
    74    83    80    1
    75    84     1    1
    76    85     1    1
    77    86    89    2
    78    87    89    2
    79    88     1    1
    80    89    80    1
    81    10    40    1
    82    19    21   ar
    83    23    40    1
    84    27    41   ar
    85    33    35   ar
    86    35    41   ar
    87    44    45    1
    88    46    84    1
    89    48    51    1
    90    54    84    1
    91    63    65   ar
    92    67    84    1
    93    71    85   ar
    94    77    79   ar
    95    79    85   ar
    96    88    89    1
@<TRIPOS>SUBSTRUCTURE
     1 RES1        1 GROUP             0 ****  ****    0  
@<TRIPOS>CRYSIN
   15.0370   15.0370   15.9160   90.0000   90.0000   90.0000    96     1
