@<TRIPOS>MOLECULE
VANYUG
    93   100     3     0     0
SMALL
USER_CHARGES
****
Generated from the CSD

@<TRIPOS>ATOM
     1 Fe1     10.9939  15.2625  10.5404   Fe        1 RES1   0.0000
     2 C1      11.6029  15.3262  12.4004   C.1       1 RES1   0.0000
     3 C2      11.9112  13.5350  10.3262   C.1       1 RES1   0.0000
     4 C3      10.1292  16.9894  10.9053   C.1       1 RES1   0.0000
     5 C4       8.7820  13.9491  12.0950   C.ar      1 RES1   0.0000
     6 H1       9.2839  14.0655  12.8691   H         1 RES1   0.0000
     7 C5       7.5297  13.3414  12.1997   C.ar      1 RES1   0.0000
     8 H2       7.2213  13.0518  13.0282   H         1 RES1   0.0000
     9 C6       6.7601  13.1703  11.0902   C.ar      1 RES1   0.0000
    10 H3       5.9209  12.7750  11.1519   H         1 RES1   0.0000
    11 C7       7.2595  13.6055   9.8475   C.ar      1 RES1   0.0000
    12 C8       6.5359  13.4850   8.6219   C.ar      1 RES1   0.0000
    13 H4       5.6851  13.1101   8.6119   H         1 RES1   0.0000
    14 C9       7.1088  13.9269   7.4637   C.ar      1 RES1   0.0000
    15 H5       6.6291  13.8410   6.6710   H         1 RES1   0.0000
    16 C10      8.3825  14.5018   7.4121   C.ar      1 RES1   0.0000
    17 H6       8.7408  14.7812   6.5994   H         1 RES1   0.0000
    18 C11      9.1040  14.6483   8.5832   C.ar      1 RES1   0.0000
    19 C12      8.5244  14.1939   9.7987   C.ar      1 RES1   0.0000
    20 C13     11.2046  15.6140   7.7819   C.2       1 RES1   0.0000
    21 C14     12.4977  16.1621   8.3410   C.ar      1 RES1   0.0000
    22 C15     13.5905  16.6455   7.5741   C.ar      1 RES1   0.0000
    23 C16     13.6073  16.6933   6.1507   C.ar      1 RES1   0.0000
    24 H7      12.8717  16.3993   5.6648   H         1 RES1   0.0000
    25 C17     14.7084  17.1725   5.5043   C.ar      1 RES1   0.0000
    26 H8      14.7150  17.1919   4.5754   H         1 RES1   0.0000
    27 C18     15.8332  17.6372   6.2038   C.ar      1 RES1   0.0000
    28 H9      16.5662  17.9700   5.7379   H         1 RES1   0.0000
    29 C19     15.8500  17.6014   7.5612   C.ar      1 RES1   0.0000
    30 H10     16.5982  17.9010   8.0242   H         1 RES1   0.0000
    31 C20     14.7277  17.1086   8.2736   C.ar      1 RES1   0.0000
    32 C21     14.7167  17.0587   9.6884   C.ar      1 RES1   0.0000
    33 H11     15.4537  17.3577  10.1714   H         1 RES1   0.0000
    34 C22     13.6334  16.5752  10.3320   C.ar      1 RES1   0.0000
    35 H12     13.6409  16.5580  11.2622   H         1 RES1   0.0000
    36 N1      11.9315  15.3590  13.4955   N.1       1 RES1   0.0000
    37 N2      12.4142  12.5343  10.1212   N.1       1 RES1   0.0000
    38 N3       9.5740  17.9643  11.1003   N.1       1 RES1   0.0000
    39 N4       9.2880  14.3682  10.9483   N.ar      1 RES1   0.0000
    40 N5      10.3650  15.2068   8.7609   N.am      1 RES1  -1.0000
    41 N6      12.5372  16.1162   9.6855   N.ar      1 RES1   0.0000
    42 O1      10.9736  15.5562   6.5664   O.2       1 RES1   0.0000
    43 P1       9.1588   8.7876  11.7668   P.3       2 RES2   1.0000
    44 C23      9.7315   9.1950  10.1069   C.ar      2 RES2   0.0000
    45 C24     10.6423   8.4150   9.4146   C.ar      2 RES2   0.0000
    46 H13     10.9986   7.6472   9.8016   H         2 RES2   0.0000
    47 C25     11.0168   8.7987   8.1231   C.ar      2 RES2   0.0000
    48 H14     11.6177   8.2731   7.6458   H         2 RES2   0.0000
    49 C26     10.5198   9.9227   7.5569   C.ar      2 RES2   0.0000
    50 H15     10.7839  10.1641   6.6983   H         2 RES2   0.0000
    51 C27      9.6278  10.7110   8.2435   C.ar      2 RES2   0.0000
    52 H16      9.2922  11.4853   7.8536   H         2 RES2   0.0000
    53 C28      9.2319  10.3517   9.5092   C.ar      2 RES2   0.0000
    54 H17      8.6258  10.8845   9.9707   H         2 RES2   0.0000
    55 C29      9.9826   9.8423  12.9680   C.ar      2 RES2   0.0000
    56 C30     10.6416  10.9841  12.5853   C.ar      2 RES2   0.0000
    57 H18     10.6324  11.2417  11.6923   H         2 RES2   0.0000
    58 C31     11.3188  11.7535  13.5098   C.ar      2 RES2   0.0000
    59 H19     11.7679  12.5232  13.2432   H         2 RES2   0.0000
    60 C32     11.3223  11.3693  14.8328   C.ar      2 RES2   0.0000
    61 H20     11.7773  11.8801  15.4635   H         2 RES2   0.0000
    62 C33     10.6651  10.2493  15.2199   C.ar      2 RES2   0.0000
    63 H21     10.6693  10.0058  16.1172   H         2 RES2   0.0000
    64 C34      9.9825   9.4534  14.2982   C.ar      2 RES2   0.0000
    65 H22      9.5383   8.6825  14.5691   H         2 RES2   0.0000
    66 C35      7.3939   9.0746  11.7324   C.ar      2 RES2   0.0000
    67 C36      6.6666   8.6173  10.6301   C.ar      2 RES2   0.0000
    68 H23      7.0905   8.1051   9.9779   H         2 RES2   0.0000
    69 C37      5.3426   8.9117  10.5011   C.ar      2 RES2   0.0000
    70 H24      4.8737   8.6242   9.7514   H         2 RES2   0.0000
    71 C38      4.6956   9.6366  11.4801   C.ar      2 RES2   0.0000
    72 H25      3.7926   9.8388  11.3912   H         2 RES2   0.0000
    73 C39      5.3936  10.0578  12.5881   C.ar      2 RES2   0.0000
    74 H26      4.9509  10.5325  13.2532   H         2 RES2   0.0000
    75 C40      6.7420   9.7898  12.7286   C.ar      2 RES2   0.0000
    76 H27      7.2057  10.0826  13.4797   H         2 RES2   0.0000
    77 C41      9.5233   7.0891  12.2183   C.ar      2 RES2   0.0000
    78 C42     10.8265   6.6968  12.4176   C.ar      2 RES2   0.0000
    79 H28     11.5158   7.3093  12.2914   H         2 RES2   0.0000
    80 C43     11.1251   5.3929  12.8060   C.ar      2 RES2   0.0000
    81 H29     12.0084   5.1356  12.9465   H         2 RES2   0.0000
    82 C44     10.1137   4.5027  12.9809   C.ar      2 RES2   0.0000
    83 H30     10.3077   3.6285  13.2332   H         2 RES2   0.0000
    84 C45      8.8131   4.8749  12.7888   C.ar      2 RES2   0.0000
    85 H31      8.1299   4.2590  12.9178   H         2 RES2   0.0000
    86 C46      8.5137   6.1669  12.4047   C.ar      2 RES2   0.0000
    87 H32      7.6273   6.4164  12.2713   H         2 RES2   0.0000
    88 C47      9.8790  16.1928   3.7655   C.3       3 RES3   0.0000
    89 H33     10.4267  16.8829   4.1483   H         3 RES3   0.0000
    90 H34     10.3938  15.3875   3.6767   H         3 RES3   0.0000
    91 H35      9.1250  16.0311   4.3375   H         3 RES3   0.0000
    92 O2       9.4465  16.5844   2.5543   O.3       3 RES3   0.0000
    93 H36      9.0762  17.3132   2.6188   H         3 RES3   0.0000
@<TRIPOS>BOND
     1     1     2    1
     2     2    36    3
     3     3     1    1
     4     4     1    1
     5     5     6    1
     6     7     5   ar
     7     8     7    1
     8     9     7   ar
     9    10     9    1
    10    11     9   ar
    11    12    11   ar
    12    13    12    1
    13    14    12   ar
    14    15    14    1
    15    16    14   ar
    16    17    16    1
    17    18    16   ar
    18    19    11   ar
    19    20    21    1
    20    21    22   ar
    21    22    23   ar
    22    23    24    1
    23    25    23   ar
    24    26    25    1
    25    27    25   ar
    26    28    27    1
    27    29    27   ar
    28    30    29    1
    29    31    22   ar
    30    32    31   ar
    31    33    32    1
    32    34    32   ar
    33    35    34    1
    34    37     3    3
    35    38     4    3
    36    39     1    1
    37    40     1    1
    38    41     1    1
    39    42    20    2
    40     5    39   ar
    41    18    19   ar
    42    18    40    1
    43    19    39   ar
    44    20    40   am
    45    21    41   ar
    46    29    31   ar
    47    34    41   ar
    48    43    44    1
    49    44    45   ar
    50    45    46    1
    51    47    45   ar
    52    48    47    1
    53    49    47   ar
    54    50    49    1
    55    51    49   ar
    56    52    51    1
    57    53    44   ar
    58    54    53    1
    59    55    43    1
    60    56    55   ar
    61    57    56    1
    62    58    56   ar
    63    59    58    1
    64    60    58   ar
    65    61    60    1
    66    62    60   ar
    67    63    62    1
    68    64    55   ar
    69    65    64    1
    70    66    43    1
    71    67    66   ar
    72    68    67    1
    73    69    67   ar
    74    70    69    1
    75    71    69   ar
    76    72    71    1
    77    73    71   ar
    78    74    73    1
    79    75    66   ar
    80    76    75    1
    81    77    43    1
    82    78    77   ar
    83    79    78    1
    84    80    78   ar
    85    81    80    1
    86    82    80   ar
    87    83    82    1
    88    84    82   ar
    89    85    84    1
    90    86    77   ar
    91    87    86    1
    92    51    53   ar
    93    62    64   ar
    94    73    75   ar
    95    84    86   ar
    96    88    89    1
    97    90    88    1
    98    91    88    1
    99    92    88    1
   100    93    92    1
@<TRIPOS>SUBSTRUCTURE
     1 RES1        1 GROUP             0 ****  ****    0  
     2 RES2       43 GROUP             0 ****  ****    0  
     3 RES3       88 GROUP             0 ****  ****    0  
@<TRIPOS>CRYSIN
    9.0359   15.6389   15.8476   65.7170   79.3110   79.5890     2     1
