@<TRIPOS>MOLECULE
VAPVAL
    72    80     1     0     0
SMALL
NO_CHARGES
****
Generated from the CSD

@<TRIPOS>ATOM
     1 Fe1      0.9245   0.0000   5.3987   Fe        1 RES1   0.0000
     2 Cl1      2.7022   0.0000   6.9840   Cl        1 RES1   0.0000
     3 Cl2      2.4256   0.0000   3.4156   Cl        1 RES1   0.0000
     4 O1      -0.6451   0.0000   7.0562   O.2       1 RES1   0.0000
     5 N1      -0.7169   0.0000   3.9608   N.ar      1 RES1   0.0000
     6 N2       0.3724  -2.0560   5.0945   N.2       1 RES1   0.0000
     7 C1       0.8119  -3.2863   5.5595   C.ar      1 RES1   0.0000
     8 N3      -0.6919  -3.6585   3.9390   N.pl3     1 RES1   0.0000
     9 C2      -0.5144  -2.3062   4.1532   C.2       1 RES1   0.0000
    10 C3       0.1493  -4.2956   4.8355   C.ar      1 RES1   0.0000
    11 C4       1.2954  -5.9306   6.0670   C.ar      1 RES1   0.0000
    12 H1       1.4841  -6.8212   6.2543   H         1 RES1   0.0000
    13 C5      -2.2102  -1.2011   2.5514   C.ar      1 RES1   0.0000
    14 H2      -2.5363  -2.0137   2.2363   H         1 RES1   0.0000
    15 C6      -1.1924  -1.1669   3.4938   C.ar      1 RES1   0.0000
    16 C7      -2.7310   0.0000   2.0865   C.ar      1 RES1   0.0000
    17 H3      -3.4254   0.0000   1.4676   H         1 RES1   0.0000
    18 C8       0.3713  -5.6462   5.0956   C.ar      1 RES1   0.0000
    19 H4      -0.0805  -6.3158   4.6358   H         1 RES1   0.0000
    20 C9       1.9640  -4.9424   6.7858   C.ar      1 RES1   0.0000
    21 H5       2.5787  -5.1943   7.4369   H         1 RES1   0.0000
    22 C10      1.7350  -3.5934   6.5549   C.ar      1 RES1   0.0000
    23 H6       2.1742  -2.9320   7.0385   H         1 RES1   0.0000
    24 C11     -1.4636  -4.4028   2.9404   C.3       1 RES1   0.0000
    25 H7      -1.7054  -5.2658   3.3118   H         1 RES1   0.0000
    26 H8      -2.2841  -3.9201   2.7574   H         1 RES1   0.0000
    27 C12      0.4880  -5.0611  -0.8373   C.ar      1 RES1   0.0000
    28 H9       0.8837  -5.2057  -1.6663   H         1 RES1   0.0000
    29 C13     -0.3165  -6.0362  -0.2725   C.ar      1 RES1   0.0000
    30 H10     -0.4594  -6.8375  -0.7208   H         1 RES1   0.0000
    31 C14     -0.7244  -4.6239   1.6330   C.ar      1 RES1   0.0000
    32 C15      0.7007  -3.8827  -0.1664   C.ar      1 RES1   0.0000
    33 H11      1.2532  -3.2310  -0.5336   H         1 RES1   0.0000
    34 C16     -0.9094  -5.8184   0.9569   C.ar      1 RES1   0.0000
    35 H12     -1.4397  -6.4815   1.3355   H         1 RES1   0.0000
    36 C17      0.0881  -3.6650   1.0620   C.ar      1 RES1   0.0000
    37 H13      0.2278  -2.8605   1.5061   H         1 RES1   0.0000
    38 C18     -0.3250   0.0000   8.2336   C.2       1 RES1   0.0000
    39 H14      0.5869   0.0000   8.4156   H         1 RES1   0.0000
    40 N4      -1.1381   0.0000   9.2821   N.am      1 RES1   0.0000
    41 C19     -0.6102   0.0000  10.6301   C.3       1 RES1   0.0000
    42 C20     -2.5676   0.0000   9.1188   C.3       1 RES1   0.0000
    43 N2A      0.3724   2.0560   5.0945   N.2       1 RES1   0.0000
    44 C1A      0.8119   3.2863   5.5595   C.ar      1 RES1   0.0000
    45 N3A     -0.6919   3.6585   3.9390   N.pl3     1 RES1   0.0000
    46 C2A     -0.5144   2.3062   4.1532   C.2       1 RES1   0.0000
    47 C3A      0.1493   4.2956   4.8355   C.ar      1 RES1   0.0000
    48 C4A      1.2954   5.9306   6.0670   C.ar      1 RES1   0.0000
    49 H1A      1.4841   6.8212   6.2543   H         1 RES1   0.0000
    50 C5A     -2.2102   1.2011   2.5514   C.ar      1 RES1   0.0000
    51 H2A     -2.5363   2.0137   2.2363   H         1 RES1   0.0000
    52 C6A     -1.1924   1.1669   3.4938   C.ar      1 RES1   0.0000
    53 C8A      0.3713   5.6462   5.0956   C.ar      1 RES1   0.0000
    54 H4A     -0.0805   6.3158   4.6358   H         1 RES1   0.0000
    55 C9A      1.9640   4.9424   6.7858   C.ar      1 RES1   0.0000
    56 H5A      2.5787   5.1943   7.4369   H         1 RES1   0.0000
    57 C10A     1.7350   3.5934   6.5549   C.ar      1 RES1   0.0000
    58 H6A      2.1742   2.9320   7.0385   H         1 RES1   0.0000
    59 C11A    -1.4636   4.4028   2.9404   C.3       1 RES1   0.0000
    60 H7A     -1.7054   5.2658   3.3118   H         1 RES1   0.0000
    61 H8A     -2.2841   3.9201   2.7574   H         1 RES1   0.0000
    62 C12A     0.4880   5.0611  -0.8373   C.ar      1 RES1   0.0000
    63 H9A      0.8837   5.2057  -1.6663   H         1 RES1   0.0000
    64 C13A    -0.3165   6.0362  -0.2725   C.ar      1 RES1   0.0000
    65 H10A    -0.4594   6.8375  -0.7208   H         1 RES1   0.0000
    66 C14A    -0.7244   4.6239   1.6330   C.ar      1 RES1   0.0000
    67 C15A     0.7007   3.8827  -0.1664   C.ar      1 RES1   0.0000
    68 H11A     1.2532   3.2310  -0.5336   H         1 RES1   0.0000
    69 C16A    -0.9094   5.8184   0.9569   C.ar      1 RES1   0.0000
    70 H12A    -1.4397   6.4815   1.3355   H         1 RES1   0.0000
    71 C17A     0.0881   3.6650   1.0620   C.ar      1 RES1   0.0000
    72 H13A     0.2278   2.8605   1.5061   H         1 RES1   0.0000
@<TRIPOS>BOND
     1     1     2    1
     2     3     1    1
     3     4     1    1
     4     5     1    1
     5     6     1    1
     6     7     6    1
     7     8     9    1
     8     9     6    2
     9    10     7   ar
    10    11    12    1
    11    13    14    1
    12    15     5   ar
    13    16    13   ar
    14    17    16    1
    15    18    10   ar
    16    19    18    1
    17    20    11   ar
    18    21    20    1
    19    22     7   ar
    20    23    22    1
    21    24     8    1
    22    25    24    1
    23    26    24    1
    24    27    28    1
    25    29    27   ar
    26    30    29    1
    27    31    24    1
    28    32    27   ar
    29    33    32    1
    30    34    29   ar
    31    35    34    1
    32    36    31   ar
    33    37    36    1
    34    38     4    2
    35    39    38    1
    36    40    38   am
    37    41    40    1
    38    42    40    1
    39    43     1    1
    40    44    43    1
    41    45    46    1
    42    46    43    2
    43    47    44   ar
    44    48    49    1
    45    50    16   ar
    46    51    50    1
    47    52     5   ar
    48    53    47   ar
    49    54    53    1
    50    55    48   ar
    51    56    55    1
    52    57    44   ar
    53    58    57    1
    54    59    45    1
    55    60    59    1
    56    61    59    1
    57    62    63    1
    58    64    62   ar
    59    65    64    1
    60    66    59    1
    61    67    62   ar
    62    68    67    1
    63    69    64   ar
    64    70    69    1
    65    71    66   ar
    66    72    71    1
    67     8    10    1
    68     9    15    1
    69    11    18   ar
    70    13    15   ar
    71    20    22   ar
    72    31    34   ar
    73    32    36   ar
    74    45    47    1
    75    46    52    1
    76    48    53   ar
    77    50    52   ar
    78    55    57   ar
    79    66    69   ar
    80    67    71   ar
@<TRIPOS>SUBSTRUCTURE
     1 RES1        1 GROUP             0 ****  ****    0  
@<TRIPOS>CRYSIN
    9.0444   16.2526   10.4674   90.0000   96.4450   90.0000     8     1
