@<TRIPOS>MOLECULE
VASZIY
    88    91     4     0     0
SMALL
USER_CHARGES
****
Generated from the CSD

@<TRIPOS>ATOM
     1 Fe1      2.1970   0.0947   2.4358   Fe        1 RES1   2.0000
     2 N1       2.6379  -1.4935   1.2880   N.ar      1 RES1   0.0000
     3 N2       3.4630  -0.7912   3.6100   N.2       1 RES1   0.0000
     4 N3       3.6145   1.3012   1.9296   N.2       1 RES1   0.0000
     5 N4       1.2696   1.0200   0.9210   N.ar      1 RES1   0.0000
     6 N5       1.8306   1.3420   3.8708   N.2       1 RES1   0.0000
     7 N6       0.6063  -0.8903   3.0398   N.1       1 RES1   0.0000
     8 C1       2.3154  -1.7208  -0.0312   C.ar      1 RES1   0.0000
     9 C2       2.5636  -2.9375  -0.6336   C.ar      1 RES1   0.0000
    10 C3       3.1268  -3.9429   0.0808   C.ar      1 RES1   0.0000
    11 C4       3.4396  -3.7404   1.3964   C.ar      1 RES1   0.0000
    12 C5       3.1991  -2.5018   1.9619   C.ar      1 RES1   0.0000
    13 C6       3.5247  -2.2381   3.3930   C.3       1 RES1   0.0000
    14 C7       4.3088  -0.1559   4.3197   C.2       1 RES1   0.0000
    15 C8       4.1881   1.3551   4.2366   C.3       1 RES1   0.0000
    16 C9       4.3926   1.8170   2.7917   C.2       1 RES1   0.0000
    17 C10      3.5702   1.6844   0.5332   C.3       1 RES1   0.0000
    18 C11      2.1191   1.6261   0.0773   C.ar      1 RES1   0.0000
    19 C12      1.6968   2.1988  -1.1045   C.ar      1 RES1   0.0000
    20 C13      0.3872   2.0545  -1.4761   C.ar      1 RES1   0.0000
    21 C14     -0.4792   1.3668  -0.5897   C.ar      1 RES1   0.0000
    22 C15     -0.0136   0.8845   0.5701   C.ar      1 RES1   0.0000
    23 C16      5.4177  -0.7431   5.0895   C.3       1 RES1   0.0000
    24 C17      5.4367   2.8647   2.5401   C.3       1 RES1   0.0000
    25 C18      2.7575   1.7573   4.6613   C.2       1 RES1   0.0000
    26 C19      2.5527   2.3955   5.9654   C.3       1 RES1   0.0000
    27 C20      2.9700   1.4163   7.0664   C.ar      1 RES1   0.0000
    28 C21      4.0555   1.6888   7.8604   C.ar      1 RES1   0.0000
    29 C22      4.4282   0.7286   8.8056   C.ar      1 RES1   0.0000
    30 C23      3.8271  -0.4604   8.8980   C.ar      1 RES1   0.0000
    31 C24      2.7633  -0.7489   8.0751   C.ar      1 RES1   0.0000
    32 C25      2.3627   0.2186   7.1888   C.ar      1 RES1   0.0000
    33 C26     -0.2824  -1.3536   3.5119   C.1       1 RES1   0.0000
    34 C27     -1.4472  -1.9248   4.1166   C.3       1 RES1   0.0000
    35 H1       1.9133  -1.0171  -0.5655   H         1 RES1   0.0000
    36 H2       2.3180  -3.0512  -1.5846   H         1 RES1   0.0000
    37 H3       3.2858  -4.7749  -0.4143   H         1 RES1   0.0000
    38 H4       3.8368  -4.4820   1.9192   H         1 RES1   0.0000
    39 H5       2.9034  -2.7073   4.0012   H         1 RES1   0.0000
    40 H6       4.4074  -2.5966   3.6388   H         1 RES1   0.0000
    41 H7       4.8254   1.8112   4.8368   H         1 RES1   0.0000
    42 H8       4.1196   1.0899   0.0012   H         1 RES1   0.0000
    43 H9       3.9267   2.5718   0.4178   H         1 RES1   0.0000
    44 H10      2.3304   2.6898  -1.6607   H         1 RES1   0.0000
    45 H11      0.0368   2.4159  -2.3347   H         1 RES1   0.0000
    46 H12     -1.4034   1.2181  -0.8609   H         1 RES1   0.0000
    47 H13     -0.6191   0.4502   1.2083   H         1 RES1   0.0000
    48 H14      5.0693  -1.3799   5.7623   H         1 RES1   0.0000
    49 H15      6.0104  -1.2618   4.5344   H         1 RES1   0.0000
    50 H16      5.9144  -0.0962   5.5546   H         1 RES1   0.0000
    51 H17      5.0159   3.6602   2.1870   H         1 RES1   0.0000
    52 H18      6.0737   2.5601   1.9088   H         1 RES1   0.0000
    53 H19      5.8794   3.1036   3.3491   H         1 RES1   0.0000
    54 H20      0.9229   1.6669   3.9839   H         1 RES1   0.0000
    55 H21      1.6177   2.6461   6.0739   H         1 RES1   0.0000
    56 H22      3.0594   3.2144   6.0116   H         1 RES1   0.0000
    57 H23      4.5494   2.5441   7.7704   H         1 RES1   0.0000
    58 H24      5.2511   0.9165   9.3654   H         1 RES1   0.0000
    59 H25      4.1226  -1.0855   9.5904   H         1 RES1   0.0000
    60 H26      2.3188  -1.6553   8.0959   H         1 RES1   0.0000
    61 H27      1.5873   0.0102   6.5933   H         1 RES1   0.0000
    62 H28     -1.9318  -2.5135   3.5257   H         1 RES1   0.0000
    63 H29     -1.1930  -2.4829   4.8898   H         1 RES1   0.0000
    64 H30     -2.0458  -1.2677   4.4421   H         1 RES1   0.0000
    65 P1       3.2262   6.0980  10.6256   P.3       2 RES2  -1.0000
    66 F1       4.6772   6.4564  10.6452   F         2 RES2   0.0000
    67 F2       1.7582   5.6958  10.5748   F         2 RES2   0.0000
    68 F3       3.5022   5.1028  11.7105   F         2 RES2   0.0000
    69 F4       2.9189   7.1004   9.5108   F         2 RES2   0.0000
    70 F5       3.5212   5.0285   9.5431   F         2 RES2   0.0000
    71 F6       2.9283   7.1777  11.6458   F         2 RES2   0.0000
    72 P2       9.0036   2.6286   5.2915   P.3       3 RES3  -1.0000
    73 F7      10.3064   3.1328   4.9741   F         3 RES3   0.0000
    74 F8       7.7635   1.9379   5.4473   F         3 RES3   0.0000
    75 F9       9.7326   1.3566   5.3434   F         3 RES3   0.0000
    76 F10      8.4934   3.9633   5.4126   F         3 RES3   0.0000
    77 F11      9.1166   2.6315   6.7733   F         3 RES3   0.0000
    78 F12      8.8024   2.6956   3.7715   F         3 RES3   0.0000
    79 O1       2.8137   4.7516   3.9700   O.2       4 RES4   0.0000
    80 C28      1.1723   4.6919   2.3082   C.3       4 RES4   0.0000
    81 C29      2.0480   5.3476   3.3238   C.2       4 RES4   0.0000
    82 C30      1.7522   6.6735   3.4738   C.3       4 RES4   0.0000
    83 H31      0.4843   4.0391   2.7248   H         4 RES4   0.0000
    84 H32      1.5550   4.2110   1.6146   H         4 RES4   0.0000
    85 H33      0.4924   5.3184   1.8454   H         4 RES4   0.0000
    86 H34      2.7739   7.1704   3.1726   H         4 RES4   0.0000
    87 H35      1.2592   7.1937   2.8390   H         4 RES4   0.0000
    88 H36      1.7269   7.0334   4.3093   H         4 RES4   0.0000
@<TRIPOS>BOND
     1     1     2    1
     2     2     8   ar
     3     3     1    1
     4     4     1    1
     5     5     1    1
     6     6     1    1
     7     7     1    1
     8     8     9   ar
     9     9    10   ar
    10    10    11   ar
    11    11    12   ar
    12    12     2   ar
    13    13     3    1
    14    14     3    2
    15    15    14    1
    16    16     4    2
    17    17     4    1
    18    18     5   ar
    19    19    18   ar
    20    20    19   ar
    21    21    20   ar
    22    22     5   ar
    23    23    14    1
    24    24    16    1
    25    25     6    2
    26    26    25    1
    27    27    26    1
    28    28    27   ar
    29    29    28   ar
    30    30    29   ar
    31    31    30   ar
    32    32    27   ar
    33    33     7    3
    34    34    33    1
    35    35     8    1
    36    36     9    1
    37    37    10    1
    38    38    11    1
    39    39    13    1
    40    40    13    1
    41    41    15    1
    42    42    17    1
    43    43    17    1
    44    44    19    1
    45    45    20    1
    46    46    21    1
    47    47    22    1
    48    48    23    1
    49    49    23    1
    50    50    23    1
    51    51    24    1
    52    52    24    1
    53    53    24    1
    54    54     6    1
    55    55    26    1
    56    56    26    1
    57    57    28    1
    58    58    29    1
    59    59    30    1
    60    60    31    1
    61    61    32    1
    62    62    34    1
    63    63    34    1
    64    64    34    1
    65    12    13    1
    66    15    16    1
    67    15    25    1
    68    17    18    1
    69    21    22   ar
    70    31    32   ar
    71    65    66    1
    72    67    65    1
    73    68    65    1
    74    69    65    1
    75    70    65    1
    76    71    65    1
    77    72    73    1
    78    74    72    1
    79    75    72    1
    80    76    72    1
    81    77    72    1
    82    78    72    1
    83    79    81    2
    84    80    81    1
    85    81    82    1
    86    82    86    1
    87    83    80    1
    88    84    80    1
    89    85    80    1
    90    87    82    1
    91    88    82    1
@<TRIPOS>SUBSTRUCTURE
     1 RES1        1 GROUP             0 ****  ****    0  
     2 RES2       65 GROUP             0 ****  ****    0  
     3 RES3       72 GROUP             0 ****  ****    0  
     4 RES4       79 GROUP             0 ****  ****    0  
@<TRIPOS>CRYSIN
   11.0270   14.5710   11.5620   90.0000   93.4700   90.0000     4     1
