@<TRIPOS>MOLECULE
VAZMUF
    79    86     3     0     0
SMALL
USER_CHARGES
****
Generated from the CSD

@<TRIPOS>ATOM
     1 C1       1.2154   6.9734  12.1506   C.ar      1 RES1   0.0000
     2 C2       1.2287   6.5134  13.4658   C.ar      1 RES1   0.0000
     3 H1       0.6895   6.9103  14.1124   H         1 RES1   0.0000
     4 C3       2.0525   5.4609  13.7897   C.ar      1 RES1   0.0000
     5 H2       2.0780   5.1474  14.6657   H         1 RES1   0.0000
     6 C4       2.8437   4.8663  12.8252   C.ar      1 RES1   0.0000
     7 H3       3.3957   4.1481  13.0375   H         1 RES1   0.0000
     8 C5       2.7932   5.3631  11.5476   C.ar      1 RES1   0.0000
     9 C6       0.4374   8.1405  11.5658   C.2       1 RES1   0.0000
    10 C7       3.5861   4.9138  10.3502   C.2       1 RES1   0.0000
    11 C8       1.4972   6.8853   6.4217   C.ar      1 RES1   0.0000
    12 C9       1.7228   7.0648   5.0713   C.ar      1 RES1   0.0000
    13 H5       1.2050   6.6120   4.4453   H         1 RES1   0.0000
    14 C10      2.7378   7.9373   4.6516   C.ar      1 RES1   0.0000
    15 H6       2.8946   8.0792   3.7453   H         1 RES1   0.0000
    16 C11      3.5098   8.5899   5.6161   C.ar      1 RES1   0.0000
    17 H7       4.1881   9.1746   5.3662   H         1 RES1   0.0000
    18 C12      3.2416   8.3461   6.9543   C.ar      1 RES1   0.0000
    19 C13      0.4807   5.9992   7.1084   C.2       1 RES1   0.0000
    20 C14      3.9534   8.9158   8.1724   C.2       1 RES1   0.0000
    21 Fe1      1.9711   7.1444   9.3273   Fe        1 RES1   0.0000
    22 N1       2.0011   6.3887  11.2443   N.ar      1 RES1   0.0000
    23 N2       2.2612   7.5247   7.3110   N.ar      1 RES1   0.0000
    24 O1       0.6763   8.3077  10.2962   O.co2     1 RES1  -1.0000
    25 O2      -0.2912   8.8105  12.2622   O.co2     1 RES1   0.0000
    26 O3       3.3300   5.5903   9.2664   O.co2     1 RES1   0.0000
    27 O4       4.3818   3.9792  10.4133   O.co2     1 RES1   0.0000
    28 O5       0.5119   6.0746   8.3879   O.co2     1 RES1   0.0000
    29 O6      -0.2882   5.2872   6.4593   O.co2     1 RES1   0.0000
    30 O7       3.3965   8.5417   9.2967   O.co2     1 RES1   0.0000
    31 O8       4.9008   9.6538   8.0620   O.co2     1 RES1   0.0000
    32 H4       4.8759   5.3968   8.1542   H         2 RES2   0.0000
    33 C24      5.2574   5.0248   6.3889   C.3       2 RES2   0.0000
    34 H17      4.6987   5.6351   5.9012   H         2 RES2   0.0000
    35 H18      4.7717   4.2154   6.5624   H         2 RES2   0.0000
    36 H19      6.0403   4.8250   5.8709   H         2 RES2   0.0000
    37 O9       5.6396   5.6130   7.6094   O.3       2 RES2   0.0000
    38 C15     -0.1385   2.6392   8.9440   C.ar      3 RES3   0.0000
    39 C16      1.2262   2.7368   8.8033   C.ar      3 RES3   0.0000
    40 H8       1.6241   3.4086   8.2974   H         3 RES3   0.0000
    41 C17      1.9613   1.7833   9.4536   C.ar      3 RES3   0.0000
    42 H9       2.8882   1.8067   9.3808   H         3 RES3   0.0000
    43 C18      1.3785   0.7809  10.2203   C.ar      3 RES3   0.0000
    44 H10      1.9225   0.1637  10.6535   H         3 RES3   0.0000
    45 C19      0.0188   0.6842  10.3526   C.ar      3 RES3   0.0000
    46 H11     -0.3786   0.0076  10.8512   H         3 RES3   0.0000
    47 C20     -0.7345   1.6530   9.6987   C.ar      3 RES3   0.0000
    48 C21     -2.3231   2.9599   8.9222   C.2       3 RES3   0.0000
    49 H12     -3.1586   3.3333   8.7535   H         3 RES3   0.0000
    50 C22     -3.1662   1.0880  10.3271   C.3       3 RES3   0.0000
    51 H13     -2.9898   0.1440  10.1924   H         3 RES3   0.0000
    52 H14     -4.0205   1.2920   9.9158   H         3 RES3   0.0000
    53 C23     -3.2526   1.3676  11.8097   C.3       3 RES3   0.0000
    54 H15     -3.4424   2.3079  11.9516   H         3 RES3   0.0000
    55 H16     -2.3997   1.1657  12.2270   H         3 RES3   0.0000
    56 N3      -1.1843   3.4269   8.4648   N.pl3     3 RES3   1.0000
    57 H20     -1.0939   4.0828   7.8788   H         3 RES3   0.0000
    58 N4      -2.1059   1.8783   9.6586   N.pl3     3 RES3   0.0000
    59 C15A    -7.4674  -0.7546  15.3208   C.ar      3 RES3   0.0000
    60 C16A    -8.8321  -0.8523  15.4615   C.ar      3 RES3   0.0000
    61 H8A     -9.2300  -1.5240  15.9675   H         3 RES3   0.0000
    62 C17A    -9.5672   0.1012  14.8113   C.ar      3 RES3   0.0000
    63 H9A    -10.4941   0.0778  14.8840   H         3 RES3   0.0000
    64 C18A    -8.9844   1.1037  14.0445   C.ar      3 RES3   0.0000
    65 H10A    -9.5284   1.7209  13.6114   H         3 RES3   0.0000
    66 C19A    -7.6248   1.2004  13.9122   C.ar      3 RES3   0.0000
    67 H11A    -7.2274   1.8770  13.4136   H         3 RES3   0.0000
    68 C20A    -6.8714   0.2316  14.5662   C.ar      3 RES3   0.0000
    69 C21A    -5.2828  -1.0754  15.3427   C.2       3 RES3   0.0000
    70 H12A    -4.4474  -1.4487  15.5113   H         3 RES3   0.0000
    71 C22A    -4.4397   0.7966  13.9377   C.3       3 RES3   0.0000
    72 H13A    -4.6161   1.7406  14.0724   H         3 RES3   0.0000
    73 H14A    -3.5854   0.5926  14.3490   H         3 RES3   0.0000
    74 C23A    -4.3533   0.5169  12.4551   C.3       3 RES3   0.0000
    75 H15A    -4.1635  -0.4233  12.3132   H         3 RES3   0.0000
    76 H16A    -5.2062   0.7189  12.0378   H         3 RES3   0.0000
    77 N3A     -6.4216  -1.5424  15.8000   N.pl3     3 RES3   1.0000
    78 H20A    -6.5120  -2.1983  16.3860   H         3 RES3   0.0000
    79 N4A     -5.5000   0.0063  14.6062   N.pl3     3 RES3   0.0000
@<TRIPOS>BOND
     1     1     2   ar
     2     2     3    1
     3     4     2   ar
     4     5     4    1
     5     6     4   ar
     6     7     6    1
     7     8     6   ar
     8     9     1    1
     9    10     8    1
    10    11    12   ar
    11    12    13    1
    12    14    12   ar
    13    15    14    1
    14    16    14   ar
    15    17    16    1
    16    18    16   ar
    17    19    11    1
    18    20    18    1
    19    21    22    1
    20    22     1   ar
    21    23    11   ar
    22    24     9    1
    23    25     9    2
    24    26    10    1
    25    27    10    2
    26    28    19    1
    27    29    19    2
    28    30    20    1
    29    31    20    2
    30     8    22   ar
    31    18    23   ar
    32    21    23    1
    33    21    24    1
    34    21    26    1
    35    21    28    1
    36    21    30    1
    37    32    37    1
    38    33    34    1
    39    35    33    1
    40    36    33    1
    41    37    33    1
    42    38    39   ar
    43    39    40    1
    44    41    39   ar
    45    42    41    1
    46    43    41   ar
    47    44    43    1
    48    45    43   ar
    49    46    45    1
    50    47    38   ar
    51    48    49    1
    52    50    51    1
    53    52    50    1
    54    53    50    1
    55    54    53    1
    56    55    53    1
    57    56    38    1
    58    57    56    1
    59    58    47    1
    60    59    60   ar
    61    60    61    1
    62    62    60   ar
    63    63    62    1
    64    64    62   ar
    65    65    64    1
    66    66    64   ar
    67    67    66    1
    68    68    59   ar
    69    69    70    1
    70    71    72    1
    71    73    71    1
    72    74    53    1
    73    75    74    1
    74    76    74    1
    75    77    59    1
    76    78    77    1
    77    79    68    1
    78    45    47   ar
    79    48    56    2
    80    48    58    1
    81    50    58    1
    82    66    68   ar
    83    69    77    2
    84    69    79    1
    85    71    74    1
    86    71    79    1
@<TRIPOS>SUBSTRUCTURE
     1 RES1        1 GROUP             0 ****  ****    0  
     2 RES2       32 GROUP             0 ****  ****    0  
     3 RES3       38 GROUP             0 ****  ****    0  
@<TRIPOS>CRYSIN
    9.2751   11.0350   13.1670  106.5000  101.1900  103.0700     2     1
