@<TRIPOS>MOLECULE
VECXOT
    75    79     1     0     0
SMALL
NO_CHARGES
****
Generated from the CSD

@<TRIPOS>ATOM
     1 C1       3.5283  -2.1689   8.8467   C.3       1 RES1   0.0000
     2 H1       3.3726  -3.0417   9.2870   H         1 RES1   0.0000
     3 H2       3.5130  -2.3226   7.8694   H         1 RES1   0.0000
     4 C2       4.9253  -1.6713   9.2373   C.3       1 RES1   0.0000
     5 H3       4.9140  -1.4199  10.1945   H         1 RES1   0.0000
     6 H4       5.5666  -2.4174   9.1316   H         1 RES1   0.0000
     7 C3       5.4281  -0.4760   8.4248   C.3       1 RES1   0.0000
     8 H5       5.2776  -0.6661   7.4646   H         1 RES1   0.0000
     9 H6       6.4051  -0.3960   8.5617   H         1 RES1   0.0000
    10 C4       0.7441  -2.0129   8.5022   C.3       1 RES1   0.0000
    11 H7       0.9724  -2.0689   7.5306   H         1 RES1   0.0000
    12 C5      -0.5994  -1.2916   8.5608   C.3       1 RES1   0.0000
    13 H8      -0.9296  -1.2904   9.4839   H         1 RES1   0.0000
    14 H9      -1.2429  -1.7531   7.9844   H         1 RES1   0.0000
    15 H10     -0.4881  -0.3678   8.2522   H         1 RES1   0.0000
    16 C6       0.5550  -3.4528   8.9555   C.3       1 RES1   0.0000
    17 H11      1.4092  -3.9304   8.8944   H         1 RES1   0.0000
    18 H12     -0.1066  -3.8919   8.3807   H         1 RES1   0.0000
    19 H13      0.2403  -3.4647   9.8839   H         1 RES1   0.0000
    20 C7       2.0526  -1.1771  11.1307   C.3       1 RES1   0.0000
    21 H14      2.7590  -0.5343  11.4286   H         1 RES1   0.0000
    22 C8       0.7961  -0.5735  11.6998   C.3       1 RES1   0.0000
    23 H15      0.6119   0.2789  11.2525   H         1 RES1   0.0000
    24 H16      0.9139  -0.4191  12.6603   H         1 RES1   0.0000
    25 H17      0.0453  -1.1867  11.5571   H         1 RES1   0.0000
    26 C9       2.4642  -2.4504  11.7992   C.3       1 RES1   0.0000
    27 H18      1.8196  -3.1560  11.5840   H         1 RES1   0.0000
    28 H19      2.4902  -2.3163  12.7704   H         1 RES1   0.0000
    29 H20      3.3534  -2.7128  11.4824   H         1 RES1   0.0000
    30 C10      5.2055   1.3659  10.6013   C.3       1 RES1   0.0000
    31 H21      4.5656   0.8347  11.1571   H         1 RES1   0.0000
    32 C11      6.6061   0.8478  10.9530   C.3       1 RES1   0.0000
    33 H22      6.6553  -0.1137  10.7682   H         1 RES1   0.0000
    34 H23      6.7846   1.0078  11.9032   H         1 RES1   0.0000
    35 H24      7.2736   1.3184  10.4122   H         1 RES1   0.0000
    36 C12      5.0768   2.8191  11.0781   C.3       1 RES1   0.0000
    37 H25      5.7765   3.3627  10.6605   H         1 RES1   0.0000
    38 H26      5.1739   2.8536  12.0524   H         1 RES1   0.0000
    39 H27      4.1966   3.1687  10.8256   H         1 RES1   0.0000
    40 C13      5.8399   2.3108   7.9374   C.3       1 RES1   0.0000
    41 H28      6.6270   2.4512   8.5372   H         1 RES1   0.0000
    42 C14      5.1822   3.6741   7.7121   C.3       1 RES1   0.0000
    43 H29      4.4388   3.5782   7.0805   H         1 RES1   0.0000
    44 H30      5.8424   4.2993   7.3471   H         1 RES1   0.0000
    45 H31      4.8424   4.0177   8.5654   H         1 RES1   0.0000
    46 C15      6.3658   1.7845   6.5991   C.3       1 RES1   0.0000
    47 H32      6.8768   0.9617   6.7503   H         1 RES1   0.0000
    48 H33      6.9468   2.4593   6.1889   H         1 RES1   0.0000
    49 H34      5.6115   1.5967   6.0030   H         1 RES1   0.0000
    50 C16      1.8558   2.6318   9.7930   C.2       1 RES1   0.0000
    51 H35      1.9146   2.3631  10.7547   H         1 RES1   0.0000
    52 C17      1.9389   4.1291   9.4907   C.3       1 RES1   0.0000
    53 H36      2.8286   4.5558   9.6564   H         1 RES1   0.0000
    54 C18      0.7298   4.7890  10.2156   C.3       1 RES1   0.0000
    55 H37      0.6785   4.4997  11.1608   H         1 RES1   0.0000
    56 H38      0.7890   5.7771  10.1823   H         1 RES1   0.0000
    57 C19     -0.4927   4.2733   9.4042   C.3       1 RES1   0.0000
    58 H39     -1.1085   3.7512   9.9768   H         1 RES1   0.0000
    59 H40     -0.9911   5.0225   8.9922   H         1 RES1   0.0000
    60 C20      0.1660   3.3751   8.3226   C.3       1 RES1   0.0000
    61 H41     -0.4014   3.1726   7.5245   H         1 RES1   0.0000
    62 C21      0.7197   2.1627   9.0618   C.2       1 RES1   0.0000
    63 H42      0.0601   1.6059   9.5671   H         1 RES1   0.0000
    64 C22      1.4374   4.1796   8.0448   C.3       1 RES1   0.0000
    65 H43      1.2473   5.1010   7.7373   H         1 RES1   0.0000
    66 H44      2.0471   3.7260   7.4107   H         1 RES1   0.0000
    67 C23      2.7379   0.5079   6.3897   C.2       1 RES1   0.0000
    68 H45      3.4951   0.9379   6.0164   H         1 RES1   0.0000
    69 H46      2.8362  -0.4343   6.4384   H         1 RES1   0.0000
    70 C24      1.5239   1.0570   6.5130   C.2       1 RES1   0.0000
    71 H47      0.7425   0.4527   6.5680   H         1 RES1   0.0000
    72 H48      1.4006   1.9357   6.0910   H         1 RES1   0.0000
    73 Fe1      2.4188   1.1992   8.3801   Fe        1 RES1   0.0000
    74 P1       2.1343  -1.0400   9.2800   P.3       1 RES1   0.0000
    75 P2       4.6521   1.1511   8.8222   P.3       1 RES1   0.0000
@<TRIPOS>BOND
     1     1     2    1
     2     3     1    1
     3     4     1    1
     4     5     4    1
     5     6     4    1
     6     7     4    1
     7     8     7    1
     8     9     7    1
     9    10    11    1
    10    12    10    1
    11    13    12    1
    12    14    12    1
    13    15    12    1
    14    16    10    1
    15    17    16    1
    16    18    16    1
    17    19    16    1
    18    20    21    1
    19    22    20    1
    20    23    22    1
    21    24    22    1
    22    25    22    1
    23    26    20    1
    24    27    26    1
    25    28    26    1
    26    29    26    1
    27    30    31    1
    28    32    30    1
    29    33    32    1
    30    34    32    1
    31    35    32    1
    32    36    30    1
    33    37    36    1
    34    38    36    1
    35    39    36    1
    36    40    41    1
    37    42    40    1
    38    43    42    1
    39    44    42    1
    40    45    42    1
    41    46    40    1
    42    47    46    1
    43    48    46    1
    44    49    46    1
    45    50    51    1
    46    52    50    1
    47    53    52    1
    48    54    52    1
    49    55    54    1
    50    56    54    1
    51    57    54    1
    52    58    57    1
    53    59    57    1
    54    60    57    1
    55    61    60    1
    56    62    50    2
    57    63    62    1
    58    64    52    1
    59    65    64    1
    60    66    64    1
    61    67    68    1
    62    69    67    1
    63    70    67    2
    64    71    70    1
    65    72    70    1
    66    73    50   un
    67    74     1    1
    68    75     7    1
    69    10    74    1
    70    20    74    1
    71    30    75    1
    72    40    75    1
    73    60    62    1
    74    60    64    1
    75    62    73   un
    76    67    73   un
    77    70    73   un
    78    73    74    1
    79    73    75    1
@<TRIPOS>SUBSTRUCTURE
     1 RES1        1 GROUP             0 ****  ****    0  
@<TRIPOS>CRYSIN
    9.5390   11.4360   12.5000  100.6460   90.7630  112.7560     2     1
