@<TRIPOS>MOLECULE
VEGDAQ
    93   104     1     0     0
SMALL
NO_CHARGES
****
Generated from the CSD

@<TRIPOS>ATOM
     1 Fe1     -1.1909   6.8669  14.3510   Fe        1 RES1   0.0000
     2 P1      -2.4213   6.7794  12.5359   P.3       1 RES1   0.0000
     3 P2       0.5131   5.7587  13.4581   P.3       1 RES1   0.0000
     4 N1      -0.8226   8.6946  13.7161   N.2       1 RES1   0.0000
     5 N2      -0.0743   7.5007  15.8725   N.ar      1 RES1   0.0000
     6 N3      -1.5487   5.1336  15.2108   N.2       1 RES1   0.0000
     7 N4      -2.7618   7.3927  15.4466   N.ar      1 RES1   0.0000
     8 C1      -1.7664   8.1675  11.5377   C.3       1 RES1   0.0000
     9 H1      -0.9948   7.8628  10.9976   H         1 RES1   0.0000
    10 H2      -2.4657   8.5023  10.9219   H         1 RES1   0.0000
    11 C2      -1.3299   9.2848  12.4924   C.3       1 RES1   0.0000
    12 H3      -0.6247   9.8343  12.0669   H         1 RES1   0.0000
    13 H4      -2.1000   9.8724  12.6968   H         1 RES1   0.0000
    14 C3      -0.1063   9.4713  14.5523   C.ar      1 RES1   0.0000
    15 C4       0.2731  10.8122  14.4057   C.ar      1 RES1   0.0000
    16 H5      -0.0667  11.3261  13.6824   H         1 RES1   0.0000
    17 C5       1.1509  11.3937  15.3231   C.ar      1 RES1   0.0000
    18 H6       1.4171  12.2938  15.1798   H         1 RES1   0.0000
    19 C6       1.6505  10.7380  16.4196   C.ar      1 RES1   0.0000
    20 H7       2.2639  11.1674  17.0043   H         1 RES1   0.0000
    21 C7       1.2331   9.4124  16.6591   C.ar      1 RES1   0.0000
    22 C8       1.6544   8.6334  17.7563   C.ar      1 RES1   0.0000
    23 H8       2.2611   8.9932  18.3927   H         1 RES1   0.0000
    24 C9       1.1867   7.3634  17.8980   C.ar      1 RES1   0.0000
    25 H9       1.4509   6.8444  18.6484   H         1 RES1   0.0000
    26 C10      0.3218   6.8190  16.9486   C.ar      1 RES1   0.0000
    27 H10      0.0041   5.9319  17.0724   H         1 RES1   0.0000
    28 C11      0.3542   8.7927  15.7391   C.ar      1 RES1   0.0000
    29 C12      0.0168   4.0118  13.7379   C.3       1 RES1   0.0000
    30 H11     -0.5744   3.7041  13.0060   H         1 RES1   0.0000
    31 H12      0.8170   3.4296  13.7608   H         1 RES1   0.0000
    32 C13     -0.7165   3.9463  15.0658   C.3       1 RES1   0.0000
    33 H13     -1.2812   3.1339  15.0983   H         1 RES1   0.0000
    34 H14     -0.0636   3.9007  15.8087   H         1 RES1   0.0000
    35 C14     -2.4396   5.1792  16.2090   C.ar      1 RES1   0.0000
    36 C15     -2.7299   4.1907  17.1728   C.ar      1 RES1   0.0000
    37 H15     -2.2042   3.3999  17.2133   H         1 RES1   0.0000
    38 C16     -3.7814   4.3685  18.0626   C.ar      1 RES1   0.0000
    39 H16     -3.9653   3.6800  18.6909   H         1 RES1   0.0000
    40 C17     -4.5734   5.5032  18.0751   C.ar      1 RES1   0.0000
    41 H17     -5.3083   5.5734  18.6729   H         1 RES1   0.0000
    42 C18     -4.2682   6.5572  17.1800   C.ar      1 RES1   0.0000
    43 C19     -4.9947   7.7737  17.0859   C.ar      1 RES1   0.0000
    44 H18     -5.7723   7.9071  17.6151   H         1 RES1   0.0000
    45 C20     -4.5688   8.7534  16.2271   C.ar      1 RES1   0.0000
    46 H19     -5.0475   9.5717  16.1637   H         1 RES1   0.0000
    47 C21     -3.4326   8.5472  15.4481   C.ar      1 RES1   0.0000
    48 H20     -3.1229   9.2561  14.8962   H         1 RES1   0.0000
    49 C22     -3.1780   6.4033  16.2978   C.ar      1 RES1   0.0000
    50 C23     -4.2058   7.1343  12.7260   C.ar      1 RES1   0.0000
    51 C24     -5.0091   6.2124  13.4117   C.ar      1 RES1   0.0000
    52 H21     -4.6102   5.4433  13.8018   H         1 RES1   0.0000
    53 C25     -6.3691   6.4044  13.5282   C.ar      1 RES1   0.0000
    54 H22     -6.9002   5.7638  13.9872   H         1 RES1   0.0000
    55 C26     -6.9671   7.5271  12.9794   C.ar      1 RES1   0.0000
    56 H23     -7.9074   7.6475  13.0403   H         1 RES1   0.0000
    57 C27     -6.1835   8.4708  12.3425   C.ar      1 RES1   0.0000
    58 H24     -6.5815   9.2563  11.9871   H         1 RES1   0.0000
    59 C28     -4.8258   8.2723  12.2223   C.ar      1 RES1   0.0000
    60 H25     -4.2993   8.9308  11.7841   H         1 RES1   0.0000
    61 C29     -2.5089   5.3614  11.3753   C.ar      1 RES1   0.0000
    62 C30     -2.9067   4.1241  11.8752   C.ar      1 RES1   0.0000
    63 H26     -3.1148   4.0368  12.7979   H         1 RES1   0.0000
    64 C31     -3.0031   3.0200  11.0453   C.ar      1 RES1   0.0000
    65 H27     -3.2871   2.1838  11.3956   H         1 RES1   0.0000
    66 C32     -2.6845   3.1389   9.7049   C.ar      1 RES1   0.0000
    67 H28     -2.7472   2.3835   9.1319   H         1 RES1   0.0000
    68 C33     -2.2801   4.3412   9.2074   C.ar      1 RES1   0.0000
    69 H29     -2.0598   4.4187   8.2866   H         1 RES1   0.0000
    70 C34     -2.1867   5.4563  10.0311   C.ar      1 RES1   0.0000
    71 H30     -1.9004   6.2874   9.6712   H         1 RES1   0.0000
    72 C35      2.1137   5.9604  14.3354   C.ar      1 RES1   0.0000
    73 C36      2.7365   4.9337  15.0514   C.ar      1 RES1   0.0000
    74 H31      2.3869   4.0514  15.0218   H         1 RES1   0.0000
    75 C37      3.8714   5.2119  15.8081   C.ar      1 RES1   0.0000
    76 H32      4.2924   4.5143  16.2964   H         1 RES1   0.0000
    77 C38      4.3899   6.4830  15.8569   C.ar      1 RES1   0.0000
    78 H33      5.1612   6.6647  16.3809   H         1 RES1   0.0000
    79 C39      3.7848   7.4944  15.1411   C.ar      1 RES1   0.0000
    80 H34      4.1440   8.3737  15.1695   H         1 RES1   0.0000
    81 C40      2.6657   7.2380  14.3875   C.ar      1 RES1   0.0000
    82 H35      2.2622   7.9430  13.8942   H         1 RES1   0.0000
    83 C41      1.0495   5.8283  11.7001   C.ar      1 RES1   0.0000
    84 C42      1.4676   7.0438  11.1720   C.ar      1 RES1   0.0000
    85 H36      1.4676   7.8175  11.7237   H         1 RES1   0.0000
    86 C43      1.8824   7.1463   9.8610   C.ar      1 RES1   0.0000
    87 H37      2.1695   7.9860   9.5209   H         1 RES1   0.0000
    88 C44      1.8829   6.0400   9.0428   C.ar      1 RES1   0.0000
    89 H38      2.1775   6.1066   8.1421   H         1 RES1   0.0000
    90 C45      1.4500   4.8366   9.5495   C.ar      1 RES1   0.0000
    91 H39      1.4337   4.0709   8.9876   H         1 RES1   0.0000
    92 C46      1.0382   4.7264  10.8651   C.ar      1 RES1   0.0000
    93 H40      0.7454   3.8856  11.1979   H         1 RES1   0.0000
@<TRIPOS>BOND
     1     1     2    1
     2     2     8    1
     3     3     1    1
     4     4     1    1
     5     5     1    1
     6     6     1    1
     7     7     1    1
     8     8     9    1
     9    10     8    1
    10    11     4    1
    11    12    11    1
    12    13    11    1
    13    14     4    1
    14    15    14   ar
    15    16    15    1
    16    17    15   ar
    17    18    17    1
    18    19    17   ar
    19    20    19    1
    20    21    19   ar
    21    22    21   ar
    22    23    22    1
    23    24    22   ar
    24    25    24    1
    25    26     5   ar
    26    27    26    1
    27    28     5   ar
    28    29     3    1
    29    30    29    1
    30    31    29    1
    31    32     6    1
    32    33    32    1
    33    34    32    1
    34    35     6    1
    35    36    35   ar
    36    37    36    1
    37    38    36   ar
    38    39    38    1
    39    40    38   ar
    40    41    40    1
    41    42    40   ar
    42    43    42   ar
    43    44    43    1
    44    45    43   ar
    45    46    45    1
    46    47     7   ar
    47    48    47    1
    48    49     7   ar
    49    50     2    1
    50    51    50   ar
    51    52    51    1
    52    53    51   ar
    53    54    53    1
    54    55    53   ar
    55    56    55    1
    56    57    55   ar
    57    58    57    1
    58    59    50   ar
    59    60    59    1
    60    61     2    1
    61    62    61   ar
    62    63    62    1
    63    64    62   ar
    64    65    64    1
    65    66    64   ar
    66    67    66    1
    67    68    66   ar
    68    69    68    1
    69    70    61   ar
    70    71    70    1
    71    72     3    1
    72    73    72   ar
    73    74    73    1
    74    75    73   ar
    75    76    75    1
    76    77    75   ar
    77    78    77    1
    78    79    77   ar
    79    80    79    1
    80    81    72   ar
    81    82    81    1
    82    83     3    1
    83    84    83   ar
    84    85    84    1
    85    86    84   ar
    86    87    86    1
    87    88    86   ar
    88    89    88    1
    89    90    88   ar
    90    91    90    1
    91    92    83   ar
    92    93    92    1
    93     8    11    1
    94    14    28   ar
    95    21    28   ar
    96    24    26   ar
    97    29    32    1
    98    35    49   ar
    99    42    49   ar
   100    45    47   ar
   101    57    59   ar
   102    68    70   ar
   103    79    81   ar
   104    90    92   ar
@<TRIPOS>SUBSTRUCTURE
     1 RES1        1 GROUP             0 ****  ****    0  
@<TRIPOS>CRYSIN
   18.3954   10.9104   19.8924   90.0000  112.7200   90.0000    14     1
