@<TRIPOS>MOLECULE
VEHKIG
    96   108     2     0     0
SMALL
USER_CHARGES
****
Generated from the CSD

@<TRIPOS>ATOM
     1 Fe1      3.9636   7.7935  13.3895   Fe        1 RES1   2.0000
     2 N1       2.3669   7.8628  12.2368   N.ar      1 RES1   0.0000
     3 N2       2.9585   9.1324  14.4307   N.ar      1 RES1   0.0000
     4 N3       4.7411   6.2983  12.3466   N.ar      1 RES1   0.0000
     5 C1       2.1273   7.2809  11.0596   C.ar      1 RES1   0.0000
     6 H1       2.8093   6.7927  10.6572   H         1 RES1   0.0000
     7 C2       0.8949   7.3731  10.4058   C.ar      1 RES1   0.0000
     8 H2       0.7755   6.9564   9.5831   H         1 RES1   0.0000
     9 C3      -0.1301   8.0696  10.9662   C.ar      1 RES1   0.0000
    10 H3      -0.9580   8.1156  10.5452   H         1 RES1   0.0000
    11 C4       0.0872   8.7228  12.1995   C.ar      1 RES1   0.0000
    12 C5       1.3575   8.6050  12.7786   C.ar      1 RES1   0.0000
    13 C6       1.6738   9.2858  13.9779   C.ar      1 RES1   0.0000
    14 C7       0.7167  10.0735  14.6246   C.ar      1 RES1   0.0000
    15 C8      -0.5956  10.1440  14.0365   C.ar      1 RES1   0.0000
    16 H4      -1.2560  10.6419  14.4615   H         1 RES1   0.0000
    17 C9      -0.8901   9.5115  12.8923   C.ar      1 RES1   0.0000
    18 H5      -1.7475   9.5850  12.5399   H         1 RES1   0.0000
    19 C10      1.1167  10.7364  15.7986   C.ar      1 RES1   0.0000
    20 H6       0.5131  11.2629  16.2706   H         1 RES1   0.0000
    21 C11      2.3955  10.5964  16.2349   C.ar      1 RES1   0.0000
    22 H7       2.6704  11.0389  17.0056   H         1 RES1   0.0000
    23 C12      3.2994   9.7979  15.5374   C.ar      1 RES1   0.0000
    24 H8       4.1708   9.7250  15.8539   H         1 RES1   0.0000
    25 C13      5.5090   6.3240  11.2554   C.ar      1 RES1   0.0000
    26 H9       5.7734   7.1469  10.9118   H         1 RES1   0.0000
    27 C14      5.9284   5.1599  10.6131   C.ar      1 RES1   0.0000
    28 H10      6.4542   5.2235   9.8484   H         1 RES1   0.0000
    29 C15      5.5830   3.9404  11.0846   C.ar      1 RES1   0.0000
    30 H11      5.8725   3.1668  10.6566   H         1 RES1   0.0000
    31 C16      4.7759   3.8645  12.2362   C.ar      1 RES1   0.0000
    32 C17      4.3825   5.0742  12.8143   C.ar      1 RES1   0.0000
    33 C18      4.3515   2.6494  12.8366   C.ar      1 RES1   0.0000
    34 H12      4.6121   1.8391  12.4615   H         1 RES1   0.0000
    35 N3A      3.1860   6.2983  14.4325   N.ar      1 RES1   0.0000
    36 C13A     2.4181   6.3240  15.5236   C.ar      1 RES1   0.0000
    37 H9A      2.1537   7.1469  15.8672   H         1 RES1   0.0000
    38 C14A     1.9987   5.1599  16.1660   C.ar      1 RES1   0.0000
    39 H10A     1.4729   5.2235  16.9306   H         1 RES1   0.0000
    40 C15A     2.3442   3.9404  15.6945   C.ar      1 RES1   0.0000
    41 H11A     2.0546   3.1668  16.1224   H         1 RES1   0.0000
    42 C16A     3.1513   3.8645  14.5428   C.ar      1 RES1   0.0000
    43 C17A     3.5447   5.0742  13.9647   C.ar      1 RES1   0.0000
    44 C18A     3.5757   2.6494  13.9424   C.ar      1 RES1   0.0000
    45 H12A     3.3150   1.8391  14.3176   H         1 RES1   0.0000
    46 N1A      5.5603   7.8628  14.5423   N.ar      1 RES1   0.0000
    47 N2A      4.9687   9.1324  12.3484   N.ar      1 RES1   0.0000
    48 C1A      5.7999   7.2809  15.7195   C.ar      1 RES1   0.0000
    49 H1A      5.1179   6.7927  16.1218   H         1 RES1   0.0000
    50 C2A      7.0323   7.3731  16.3732   C.ar      1 RES1   0.0000
    51 H2A      7.1517   6.9564  17.1960   H         1 RES1   0.0000
    52 C3A      8.0573   8.0696  15.8128   C.ar      1 RES1   0.0000
    53 H3A      8.8852   8.1156  16.2339   H         1 RES1   0.0000
    54 C4A      7.8400   8.7228  14.5796   C.ar      1 RES1   0.0000
    55 C5A      6.5697   8.6050  14.0004   C.ar      1 RES1   0.0000
    56 C6A      6.2533   9.2858  12.8011   C.ar      1 RES1   0.0000
    57 C7A      7.2105  10.0735  12.1545   C.ar      1 RES1   0.0000
    58 C8A      8.5227  10.1440  12.7425   C.ar      1 RES1   0.0000
    59 H4A      9.1831  10.6419  12.3175   H         1 RES1   0.0000
    60 C9A      8.8173   9.5115  13.8867   C.ar      1 RES1   0.0000
    61 H5A      9.6746   9.5850  14.2392   H         1 RES1   0.0000
    62 C10A     6.8104  10.7364  10.9805   C.ar      1 RES1   0.0000
    63 H6A      7.4141  11.2629  10.5084   H         1 RES1   0.0000
    64 C11A     5.5316  10.5964  10.5442   C.ar      1 RES1   0.0000
    65 H7A      5.2568  11.0389   9.7734   H         1 RES1   0.0000
    66 C12A     4.6278   9.7979  11.2417   C.ar      1 RES1   0.0000
    67 H8A      3.7564   9.7250  10.9252   H         1 RES1   0.0000
    68 S1       4.8576   8.0110   7.8472   S.o2      2 RES2   0.0000
    69 O1       7.4153  10.1993   2.0324   O.3       2 RES2   0.0000
    70 H13      7.0397   9.6856   2.5497   H         2 RES2   0.0000
    71 O2       3.8421   7.2494   8.5243   O.2       2 RES2   0.0000
    72 O3       6.1157   8.0610   8.5580   O.3       2 RES2  -1.0000
    73 O4       4.4044   9.3038   7.4140   O.2       2 RES2   0.0000
    74 N4       6.8004   7.9015   3.1176   N.2       2 RES2   0.0000
    75 C19      8.0579   9.5017   1.1065   C.ar      2 RES2   0.0000
    76 C20      8.6925  10.1961   0.0850   C.ar      2 RES2   0.0000
    77 H14      8.6481  11.1245   0.0478   H         2 RES2   0.0000
    78 C21      9.3780   9.5028  -0.8580   C.ar      2 RES2   0.0000
    79 H15      9.8051   9.9666  -1.5415   H         2 RES2   0.0000
    80 C22      9.4580   8.1261  -0.8284   C.ar      2 RES2   0.0000
    81 H16      9.9283   7.6679  -1.4871   H         2 RES2   0.0000
    82 C23      8.8412   7.4469   0.1723   C.ar      2 RES2   0.0000
    83 H17      8.8961   6.5185   0.1904   H         2 RES2   0.0000
    84 C24      8.1399   8.0935   1.1576   C.ar      2 RES2   0.0000
    85 C25      7.4802   7.3395   2.2080   C.2       2 RES2   0.0000
    86 H18      7.5592   6.4131   2.2138   H         2 RES2   0.0000
    87 C26      6.1550   7.1117   4.1402   C.ar      2 RES2   0.0000
    88 C27      5.8134   7.7778   5.2956   C.ar      2 RES2   0.0000
    89 H19      5.9899   8.6881   5.3675   H         2 RES2   0.0000
    90 C28      5.2110   7.1149   6.3541   C.ar      2 RES2   0.0000
    91 C29      4.9349   5.7761   6.2531   C.ar      2 RES2   0.0000
    92 H20      4.5529   5.3185   6.9667   H         2 RES2   0.0000
    93 C30      5.2347   5.1132   5.0666   C.ar      2 RES2   0.0000
    94 H21      5.0267   4.2105   4.9804   H         2 RES2   0.0000
    95 C31      5.8332   5.7750   4.0222   C.ar      2 RES2   0.0000
    96 H22      6.0223   5.3201   3.2332   H         2 RES2   0.0000
@<TRIPOS>BOND
     1     1     2    1
     2     2     5   ar
     3     3     1    1
     4     4     1    1
     5     5     6    1
     6     7     5   ar
     7     8     7    1
     8     9     7   ar
     9    10     9    1
    10    11     9   ar
    11    12     2   ar
    12    13     3   ar
    13    14    13   ar
    14    15    14   ar
    15    16    15    1
    16    17    11   ar
    17    18    17    1
    18    19    14   ar
    19    20    19    1
    20    21    19   ar
    21    22    21    1
    22    23     3   ar
    23    24    23    1
    24    25     4   ar
    25    26    25    1
    26    27    25   ar
    27    28    27    1
    28    29    27   ar
    29    30    29    1
    30    31    29   ar
    31    32     4   ar
    32    33    31   ar
    33    34    33    1
    34    35     1    1
    35    36    35   ar
    36    37    36    1
    37    38    36   ar
    38    39    38    1
    39    40    38   ar
    40    41    40    1
    41    42    40   ar
    42    43    32   ar
    43    44    33   ar
    44    45    44    1
    45    46     1    1
    46    47     1    1
    47    48    46   ar
    48    49    48    1
    49    50    48   ar
    50    51    50    1
    51    52    50   ar
    52    53    52    1
    53    54    52   ar
    54    55    46   ar
    55    56    47   ar
    56    57    56   ar
    57    58    57   ar
    58    59    58    1
    59    60    54   ar
    60    61    60    1
    61    62    57   ar
    62    63    62    1
    63    64    62   ar
    64    65    64    1
    65    66    47   ar
    66    67    66    1
    67    11    12   ar
    68    12    13   ar
    69    15    17   ar
    70    21    23   ar
    71    31    32   ar
    72    35    43   ar
    73    42    43   ar
    74    42    44   ar
    75    54    55   ar
    76    55    56   ar
    77    58    60   ar
    78    64    66   ar
    79    68    71    2
    80    69    70    1
    81    72    68    1
    82    73    68    2
    83    74    85    2
    84    75    69    1
    85    76    75   ar
    86    77    76    1
    87    78    76   ar
    88    79    78    1
    89    80    78   ar
    90    81    80    1
    91    82    80   ar
    92    83    82    1
    93    84    75   ar
    94    85    84    1
    95    86    85    1
    96    87    74    1
    97    88    87   ar
    98    89    88    1
    99    90    68    1
   100    91    90   ar
   101    92    91    1
   102    93    91   ar
   103    94    93    1
   104    95    87   ar
   105    96    95    1
   106    82    84   ar
   107    88    90   ar
   108    93    95   ar
@<TRIPOS>SUBSTRUCTURE
     1 RES1        1 GROUP             0 ****  ****    0  
     2 RES2       68 GROUP             0 ****  ****    0  
@<TRIPOS>CRYSIN
   26.9510   10.8492   21.8990   90.0000  125.3900   90.0000    15     1
