@<TRIPOS>MOLECULE
VELGIC
   109   114     3     0     0
SMALL
USER_CHARGES
****
Generated from the CSD

@<TRIPOS>ATOM
     1 Fe1      0.6325   2.1255   4.3324   Fe        1 RES1   2.0000
     2 N1       2.3191   3.1788   4.3731   N.ar      1 RES1   0.0000
     3 N2       0.1350   3.4997   2.9419   N.ar      1 RES1   0.0000
     4 C1       3.4354   2.9377   5.0850   C.ar      1 RES1   0.0000
     5 C2       4.5743   3.7219   4.9093   C.ar      1 RES1   0.0000
     6 C3       4.5813   4.7573   4.0291   C.ar      1 RES1   0.0000
     7 C4       3.4098   5.0599   3.2951   C.ar      1 RES1   0.0000
     8 C5       2.3197   4.2226   3.4837   C.ar      1 RES1   0.0000
     9 C6       1.1208   4.4037   2.7440   C.ar      1 RES1   0.0000
    10 C7       1.0109   5.4722   1.8232   C.ar      1 RES1   0.0000
    11 C8      -0.2079   5.5879   1.1057   C.ar      1 RES1   0.0000
    12 C9      -1.2026   4.6806   1.3313   C.ar      1 RES1   0.0000
    13 C10     -1.0141   3.6478   2.2540   C.ar      1 RES1   0.0000
    14 C11      3.2841   6.1379   2.3483   C.ar      1 RES1   0.0000
    15 C12      2.1195   6.3536   1.6827   C.ar      1 RES1   0.0000
    16 N3      -0.9988   1.0338   4.0180   N.ar      1 RES1   0.0000
    17 N4       1.3683   0.9506   2.8642   N.ar      1 RES1   0.0000
    18 C13     -2.1618   1.0761   4.6671   C.ar      1 RES1   0.0000
    19 C14     -3.2270   0.2565   4.3065   C.ar      1 RES1   0.0000
    20 C15     -3.0975  -0.6301   3.2673   C.ar      1 RES1   0.0000
    21 C16     -1.8435  -0.7451   2.6072   C.ar      1 RES1   0.0000
    22 C17     -0.8483   0.1165   3.0195   C.ar      1 RES1   0.0000
    23 C18      0.4392   0.0704   2.4001   C.ar      1 RES1   0.0000
    24 C19      0.6940  -0.8620   1.3757   C.ar      1 RES1   0.0000
    25 C20      1.9805  -0.8550   0.8284   C.ar      1 RES1   0.0000
    26 C21      2.8965   0.0364   1.2703   C.ar      1 RES1   0.0000
    27 C22      2.5653   0.9281   2.3039   C.ar      1 RES1   0.0000
    28 C23     -1.5795  -1.6941   1.5699   C.ar      1 RES1   0.0000
    29 C24     -0.3528  -1.7445   0.9948   C.ar      1 RES1   0.0000
    30 C25     -0.1254   3.2314   5.6156   C.1       1 RES1   0.0000
    31 N5      -0.5514   4.0049   6.3923   N.1       1 RES1   0.0000
    32 C26     -0.9873   5.0392   7.3205   C.3       1 RES1   0.0000
    33 C27     -2.5191   4.9524   7.4851   C.3       1 RES1   0.0000
    34 C28     -0.2994   4.7824   8.6629   C.3       1 RES1   0.0000
    35 C29     -0.5893   6.3842   6.7510   C.3       1 RES1   0.0000
    36 C30     -1.1255   6.7656   5.3938   C.2       1 RES1   0.0000
    37 O1      -1.7857   5.9891   4.7040   O.2       1 RES1   0.0000
    38 C31     -0.7369   8.1442   4.9814   C.2       1 RES1   0.0000
    39 C32     -1.1662   8.8343   3.9515   C.2       1 RES1   0.0000
    40 C33     -0.7321  10.2590   3.7407   C.3       1 RES1   0.0000
    41 C34     -2.1441   8.3650   2.9178   C.3       1 RES1   0.0000
    42 C35      1.1479   0.9345   5.6637   C.1       1 RES1   0.0000
    43 N6       1.3836   0.1951   6.5494   N.1       1 RES1   0.0000
    44 C36      1.5074  -0.7120   7.6700   C.3       1 RES1   0.0000
    45 C37      1.7854   0.1296   8.9144   C.3       1 RES1   0.0000
    46 C38      2.6414  -1.6635   7.4129   C.3       1 RES1   0.0000
    47 C39      0.1748  -1.4399   7.8179   C.3       1 RES1   0.0000
    48 C40     -0.2479  -2.3186   6.6752   C.2       1 RES1   0.0000
    49 O2      -0.0058  -2.0299   5.5158   O.2       1 RES1   0.0000
    50 C41     -0.9113  -3.5845   7.0376   C.2       1 RES1   0.0000
    51 C42     -1.7092  -4.3053   6.1833   C.2       1 RES1   0.0000
    52 C43     -2.3692  -5.5280   6.7251   C.3       1 RES1   0.0000
    53 C44     -2.2847  -3.8213   5.0054   C.3       1 RES1   0.0000
    54 H1       3.4483   2.2184   5.7192   H         1 RES1   0.0000
    55 H2       5.3645   3.5290   5.4196   H         1 RES1   0.0000
    56 H3       5.3767   5.2820   3.9071   H         1 RES1   0.0000
    57 H4      -0.3296   6.2947   0.4697   H         1 RES1   0.0000
    58 H5      -2.0336   4.7523   0.8561   H         1 RES1   0.0000
    59 H6      -1.7265   3.0220   2.4019   H         1 RES1   0.0000
    60 H7       4.0347   6.7122   2.1875   H         1 RES1   0.0000
    61 H8       2.0411   7.1166   1.1039   H         1 RES1   0.0000
    62 H9      -2.2673   1.6839   5.4030   H         1 RES1   0.0000
    63 H10     -4.0588   0.3162   4.7836   H         1 RES1   0.0000
    64 H11     -3.8437  -1.1669   2.9918   H         1 RES1   0.0000
    65 H12      2.2113  -1.4787   0.1368   H         1 RES1   0.0000
    66 H13      3.7742   0.0585   0.8820   H         1 RES1   0.0000
    67 H14      3.2315   1.5452   2.6146   H         1 RES1   0.0000
    68 H15     -2.2697  -2.2936   1.2796   H         1 RES1   0.0000
    69 H16     -0.1856  -2.3969   0.3106   H         1 RES1   0.0000
    70 H17     -2.8145   5.6309   8.0953   H         1 RES1   0.0000
    71 H18     -2.7540   4.0875   7.8271   H         1 RES1   0.0000
    72 H19     -2.9408   5.0840   6.6326   H         1 RES1   0.0000
    73 H20     -0.5700   5.4506   9.2972   H         1 RES1   0.0000
    74 H21      0.6518   4.8189   8.5464   H         1 RES1   0.0000
    75 H22     -0.5498   3.9150   8.9865   H         1 RES1   0.0000
    76 H23      0.3686   6.3951   6.6937   H         1 RES1   0.0000
    77 H24     -0.8813   7.0565   7.3723   H         1 RES1   0.0000
    78 H25     -0.0889   8.5805   5.5398   H         1 RES1   0.0000
    79 H26     -1.1400  10.6035   2.9437   H         1 RES1   0.0000
    80 H27      0.2240  10.2913   3.6501   H         1 RES1   0.0000
    81 H28     -1.0007  10.7895   4.4933   H         1 RES1   0.0000
    82 H29     -2.3857   7.4530   3.0991   H         1 RES1   0.0000
    83 H30     -1.7456   8.4234   2.0451   H         1 RES1   0.0000
    84 H31     -2.9292   8.9168   2.9474   H         1 RES1   0.0000
    85 H32      1.8724  -0.4442   9.6781   H         1 RES1   0.0000
    86 H33      1.0583   0.7408   9.0531   H         1 RES1   0.0000
    87 H34      2.5991   0.6228   8.7887   H         1 RES1   0.0000
    88 H35      2.7258  -2.2687   8.1544   H         1 RES1   0.0000
    89 H36      3.4564  -1.1677   7.3112   H         1 RES1   0.0000
    90 H37      2.4669  -2.1631   6.6123   H         1 RES1   0.0000
    91 H38     -0.5066  -0.7748   7.9399   H         1 RES1   0.0000
    92 H39      0.2305  -1.9887   8.6037   H         1 RES1   0.0000
    93 H40     -0.7857  -3.9220   7.9288   H         1 RES1   0.0000
    94 H41     -1.9588  -5.8691   7.5239   H         1 RES1   0.0000
    95 H42     -2.4205  -6.2264   6.0687   H         1 RES1   0.0000
    96 H43     -3.2543  -5.2140   6.9303   H         1 RES1   0.0000
    97 H44     -1.7574  -3.0972   4.6634   H         1 RES1   0.0000
    98 H45     -3.1686  -3.5069   5.2088   H         1 RES1   0.0000
    99 H46     -2.3362  -4.5180   4.3472   H         1 RES1   0.0000
   100 B1       5.9771   0.7983   8.1359   B         2 RES2  -1.0000
   101 F1       5.1682   1.4899   7.2502   F         2 RES2   0.0000
   102 F2       6.1449  -0.4860   7.7550   F         2 RES2   0.0000
   103 F3       7.1950   1.4348   8.2043   F         2 RES2   0.0000
   104 F4       5.3822   0.8080   9.3859   F         2 RES2   0.0000
   105 B2       4.6353   3.2121   0.3310   B         3 RES3  -1.0000
   106 F5       3.3031   3.4423   0.6324   F         3 RES3   0.0000
   107 F6       5.2711   4.4071   0.1553   F         3 RES3   0.0000
   108 F7       5.2703   2.5255   1.3628   F         3 RES3   0.0000
   109 F8       4.7057   2.4372  -0.8080   F         3 RES3   0.0000
@<TRIPOS>BOND
     1     1     2    1
     2     2     4   ar
     3     3     1    1
     4     4     5   ar
     5     5     6   ar
     6     6     7   ar
     7     7     8   ar
     8     8     2   ar
     9     9     3   ar
    10    10     9   ar
    11    11    10   ar
    12    12    11   ar
    13    13     3   ar
    14    14     7   ar
    15    15    10   ar
    16    16     1    1
    17    17     1    1
    18    18    16   ar
    19    19    18   ar
    20    20    19   ar
    21    21    20   ar
    22    22    16   ar
    23    23    17   ar
    24    24    23   ar
    25    25    24   ar
    26    26    25   ar
    27    27    17   ar
    28    28    21   ar
    29    29    24   ar
    30    30     1    1
    31    31    30    3
    32    32    31    1
    33    33    32    1
    34    34    32    1
    35    35    32    1
    36    36    35    1
    37    37    36    2
    38    38    36    1
    39    39    38    2
    40    40    39    1
    41    41    39    1
    42    42     1    1
    43    43    42    3
    44    44    43    1
    45    45    44    1
    46    46    44    1
    47    47    44    1
    48    48    47    1
    49    49    48    2
    50    50    48    1
    51    51    50    2
    52    52    51    1
    53    53    51    1
    54    54     4    1
    55    55     5    1
    56    56     6    1
    57    57    11    1
    58    58    12    1
    59    59    13    1
    60    60    14    1
    61    61    15    1
    62    62    18    1
    63    63    19    1
    64    64    20    1
    65    65    25    1
    66    66    26    1
    67    67    27    1
    68    68    28    1
    69    69    29    1
    70    70    33    1
    71    71    33    1
    72    72    33    1
    73    73    34    1
    74    74    34    1
    75    75    34    1
    76    76    35    1
    77    77    35    1
    78    78    38    1
    79    79    40    1
    80    80    40    1
    81    81    40    1
    82    82    41    1
    83    83    41    1
    84    84    41    1
    85    85    45    1
    86    86    45    1
    87    87    45    1
    88    88    46    1
    89    89    46    1
    90    90    46    1
    91    91    47    1
    92    92    47    1
    93    93    50    1
    94    94    52    1
    95    95    52    1
    96    96    52    1
    97    97    53    1
    98    98    53    1
    99    99    53    1
   100     8     9   ar
   101    12    13   ar
   102    14    15   ar
   103    21    22   ar
   104    22    23   ar
   105    26    27   ar
   106    28    29   ar
   107   100   101    1
   108   102   100    1
   109   103   100    1
   110   104   100    1
   111   105   106    1
   112   107   105    1
   113   108   105    1
   114   109   105    1
@<TRIPOS>SUBSTRUCTURE
     1 RES1        1 GROUP             0 ****  ****    0  
     2 RES2      100 GROUP             0 ****  ****    0  
     3 RES3      105 GROUP             0 ****  ****    0  
@<TRIPOS>CRYSIN
    9.4090   13.4600   19.0500   99.4700   97.0200  106.3000     2     1
