@<TRIPOS>MOLECULE
VENDAV
   131   146     1     0     0
SMALL
NO_CHARGES
****
Generated from the CSD

@<TRIPOS>ATOM
     1 Fe1     -6.0994   2.8124  15.3442   Fe        1 RES1   0.0000
     2 N1      -4.4786   1.3490  14.9563   N.2       1 RES1   0.0000
     3 N2      -3.7559   1.7179  13.8535   N.pl3     1 RES1   0.0000
     4 N3      -6.7999   2.6417  13.1915   N.2       1 RES1   0.0000
     5 N4      -5.7117   2.4209  12.3854   N.pl3     1 RES1   0.0000
     6 N5      -4.7229   4.4462  14.6954   N.2       1 RES1   0.0000
     7 N6      -4.2387   4.1685  13.4421   N.pl3     1 RES1   0.0000
     8 C1      -3.7639   0.3781  15.5508   C.2       1 RES1   0.0000
     9 C2      -2.5923   0.1604  14.8446   C.2       1 RES1   0.0000
    10 H1      -1.9206  -0.4480  15.0578   H         1 RES1   0.0000
    11 C3      -2.6124   1.0024  13.7807   C.2       1 RES1   0.0000
    12 C4      -1.5843   1.1890  12.7130   C.3       1 RES1   0.0000
    13 H2      -1.9902   1.0660  11.8518   H         1 RES1   0.0000
    14 H3      -0.8803   0.5461  12.8298   H         1 RES1   0.0000
    15 H4      -1.2212   2.0753  12.7704   H         1 RES1   0.0000
    16 C5      -4.1954  -0.3803  16.7540   C.ar      1 RES1   0.0000
    17 C6      -3.2625  -0.9775  17.5681   C.ar      1 RES1   0.0000
    18 H5      -2.3585  -0.8945  17.3635   H         1 RES1   0.0000
    19 C7      -3.6378  -1.6950  18.6737   C.ar      1 RES1   0.0000
    20 H6      -2.9850  -2.0808  19.2130   H         1 RES1   0.0000
    21 C8      -4.9542  -1.8527  18.9936   C.ar      1 RES1   0.0000
    22 H7      -5.2046  -2.3296  19.7531   H         1 RES1   0.0000
    23 C9      -5.8961  -1.2996  18.1814   C.ar      1 RES1   0.0000
    24 H8      -6.7967  -1.4185  18.3721   H         1 RES1   0.0000
    25 C10     -5.5223  -0.5613  17.0742   C.ar      1 RES1   0.0000
    26 H9      -6.1777  -0.1797  16.5369   H         1 RES1   0.0000
    27 C11     -7.8858   2.4307  12.4055   C.2       1 RES1   0.0000
    28 C12     -7.4660   2.0670  11.1292   C.2       1 RES1   0.0000
    29 H10     -8.0107   1.8637  10.4034   H         1 RES1   0.0000
    30 C13     -6.1114   2.0635  11.1456   C.2       1 RES1   0.0000
    31 C14     -5.1593   1.7103  10.0476   C.3       1 RES1   0.0000
    32 H11     -4.5430   2.4333   9.9144   H         1 RES1   0.0000
    33 H12     -5.6491   1.5526   9.2372   H         1 RES1   0.0000
    34 H13     -4.6726   0.9167  10.2867   H         1 RES1   0.0000
    35 C15     -9.2857   2.6027  12.8130   C.ar      1 RES1   0.0000
    36 C16    -10.2836   2.1444  11.9781   C.ar      1 RES1   0.0000
    37 H14    -10.0588   1.7006  11.1931   H         1 RES1   0.0000
    38 C17    -11.6182   2.3379  12.2978   C.ar      1 RES1   0.0000
    39 H15    -12.2769   2.0199  11.7250   H         1 RES1   0.0000
    40 C18    -11.9828   2.9905  13.4456   C.ar      1 RES1   0.0000
    41 H16    -12.8796   3.1343  13.6440   H         1 RES1   0.0000
    42 C19    -11.0125   3.4205  14.2828   C.ar      1 RES1   0.0000
    43 H17    -11.2470   3.8463  15.0762   H         1 RES1   0.0000
    44 C20     -9.6739   3.2366  13.9738   C.ar      1 RES1   0.0000
    45 H18     -9.0233   3.5477  14.5626   H         1 RES1   0.0000
    46 C21     -4.3822   5.7302  14.9463   C.2       1 RES1   0.0000
    47 C22     -3.6998   6.2465  13.8599   C.2       1 RES1   0.0000
    48 H19     -3.3554   7.1065  13.7811   H         1 RES1   0.0000
    49 C23     -3.6297   5.2538  12.9257   C.2       1 RES1   0.0000
    50 C24     -3.0754   5.2939  11.5345   C.3       1 RES1   0.0000
    51 H20     -2.4257   4.5943  11.4283   H         1 RES1   0.0000
    52 H21     -2.6592   6.1442  11.3813   H         1 RES1   0.0000
    53 H22     -3.7870   5.1681  10.9026   H         1 RES1   0.0000
    54 C25     -4.6820   6.4831  16.1775   C.ar      1 RES1   0.0000
    55 C26     -4.6964   7.8641  16.1220   C.ar      1 RES1   0.0000
    56 H23     -4.5176   8.2899  15.3155   H         1 RES1   0.0000
    57 C27     -4.9733   8.6232  17.2399   C.ar      1 RES1   0.0000
    58 H24     -4.9721   9.5509  17.1814   H         1 RES1   0.0000
    59 C28     -5.2439   8.0217  18.4204   C.ar      1 RES1   0.0000
    60 H25     -5.4441   8.5333  19.1700   H         1 RES1   0.0000
    61 C29     -5.2216   6.6613  18.5047   C.ar      1 RES1   0.0000
    62 H26     -5.3938   6.2520  19.3214   H         1 RES1   0.0000
    63 C30     -4.9461   5.8801  17.3958   C.ar      1 RES1   0.0000
    64 H27     -4.9387   4.9538  17.4678   H         1 RES1   0.0000
    65 B1      -4.2921   2.7527  12.8549   B         1 RES1   0.0000
    66 H28     -3.7075   2.7361  12.0687   H         1 RES1   0.0000
    67 N1A     -7.7201   1.3490  15.7321   N.2       1 RES1   0.0000
    68 N2A     -8.4429   1.7179  16.8348   N.pl3     1 RES1   0.0000
    69 N3A     -5.3989   2.6417  17.4969   N.2       1 RES1   0.0000
    70 N4A     -6.4870   2.4209  18.3029   N.pl3     1 RES1   0.0000
    71 N5A     -7.4758   4.4462  15.9929   N.2       1 RES1   0.0000
    72 N6A     -7.9600   4.1685  17.2462   N.pl3     1 RES1   0.0000
    73 C1A     -8.4348   0.3781  15.1375   C.2       1 RES1   0.0000
    74 C2A     -9.6064   0.1604  15.8438   C.2       1 RES1   0.0000
    75 H1A    -10.2782  -0.4480  15.6306   H         1 RES1   0.0000
    76 C3A     -9.5864   1.0024  16.9076   C.2       1 RES1   0.0000
    77 C4A    -10.6145   1.1890  17.9754   C.3       1 RES1   0.0000
    78 H2A    -10.2086   1.0660  18.8365   H         1 RES1   0.0000
    79 H3A    -11.3184   0.5461  17.8586   H         1 RES1   0.0000
    80 H4A    -10.9775   2.0753  17.9179   H         1 RES1   0.0000
    81 C5A     -8.0033  -0.3803  13.9344   C.ar      1 RES1   0.0000
    82 C6A     -8.9362  -0.9775  13.1203   C.ar      1 RES1   0.0000
    83 H5A     -9.8403  -0.8945  13.3249   H         1 RES1   0.0000
    84 C7A     -8.5610  -1.6950  12.0147   C.ar      1 RES1   0.0000
    85 H6A     -9.2137  -2.0808  11.4754   H         1 RES1   0.0000
    86 C8A     -7.2445  -1.8527  11.6947   C.ar      1 RES1   0.0000
    87 H7A     -6.9942  -2.3296  10.9353   H         1 RES1   0.0000
    88 C9A     -6.3026  -1.2996  12.5069   C.ar      1 RES1   0.0000
    89 H8A     -5.4020  -1.4185  12.3163   H         1 RES1   0.0000
    90 C10A    -6.6765  -0.5613  13.6142   C.ar      1 RES1   0.0000
    91 H9A     -6.0211  -0.1797  14.1514   H         1 RES1   0.0000
    92 C11A    -4.3129   2.4307  18.2829   C.2       1 RES1   0.0000
    93 C12A    -4.7328   2.0670  19.5591   C.2       1 RES1   0.0000
    94 H10A    -4.1881   1.8637  20.2850   H         1 RES1   0.0000
    95 C13A    -6.0873   2.0635  19.5428   C.2       1 RES1   0.0000
    96 C14A    -7.0394   1.7103  20.6408   C.3       1 RES1   0.0000
    97 H11A    -7.6557   2.4333  20.7740   H         1 RES1   0.0000
    98 H12A    -6.5497   1.5526  21.4512   H         1 RES1   0.0000
    99 H13A    -7.5261   0.9167  20.4016   H         1 RES1   0.0000
   100 C15A    -2.9130   2.6027  17.8754   C.ar      1 RES1   0.0000
   101 C16A    -1.9151   2.1444  18.7103   C.ar      1 RES1   0.0000
   102 H14A    -2.1399   1.7006  19.4953   H         1 RES1   0.0000
   103 C17A    -0.5805   2.3379  18.3905   C.ar      1 RES1   0.0000
   104 H15A     0.0782   2.0199  18.9634   H         1 RES1   0.0000
   105 C18A    -0.2160   2.9905  17.2428   C.ar      1 RES1   0.0000
   106 H16A     0.6809   3.1343  17.0443   H         1 RES1   0.0000
   107 C19A    -1.1862   3.4205  16.4056   C.ar      1 RES1   0.0000
   108 H17A    -0.9517   3.8463  15.6122   H         1 RES1   0.0000
   109 C20A    -2.5248   3.2366  16.7145   C.ar      1 RES1   0.0000
   110 H18A    -3.1754   3.5477  16.1257   H         1 RES1   0.0000
   111 C21A    -7.8165   5.7302  15.7421   C.2       1 RES1   0.0000
   112 C22A    -8.4989   6.2465  16.8285   C.2       1 RES1   0.0000
   113 H19A    -8.8434   7.1065  16.9072   H         1 RES1   0.0000
   114 C23A    -8.5690   5.2538  17.7626   C.2       1 RES1   0.0000
   115 C24A    -9.1233   5.2939  19.1538   C.3       1 RES1   0.0000
   116 H20A    -9.7731   4.5943  19.2600   H         1 RES1   0.0000
   117 H21A    -9.5396   6.1442  19.3071   H         1 RES1   0.0000
   118 H22A    -8.4117   5.1681  19.7858   H         1 RES1   0.0000
   119 C25A    -7.5167   6.4831  14.5109   C.ar      1 RES1   0.0000
   120 C26A    -7.5023   7.8641  14.5663   C.ar      1 RES1   0.0000
   121 H23A    -7.6811   8.2899  15.3728   H         1 RES1   0.0000
   122 C27A    -7.2255   8.6232  13.4485   C.ar      1 RES1   0.0000
   123 H24A    -7.2266   9.5509  13.5070   H         1 RES1   0.0000
   124 C28A    -6.9549   8.0217  12.2680   C.ar      1 RES1   0.0000
   125 H25A    -6.7547   8.5333  11.5184   H         1 RES1   0.0000
   126 C29A    -6.9771   6.6613  12.1837   C.ar      1 RES1   0.0000
   127 H26A    -6.8049   6.2520  11.3670   H         1 RES1   0.0000
   128 C30A    -7.2526   5.8801  13.2926   C.ar      1 RES1   0.0000
   129 H27A    -7.2601   4.9538  13.2205   H         1 RES1   0.0000
   130 B1A     -7.9066   2.7527  17.8334   B         1 RES1   0.0000
   131 H28A    -8.4913   2.7361  18.6197   H         1 RES1   0.0000
@<TRIPOS>BOND
     1     1     2    1
     2     2     3    1
     3     3    11    1
     4     4     1    1
     5     5     4    1
     6     6     1    1
     7     7     6    1
     8     8     2    2
     9     9     8    1
    10    10     9    1
    11    11     9    2
    12    12    11    1
    13    13    12    1
    14    14    12    1
    15    15    12    1
    16    16     8    1
    17    17    16   ar
    18    18    17    1
    19    19    17   ar
    20    20    19    1
    21    21    19   ar
    22    22    21    1
    23    23    21   ar
    24    24    23    1
    25    25    16   ar
    26    26    25    1
    27    27     4    2
    28    28    27    1
    29    29    28    1
    30    30     5    1
    31    31    30    1
    32    32    31    1
    33    33    31    1
    34    34    31    1
    35    35    27    1
    36    36    35   ar
    37    37    36    1
    38    38    36   ar
    39    39    38    1
    40    40    38   ar
    41    41    40    1
    42    42    40   ar
    43    43    42    1
    44    44    35   ar
    45    45    44    1
    46    46     6    2
    47    47    46    1
    48    48    47    1
    49    49     7    1
    50    50    49    1
    51    51    50    1
    52    52    50    1
    53    53    50    1
    54    54    46    1
    55    55    54   ar
    56    56    55    1
    57    57    55   ar
    58    58    57    1
    59    59    57   ar
    60    60    59    1
    61    61    59   ar
    62    62    61    1
    63    63    54   ar
    64    64    63    1
    65    65     3    1
    66    66    65    1
    67    67     1    1
    68    68    67    1
    69    69     1    1
    70    70    69    1
    71    71     1    1
    72    72    71    1
    73    73    67    2
    74    74    73    1
    75    75    74    1
    76    76    68    1
    77    77    76    1
    78    78    77    1
    79    79    77    1
    80    80    77    1
    81    81    73    1
    82    82    81   ar
    83    83    82    1
    84    84    82   ar
    85    85    84    1
    86    86    84   ar
    87    87    86    1
    88    88    86   ar
    89    89    88    1
    90    90    81   ar
    91    91    90    1
    92    92    69    2
    93    93    92    1
    94    94    93    1
    95    95    70    1
    96    96    95    1
    97    97    96    1
    98    98    96    1
    99    99    96    1
   100   100    92    1
   101   101   100   ar
   102   102   101    1
   103   103   101   ar
   104   104   103    1
   105   105   103   ar
   106   106   105    1
   107   107   105   ar
   108   108   107    1
   109   109   100   ar
   110   110   109    1
   111   111    71    2
   112   112   111    1
   113   113   112    1
   114   114    72    1
   115   115   114    1
   116   116   115    1
   117   117   115    1
   118   118   115    1
   119   119   111    1
   120   120   119   ar
   121   121   120    1
   122   122   120   ar
   123   123   122    1
   124   124   122   ar
   125   125   124    1
   126   126   124   ar
   127   127   126    1
   128   128   119   ar
   129   129   128    1
   130   130    68    1
   131   131   130    1
   132     5    65    1
   133     7    65    1
   134    23    25   ar
   135    28    30    2
   136    42    44   ar
   137    47    49    2
   138    61    63   ar
   139    70   130    1
   140    72   130    1
   141    74    76    2
   142    88    90   ar
   143    93    95    2
   144   107   109   ar
   145   112   114    2
   146   126   128   ar
@<TRIPOS>SUBSTRUCTURE
     1 RES1        1 GROUP             0 ****  ****    0  
@<TRIPOS>CRYSIN
   18.4100   13.8258   22.0160   90.0000  111.6780   90.0000    15     1
