@<TRIPOS>MOLECULE
VESJOS
    83    87     2     0     0
SMALL
USER_CHARGES
****
Generated from the CSD

@<TRIPOS>ATOM
     1 I1       1.9297   7.7180   3.9197   I         1 RES1   0.0000
     2 I2       4.1232   7.2499   7.1367   I         1 RES1   0.0000
     3 Fe1      1.7873   6.3499   6.1640   Fe        1 RES1  -1.0000
     4 O1       1.3217   4.8914   8.5839   O.2       1 RES1   0.0000
     5 O2       3.3405   4.2467   4.8983   O.2       1 RES1   0.0000
     6 O3       0.5899   8.6209   7.3345   O.2       1 RES1   0.0000
     7 O4      -0.9866   6.1992   5.9280   O.2       1 RES1   0.0000
     8 C1       1.4852   5.4326   7.6610   C.1       1 RES1   0.0000
     9 C2       2.7417   5.0299   5.3392   C.1       1 RES1   0.0000
    10 C3       0.9846   7.8654   6.9074   C.1       1 RES1   0.0000
    11 C4       0.0000   5.7263   5.5375   C.2       1 RES1   0.0000
    12 C5      -0.0818   4.6623   4.5048   C.3       1 RES1   0.0000
    13 H1       0.0745   3.6759   4.7900   H         1 RES1   0.0000
    14 H2       0.6835   4.8581   3.7374   H         1 RES1   0.0000
    15 H3      -0.9400   4.5626   4.0273   H         1 RES1   0.0000
    16 P1       2.9993  11.6798  -0.8756   P.3       2 RES2   0.0000
    17 P2       5.4656  12.3060   0.6727   P.3       2 RES2   0.0000
    18 N1       4.2297  11.5265   0.1053   N.1       2 RES2   1.0000
    19 C6       3.1885  10.4939  -2.2242   C.ar      2 RES2   0.0000
    20 C7       2.3121  10.4866  -3.3057   C.ar      2 RES2   0.0000
    21 C8       2.4420   9.5371  -4.2912   C.ar      2 RES2   0.0000
    22 C9       3.4029   8.5692  -4.2164   C.ar      2 RES2   0.0000
    23 C10      4.2862   8.5895  -3.1837   C.ar      2 RES2   0.0000
    24 C11      4.1671   9.5352  -2.1662   C.ar      2 RES2   0.0000
    25 C12      2.7749  13.3146  -1.5499   C.ar      2 RES2   0.0000
    26 C13      3.6364  13.7265  -2.6101   C.ar      2 RES2   0.0000
    27 C14      3.5976  15.0972  -2.9366   C.ar      2 RES2   0.0000
    28 C15      2.7739  15.9746  -2.3340   C.ar      2 RES2   0.0000
    29 C16      1.9749  15.5756  -1.3287   C.ar      2 RES2   0.0000
    30 C17      1.9528  14.2179  -0.9351   C.ar      2 RES2   0.0000
    31 C18      1.4697  11.2901  -0.0122   C.ar      2 RES2   0.0000
    32 C19      0.2662  11.3326  -0.6499   C.ar      2 RES2   0.0000
    33 C20     -0.9068  11.0185   0.0107   C.ar      2 RES2   0.0000
    34 C21     -0.8855  10.6787   1.3150   C.ar      2 RES2   0.0000
    35 C22      0.3248  10.6177   1.9694   C.ar      2 RES2   0.0000
    36 C23      1.4978  10.9133   1.3211   C.ar      2 RES2   0.0000
    37 C24      5.1731  14.0553   0.8833   C.ar      2 RES2   0.0000
    38 C25      4.0734  14.4322   1.6140   C.ar      2 RES2   0.0000
    39 C26      3.7968  15.7936   1.7985   C.ar      2 RES2   0.0000
    40 C27      4.5919  16.7209   1.2967   C.ar      2 RES2   0.0000
    41 C28      5.6291  16.3588   0.5812   C.ar      2 RES2   0.0000
    42 C29      5.9188  15.0214   0.3570   C.ar      2 RES2   0.0000
    43 C30      5.8335  11.6503   2.3065   C.ar      2 RES2   0.0000
    44 C31      6.6009  12.3725   3.1974   C.ar      2 RES2   0.0000
    45 C32      6.9153  11.8128   4.4407   C.ar      2 RES2   0.0000
    46 C33      6.4442  10.6343   4.7870   C.ar      2 RES2   0.0000
    47 C34      5.6625   9.9102   3.9602   C.ar      2 RES2   0.0000
    48 C35      5.3814  10.4034   2.6772   C.ar      2 RES2   0.0000
    49 C36      6.9292  12.1102  -0.3768   C.ar      2 RES2   0.0000
    50 C37      6.8185  12.0567  -1.7223   C.ar      2 RES2   0.0000
    51 C38      7.9176  11.9514  -2.5125   C.ar      2 RES2   0.0000
    52 C39      9.1234  11.8941  -1.9862   C.ar      2 RES2   0.0000
    53 C40      9.2856  11.9440  -0.6880   C.ar      2 RES2   0.0000
    54 C41      8.1763  12.0622   0.1419   C.ar      2 RES2   0.0000
    55 H4       1.6482  11.1756  -3.3713   H         2 RES2   0.0000
    56 H5       1.8009   9.5500  -5.0036   H         2 RES2   0.0000
    57 H6       3.4526   7.9430  -4.8968   H         2 RES2   0.0000
    58 H7       4.9822   8.0353  -3.1730   H         2 RES2   0.0000
    59 H8       4.7530   9.5500  -1.3729   H         2 RES2   0.0000
    60 H10      4.0852  14.9069  -3.6917   H         2 RES2   0.0000
    61 H11      2.8457  16.8649  -2.5628   H         2 RES2   0.0000
    62 H12      1.3698  16.2369  -0.8695   H         2 RES2   0.0000
    63 H13      1.3180  13.8540  -0.2746   H         2 RES2   0.0000
    64 H14      0.2949  11.6743  -1.4797   H         2 RES2   0.0000
    65 H15     -1.7675  11.0463  -0.3661   H         2 RES2   0.0000
    66 H16     -1.7269  10.4367   1.7391   H         2 RES2   0.0000
    67 H17      0.4135  10.3813   2.9137   H         2 RES2   0.0000
    68 H18      2.2368  10.8800   1.7391   H         2 RES2   0.0000
    69 H19      3.5005  13.6878   1.9526   H         2 RES2   0.0000
    70 H20      3.1304  15.9044   2.2882   H         2 RES2   0.0000
    71 H21      4.4440  17.5299   1.4034   H         2 RES2   0.0000
    72 H22      6.1660  16.9758   0.2288   H         2 RES2   0.0000
    73 H23      6.6492  14.8515  -0.2136   H         2 RES2   0.0000
    74 H24      6.9683  13.1890   2.8984   H         2 RES2   0.0000
    75 H25      7.4624  12.2839   4.9578   H         2 RES2   0.0000
    76 H26      6.6032  10.3258   5.6595   H         2 RES2   0.0000
    77 H27      5.3196   9.1436   4.1951   H         2 RES2   0.0000
    78 H28      4.8935   9.8640   2.0441   H         2 RES2   0.0000
    79 H29      5.9177  12.1361  -2.0899   H         2 RES2   0.0000
    80 H30      7.7528  11.9329  -3.3713   H         2 RES2   0.0000
    81 H31      9.8855  11.8036  -2.5170   H         2 RES2   0.0000
    82 H32     10.0836  11.9144  -0.1373   H         2 RES2   0.0000
    83 H33      8.3684  12.2469   0.9763   H         2 RES2   0.0000
@<TRIPOS>BOND
     1     1     3    1
     2     2     3    1
     3     3     8    1
     4     4     8    3
     5     5     9    3
     6     6    10    3
     7     7    11    2
     8     9     3    1
     9    10     3    1
    10    11     3    1
    11    12    11    1
    12    13    12    1
    13    14    12    1
    14    15    12    1
    15    16    18    2
    16    17    18    2
    17    19    16    1
    18    20    19   ar
    19    21    20   ar
    20    22    21   ar
    21    23    22   ar
    22    24    19   ar
    23    25    16    1
    24    26    25   ar
    25    27    26   ar
    26    28    27   ar
    27    29    28   ar
    28    30    25   ar
    29    31    16    1
    30    32    31   ar
    31    33    32   ar
    32    34    33   ar
    33    35    34   ar
    34    36    31   ar
    35    37    17    1
    36    38    37   ar
    37    39    38   ar
    38    40    39   ar
    39    41    40   ar
    40    42    37   ar
    41    43    17    1
    42    44    43   ar
    43    45    44   ar
    44    46    45   ar
    45    47    46   ar
    46    48    43   ar
    47    49    17    1
    48    50    49   ar
    49    51    50   ar
    50    52    51   ar
    51    53    52   ar
    52    54    49   ar
    53    55    20    1
    54    56    21    1
    55    57    22    1
    56    58    23    1
    57    59    24    1
    58    60    27    1
    59    61    28    1
    60    62    29    1
    61    63    30    1
    62    64    32    1
    63    65    33    1
    64    66    34    1
    65    67    35    1
    66    68    36    1
    67    69    38    1
    68    70    39    1
    69    71    40    1
    70    72    41    1
    71    73    42    1
    72    74    44    1
    73    75    45    1
    74    76    46    1
    75    77    47    1
    76    78    48    1
    77    79    50    1
    78    80    51    1
    79    81    52    1
    80    82    53    1
    81    83    54    1
    82    23    24   ar
    83    29    30   ar
    84    35    36   ar
    85    41    42   ar
    86    47    48   ar
    87    53    54   ar
@<TRIPOS>SUBSTRUCTURE
     1 RES1        1 GROUP             0 ****  ****    0  
     2 RES2       16 GROUP             0 ****  ****    0  
@<TRIPOS>CRYSIN
   14.4660   18.4720   15.3490   90.0000   96.3500   90.0000    14     1
