@<TRIPOS>MOLECULE
VESNEO03
    81    89     3     0     0
SMALL
USER_CHARGES
****
Generated from the CSD

@<TRIPOS>ATOM
     1 Fe1      2.2313   0.3735   5.5707   Fe        1 RES1   2.0000
     2 N1       1.6088   0.2977   7.6442   N.3       1 RES1   0.0000
     3 N2       3.9628  -0.6316   6.4663   N.ar      1 RES1   0.0000
     4 N3       2.7733   2.2592   6.4135   N.ar      1 RES1   0.0000
     5 N4       1.2710  -1.5789   5.7230   N.ar      1 RES1   0.0000
     6 N5       2.8988   0.7940   3.6190   N.2       1 RES1   0.0000
     7 N6       0.4632   1.2776   4.6101   N.2       1 RES1   0.0000
     8 N7       2.7474   1.9127   1.6653   N.pl3     1 RES1   0.0000
     9 N8      -0.1210   2.6706   2.9163   N.pl3     1 RES1   0.0000
    10 C1       2.7851  -0.0180   8.5703   C.3       1 RES1   0.0000
    11 H1       3.1105   0.8246   8.9765   H         1 RES1   0.0000
    12 H2       2.4787  -0.6117   9.2973   H         1 RES1   0.0000
    13 C2       3.8606  -0.6496   7.8554   C.ar      1 RES1   0.0000
    14 C3       4.8946  -1.3173   8.5622   C.ar      1 RES1   0.0000
    15 H3       4.8542  -1.4210   9.5045   H         1 RES1   0.0000
    16 C4       6.0254  -1.8315   7.7823   C.ar      1 RES1   0.0000
    17 H4       6.7989  -2.1699   8.2210   H         1 RES1   0.0000
    18 C5       5.9640  -1.8135   6.5272   C.ar      1 RES1   0.0000
    19 H5       6.6441  -2.2565   6.0398   H         1 RES1   0.0000
    20 C6       4.9746  -1.1909   5.8083   C.ar      1 RES1   0.0000
    21 H6       5.0099  -1.1639   4.8619   H         1 RES1   0.0000
    22 C7       1.2369   1.6872   7.9285   C.3       1 RES1   0.0000
    23 H7       0.3720   1.8830   7.4817   H         1 RES1   0.0000
    24 H8       1.0947   1.7846   8.9034   H         1 RES1   0.0000
    25 C8       2.2141   2.6526   7.4980   C.ar      1 RES1   0.0000
    26 C9       2.4609   3.7894   8.2535   C.ar      1 RES1   0.0000
    27 H9       1.9688   3.9870   9.0415   H         1 RES1   0.0000
    28 C10      3.4389   4.5743   7.8026   C.ar      1 RES1   0.0000
    29 H10      3.6836   5.3520   8.2941   H         1 RES1   0.0000
    30 C11      3.7351   3.0495   5.9180   C.ar      1 RES1   0.0000
    31 H11      4.1690   2.8104   5.1056   H         1 RES1   0.0000
    32 C12      0.4429  -0.6677   7.9204   C.3       1 RES1   0.0000
    33 H12     -0.4346  -0.2490   7.7539   H         1 RES1   0.0000
    34 H13      0.4737  -1.0249   8.8465   H         1 RES1   0.0000
    35 C13      0.7811  -1.7954   6.8440   C.ar      1 RES1   0.0000
    36 C14      0.2476  -3.0405   7.2055   C.ar      1 RES1   0.0000
    37 H14     -0.1219  -3.1768   8.0707   H         1 RES1   0.0000
    38 C15      0.2711  -4.0691   6.2957   C.ar      1 RES1   0.0000
    39 H15     -0.1396  -4.9072   6.4785   H         1 RES1   0.0000
    40 C16      0.9233  -3.8164   5.0731   C.ar      1 RES1   0.0000
    41 H16      1.0099  -4.5012   4.4232   H         1 RES1   0.0000
    42 C17      1.4350  -2.5623   4.8294   C.ar      1 RES1   0.0000
    43 H17      1.9111  -2.3891   4.0211   H         1 RES1   0.0000
    44 C18      3.9930   0.6677   2.8757   C.2       1 RES1   0.0000
    45 H18      4.7602   0.1823   3.1682   H         1 RES1   0.0000
    46 C19      3.9391   1.2812   1.6572   C.2       1 RES1   0.0000
    47 H19      4.5886   1.2739   0.9626   H         1 RES1   0.0000
    48 C20      2.2232   1.6150   2.7620   C.2       1 RES1   0.0000
    49 C21      0.8941   1.8857   3.4078   C.2       1 RES1   0.0000
    50 C22     -1.1504   2.5353   3.8221   C.2       1 RES1   0.0000
    51 H20     -1.9944   2.9584   3.7571   H         1 RES1   0.0000
    52 C23     -0.7545   1.6781   4.8538   C.2       1 RES1   0.0000
    53 H21     -1.2771   1.4237   5.6052   H         1 RES1   0.0000
    54 C24      2.3716   2.8510   0.5646   C.3       1 RES1   0.0000
    55 H22      3.0433   2.8104  -0.1584   H         1 RES1   0.0000
    56 H23      2.3294   3.7758   0.9098   H         1 RES1   0.0000
    57 C25     -0.3494   3.5548   1.8887   C.3       1 RES1   0.0000
    58 H24      0.2819   4.3136   1.9578   H         1 RES1   0.0000
    59 H25     -1.2705   3.9130   1.9578   H         1 RES1   0.0000
    60 C26      0.9789   2.4270   0.0203   C.ar      1 RES1   0.0000
    61 C27      1.1572   1.6601  -1.2754   C.ar      1 RES1   0.0000
    62 H26      2.0100   1.4760  -1.6572   H         1 RES1   0.0000
    63 C28     -0.0576   1.2541  -1.8603   C.ar      1 RES1   0.0000
    64 H27     -0.0509   0.7290  -2.6483   H         1 RES1   0.0000
    65 C29     -1.2870   1.6330  -1.2876   C.ar      1 RES1   0.0000
    66 H28     -2.0798   1.3579  -1.7262   H         1 RES1   0.0000
    67 C30     -1.4186   2.4090  -0.0650   C.ar      1 RES1   0.0000
    68 H29     -2.2508   2.6174   0.3331   H         1 RES1   0.0000
    69 C31     -0.1580   2.8240   0.4752   C.ar      1 RES1   0.0000
    70 C32      4.1163   4.2856   6.6166   C.ar      1 RES1   0.0000
    71 H30      4.7955   4.8531   6.2795   H         1 RES1   0.0000
    72 Cl1      6.4780   1.9696   8.9318   Cl        2 RES2   0.0000
    73 O1       5.1539   2.0020   9.4639   O.3       2 RES2  -1.0000
    74 O2       7.2782   1.1422   9.7848   O.2       2 RES2   0.0000
    75 O3       7.0469   3.2823   8.8424   O.2       2 RES2   0.0000
    76 O4       6.4463   1.4373   7.6117   O.2       2 RES2   0.0000
    77 Cl2      4.6642   5.1481   2.6645   Cl        3 RES3   0.0000
    78 O5       5.5856   5.1490   3.7571   O.3       3 RES3  -1.0000
    79 O6       5.1848   4.3127   1.6206   O.2       3 RES3   0.0000
    80 O7       3.3327   4.6474   3.0788   O.2       3 RES3   0.0000
    81 O8       4.4562   6.4924   2.2583   O.2       3 RES3   0.0000
@<TRIPOS>BOND
     1     1     2    1
     2     2    10    1
     3     3     1    1
     4     4     1    1
     5     5     1    1
     6     6     1    1
     7     7     1    1
     8     8    46    1
     9     9    49    1
    10    10    11    1
    11    12    10    1
    12    13     3   ar
    13    14    13   ar
    14    15    14    1
    15    16    14   ar
    16    17    16    1
    17    18    16   ar
    18    19    18    1
    19    20     3   ar
    20    21    20    1
    21    22     2    1
    22    23    22    1
    23    24    22    1
    24    25     4   ar
    25    26    25   ar
    26    27    26    1
    27    28    26   ar
    28    29    28    1
    29    30     4   ar
    30    31    30    1
    31    32     2    1
    32    33    32    1
    33    34    32    1
    34    35     5   ar
    35    36    35   ar
    36    37    36    1
    37    38    36   ar
    38    39    38    1
    39    40    38   ar
    40    41    40    1
    41    42     5   ar
    42    43    42    1
    43    44     6    1
    44    45    44    1
    45    46    44    2
    46    47    46    1
    47    48     6    2
    48    49     7    2
    49    50     9    1
    50    51    50    1
    51    52     7    1
    52    53    52    1
    53    54     8    1
    54    55    54    1
    55    56    54    1
    56    57     9    1
    57    58    57    1
    58    59    57    1
    59    60    54    1
    60    61    60   ar
    61    62    61    1
    62    63    61   ar
    63    64    63    1
    64    65    63   ar
    65    66    65    1
    66    67    65   ar
    67    68    67    1
    68    69    57    1
    69    70    28   ar
    70    71    70    1
    71     8    48    1
    72    10    13    1
    73    18    20   ar
    74    22    25    1
    75    30    70   ar
    76    32    35    1
    77    40    42   ar
    78    48    49    1
    79    50    52    2
    80    60    69   ar
    81    67    69   ar
    82    72    73    1
    83    74    72    2
    84    75    72    2
    85    76    72    2
    86    77    78    1
    87    79    77    2
    88    80    77    2
    89    81    77    2
@<TRIPOS>SUBSTRUCTURE
     1 RES1        1 GROUP             0 ****  ****    0  
     2 RES2       72 GROUP             0 ****  ****    0  
     3 RES3       77 GROUP             0 ****  ****    0  
@<TRIPOS>CRYSIN
    8.8253    9.0223   40.6430   90.0000   92.0300   90.0000    14     1
