@<TRIPOS>MOLECULE
VESNEO
    81    89     3     0     0
SMALL
USER_CHARGES
****
Generated from the CSD

@<TRIPOS>ATOM
     1 Fe1      6.3954   5.3172   5.7723   Fe        1 RES1   2.0000
     2 N1       5.6481   5.3670   7.6333   N.3       1 RES1   0.0000
     3 N2       7.9299   4.4388   6.6482   N.ar      1 RES1   0.0000
     4 N3       6.9812   7.1384   6.3004   N.ar      1 RES1   0.0000
     5 N4       5.5672   3.5374   5.6781   N.ar      1 RES1   0.0000
     6 N5       7.1878   5.5487   3.8967   N.2       1 RES1   0.0000
     7 N6       4.8194   6.1449   4.7932   N.2       1 RES1   0.0000
     8 N7       7.1094   6.6604   1.9629   N.pl3     1 RES1   0.0000
     9 N8       4.0612   7.2978   3.0478   N.pl3     1 RES1   0.0000
    10 C1       6.7474   5.1236   8.6312   C.3       1 RES1   0.0000
    11 H1       7.0577   5.9900   8.9971   H         1 RES1   0.0000
    12 H2       6.3977   4.5811   9.3836   H         1 RES1   0.0000
    13 C2       7.8968   4.4102   7.9923   C.ar      1 RES1   0.0000
    14 C3       8.8768   3.8051   8.7556   C.ar      1 RES1   0.0000
    15 H3       8.8168   3.8042   9.7056   H         1 RES1   0.0000
    16 C4       9.9509   3.1955   8.1171   C.ar      1 RES1   0.0000
    17 H4      10.6618   2.8160   8.6187   H         1 RES1   0.0000
    18 C5       9.9629   3.1534   6.7400   C.ar      1 RES1   0.0000
    19 H5      10.6662   2.7130   6.2758   H         1 RES1   0.0000
    20 C6       8.9345   3.7639   6.0428   C.ar      1 RES1   0.0000
    21 H6       8.9332   3.7066   5.0964   H         1 RES1   0.0000
    22 C7       5.1751   6.7696   7.8442   C.3       1 RES1   0.0000
    23 H7       5.0124   6.9379   8.8079   H         1 RES1   0.0000
    24 H8       4.3339   6.9290   7.3466   H         1 RES1   0.0000
    25 C8       6.2670   7.6692   7.3297   C.ar      1 RES1   0.0000
    26 C9       6.5332   8.9045   7.8680   C.ar      1 RES1   0.0000
    27 H9       6.0136   9.2437   8.5865   H         1 RES1   0.0000
    28 C10      7.5857   9.6474   7.3338   C.ar      1 RES1   0.0000
    29 H10      7.7943  10.5058   7.6848   H         1 RES1   0.0000
    30 C11      8.3177   9.1211   6.2952   C.ar      1 RES1   0.0000
    31 H11      9.0361   9.6152   5.9176   H         1 RES1   0.0000
    32 C12      8.0015   7.8697   5.8024   C.ar      1 RES1   0.0000
    33 H12      8.5188   7.5126   5.0883   H         1 RES1   0.0000
    34 C13      4.5495   4.3520   7.7375   C.3       1 RES1   0.0000
    35 H13      3.6786   4.7843   7.5520   H         1 RES1   0.0000
    36 H14      4.5231   3.9832   8.6550   H         1 RES1   0.0000
    37 C14      4.7806   3.2394   6.7529   C.ar      1 RES1   0.0000
    38 C15      4.1708   2.0023   6.8753   C.ar      1 RES1   0.0000
    39 H15      3.6554   1.7974   7.6445   H         1 RES1   0.0000
    40 C16      4.3185   1.0714   5.8717   C.ar      1 RES1   0.0000
    41 H16      3.8657   0.2372   5.9176   H         1 RES1   0.0000
    42 C17      5.1364   1.3677   4.7880   C.ar      1 RES1   0.0000
    43 H17      5.2680   0.7331   4.0940   H         1 RES1   0.0000
    44 C18      5.7533   2.5949   4.7413   C.ar      1 RES1   0.0000
    45 H18      6.3356   2.7847   4.0135   H         1 RES1   0.0000
    46 C19      8.3639   5.3572   3.1858   C.2       1 RES1   0.0000
    47 H19      9.0993   4.8353   3.4861   H         1 RES1   0.0000
    48 C20      8.3176   6.0097   2.0156   C.2       1 RES1   0.0000
    49 H20      8.9945   6.0213   1.3486   H         1 RES1   0.0000
    50 C21      6.4633   6.3534   3.1061   C.2       1 RES1   0.0000
    51 C22      5.1237   6.6560   3.6041   C.2       1 RES1   0.0000
    52 C23      3.0100   7.1268   3.9257   C.2       1 RES1   0.0000
    53 H21      2.1232   7.4499   3.8122   H         1 RES1   0.0000
    54 C24      3.4715   6.4161   4.9732   C.2       1 RES1   0.0000
    55 H22      2.9538   6.1422   5.7203   H         1 RES1   0.0000
    56 C25      6.6927   7.5108   0.8313   C.3       1 RES1   0.0000
    57 H23      7.4407   7.5931   0.1892   H         1 RES1   0.0000
    58 H24      6.4736   8.4166   1.1634   H         1 RES1   0.0000
    59 C26      3.9618   8.0819   1.7950   C.3       1 RES1   0.0000
    60 H25      4.6358   8.8060   1.8075   H         1 RES1   0.0000
    61 H26      3.0660   8.4990   1.7390   H         1 RES1   0.0000
    62 C27      5.4798   6.9263   0.1220   C.ar      1 RES1   0.0000
    63 C28      5.6562   6.0921  -0.9669   C.ar      1 RES1   0.0000
    64 H27      6.5344   5.8951  -1.2721   H         1 RES1   0.0000
    65 C29      4.5661   5.5398  -1.6195   C.ar      1 RES1   0.0000
    66 H28      4.6947   4.9705  -2.3670   H         1 RES1   0.0000
    67 C30      3.2878   5.8235  -1.1722   C.ar      1 RES1   0.0000
    68 H29      2.5396   5.4359  -1.6102   H         1 RES1   0.0000
    69 C31      3.0904   6.6694  -0.0886   C.ar      1 RES1   0.0000
    70 H30      2.2086   6.8771   0.1973   H         1 RES1   0.0000
    71 C32      4.1844   7.2154   0.5797   C.ar      1 RES1   0.0000
    72 Cl1      0.0797   1.1723   2.5204   Cl        2 RES2   0.0000
    73 O1       0.8447   1.7052   3.5848   O.3       2 RES2  -1.0000
    74 O2      -1.2238   0.7698   2.9990   O.2       2 RES2   0.0000
    75 O3       0.7339   0.0564   1.9339   O.2       2 RES2   0.0000
    76 O4      -0.0534   2.1796   1.5007   O.2       2 RES2   0.0000
    77 Cl2      1.6660   7.0037   8.8868   Cl        3 RES3   0.0000
    78 O5       2.5031   6.2138   9.7531   O.3       3 RES3  -1.0000
    79 O6       0.3308   7.0373   9.4476   O.2       3 RES3   0.0000
    80 O7       1.6342   6.4206   7.5797   O.2       3 RES3   0.0000
    81 O8       2.1795   8.3468   8.8107   O.2       3 RES3   0.0000
@<TRIPOS>BOND
     1     1     2    1
     2     2    10    1
     3     3     1    1
     4     4     1    1
     5     5     1    1
     6     6     1    1
     7     7     1    1
     8     8    48    1
     9     9    51    1
    10    10    11    1
    11    12    10    1
    12    13     3   ar
    13    14    13   ar
    14    15    14    1
    15    16    14   ar
    16    17    16    1
    17    18    16   ar
    18    19    18    1
    19    20     3   ar
    20    21    20    1
    21    22     2    1
    22    23    22    1
    23    24    22    1
    24    25     4   ar
    25    26    25   ar
    26    27    26    1
    27    28    26   ar
    28    29    28    1
    29    30    28   ar
    30    31    30    1
    31    32     4   ar
    32    33    32    1
    33    34     2    1
    34    35    34    1
    35    36    34    1
    36    37     5   ar
    37    38    37   ar
    38    39    38    1
    39    40    38   ar
    40    41    40    1
    41    42    40   ar
    42    43    42    1
    43    44     5   ar
    44    45    44    1
    45    46     6    1
    46    47    46    1
    47    48    46    2
    48    49    48    1
    49    50     6    2
    50    51     7    2
    51    52     9    1
    52    53    52    1
    53    54     7    1
    54    55    54    1
    55    56     8    1
    56    57    56    1
    57    58    56    1
    58    59     9    1
    59    60    59    1
    60    61    59    1
    61    62    56    1
    62    63    62   ar
    63    64    63    1
    64    65    63   ar
    65    66    65    1
    66    67    65   ar
    67    68    67    1
    68    69    67   ar
    69    70    69    1
    70    71    59    1
    71     8    50    1
    72    10    13    1
    73    18    20   ar
    74    22    25    1
    75    30    32   ar
    76    34    37    1
    77    42    44   ar
    78    50    51    1
    79    52    54    2
    80    62    71   ar
    81    69    71   ar
    82    72    73    1
    83    74    72    2
    84    75    72    2
    85    76    72    2
    86    77    78    1
    87    79    77    2
    88    80    77    2
    89    81    77    2
@<TRIPOS>SUBSTRUCTURE
     1 RES1        1 GROUP             0 ****  ****    0  
     2 RES2       72 GROUP             0 ****  ****    0  
     3 RES3       77 GROUP             0 ****  ****    0  
@<TRIPOS>CRYSIN
    8.9670    8.9510   40.4380   90.0000   95.4440   90.0000    14     1
