@<TRIPOS>MOLECULE
VESNEO02
    81    89     3     0     0
SMALL
USER_CHARGES
****
Generated from the CSD

@<TRIPOS>ATOM
     1 Fe1      1.8997   0.8269   5.7591   Fe        1 RES1   2.0000
     2 N1       1.1795   0.8972   7.5843   N.3       1 RES1   0.0000
     3 N2       3.4554  -0.0461   6.6087   N.ar      1 RES1   0.0000
     4 N3       2.4634   2.6412   6.3076   N.ar      1 RES1   0.0000
     5 N4       1.0665  -0.9451   5.6933   N.ar      1 RES1   0.0000
     6 N5       2.6215   1.0301   3.9548   N.2       1 RES1   0.0000
     7 N6       0.3308   1.6421   4.7738   N.2       1 RES1   0.0000
     8 N7       2.6286   2.1691   1.9232   N.pl3     1 RES1   0.0000
     9 N8      -0.4295   2.7900   3.0474   N.pl3     1 RES1   0.0000
    10 C1       2.2436   0.6545   8.6282   C.3       1 RES1   0.0000
    11 H1       2.5526   1.5181   9.0016   H         1 RES1   0.0000
    12 H2       1.8726   0.1116   9.3670   H         1 RES1   0.0000
    13 C2       3.3810  -0.0593   7.9979   C.ar      1 RES1   0.0000
    14 C3       4.4400  -0.6554   8.7045   C.ar      1 RES1   0.0000
    15 H3       4.4366  -0.6085   9.6520   H         1 RES1   0.0000
    16 C4       5.4181  -1.2639   8.1223   C.ar      1 RES1   0.0000
    17 H4       6.1114  -1.6687   8.6282   H         1 RES1   0.0000
    18 C5       5.4287  -1.3100   6.7331   C.ar      1 RES1   0.0000
    19 H5       6.1323  -1.7528   6.2754   H         1 RES1   0.0000
    20 C6       4.4164  -0.7112   6.0385   C.ar      1 RES1   0.0000
    21 H6       4.4154  -0.7839   5.0910   H         1 RES1   0.0000
    22 C7       0.7717   2.2887   7.7529   C.3       1 RES1   0.0000
    23 H7      -0.0581   2.4552   7.2390   H         1 RES1   0.0000
    24 H8       0.5833   2.4658   8.7085   H         1 RES1   0.0000
    25 C8       1.8055   3.1744   7.2952   C.ar      1 RES1   0.0000
    26 C9       2.0800   4.4126   7.8212   C.ar      1 RES1   0.0000
    27 H9       1.5568   4.7509   8.5399   H         1 RES1   0.0000
    28 C10      3.0896   5.1477   7.3193   C.ar      1 RES1   0.0000
    29 H10      3.2995   6.0051   7.6726   H         1 RES1   0.0000
    30 C11      3.4748   3.3506   5.7856   C.ar      1 RES1   0.0000
    31 H11      3.9833   2.9981   5.0629   H         1 RES1   0.0000
    32 C12      0.1100  -0.1116   7.7088   C.3       1 RES1   0.0000
    33 H12      0.1070  -0.4650   8.6322   H         1 RES1   0.0000
    34 H13     -0.7640   0.3251   7.5482   H         1 RES1   0.0000
    35 C13      0.2625  -1.2223   6.7773   C.ar      1 RES1   0.0000
    36 C14     -0.3330  -2.4570   6.9178   C.ar      1 RES1   0.0000
    37 H14     -0.8393  -2.6731   7.6927   H         1 RES1   0.0000
    38 C15     -0.1636  -3.3932   5.8699   C.ar      1 RES1   0.0000
    39 H15     -0.6000  -4.2355   5.9181   H         1 RES1   0.0000
    40 C16      0.5868  -3.1159   4.8300   C.ar      1 RES1   0.0000
    41 H16      0.6754  -3.7616   4.1395   H         1 RES1   0.0000
    42 C17      1.2773  -1.8644   4.7056   C.ar      1 RES1   0.0000
    43 H17      1.8533  -1.6837   3.9708   H         1 RES1   0.0000
    44 C18      3.7624   0.8583   3.2481   C.2       1 RES1   0.0000
    45 H18      4.4801   0.3304   3.5774   H         1 RES1   0.0000
    46 C19      3.8336   1.5128   1.9794   C.2       1 RES1   0.0000
    47 H19      4.5348   1.4968   1.3370   H         1 RES1   0.0000
    48 C20      2.0184   1.8573   3.0273   C.2       1 RES1   0.0000
    49 C21      0.6516   2.1434   3.6014   C.2       1 RES1   0.0000
    50 C22     -1.4019   2.6306   3.8464   C.2       1 RES1   0.0000
    51 H20     -2.2809   2.9592   3.7018   H         1 RES1   0.0000
    52 C23     -0.9978   1.8972   4.9826   C.2       1 RES1   0.0000
    53 H21     -1.5295   1.6377   5.7254   H         1 RES1   0.0000
    54 C24      2.2636   2.9822   0.7869   C.3       1 RES1   0.0000
    55 H22      3.0147   3.0043   0.1405   H         1 RES1   0.0000
    56 H23      2.0909   3.9104   1.0840   H         1 RES1   0.0000
    57 C25     -0.5446   3.5907   1.8027   C.3       1 RES1   0.0000
    58 H24      0.0996   4.3409   1.8349   H         1 RES1   0.0000
    59 H25     -1.4562   3.9724   1.7425   H         1 RES1   0.0000
    60 C26      1.0154   2.4286   0.0964   C.ar      1 RES1   0.0000
    61 C27      1.1335   1.5925  -0.9234   C.ar      1 RES1   0.0000
    62 H26      2.0200   1.3454  -1.1563   H         1 RES1   0.0000
    63 C28      0.1441   1.0425  -1.6743   C.ar      1 RES1   0.0000
    64 H27      0.3136   0.5173  -2.4451   H         1 RES1   0.0000
    65 C29     -1.1639   1.3215  -1.2005   C.ar      1 RES1   0.0000
    66 H28     -1.8994   0.9371  -1.6622   H         1 RES1   0.0000
    67 C30     -1.4355   2.1673  -0.0522   C.ar      1 RES1   0.0000
    68 H29     -2.3114   2.3374   0.2770   H         1 RES1   0.0000
    69 C31     -0.2622   2.7138   0.5380   C.ar      1 RES1   0.0000
    70 C32      3.7794   4.6207   6.3116   C.ar      1 RES1   0.0000
    71 H30      4.4983   5.1150   5.9382   H         1 RES1   0.0000
    72 Cl1      6.1019   2.4888   8.8751   Cl        2 RES2   0.0000
    73 O1       4.7469   2.5119   9.4553   O.3       2 RES2  -1.0000
    74 O2       6.9629   1.6944   9.7123   O.2       2 RES2   0.0000
    75 O3       6.5938   3.8254   8.8209   O.2       2 RES2   0.0000
    76 O4       6.0600   1.9149   7.5562   O.2       2 RES2   0.0000
    77 Cl2      4.4949   5.6083   2.4977   Cl        3 RES3   0.0000
    78 O5       5.2537   6.1530   3.5974   O.3       3 RES3  -1.0000
    79 O6       5.1324   4.4702   1.9593   O.2       3 RES3   0.0000
    80 O7       3.1733   5.2106   3.0032   O.2       3 RES3   0.0000
    81 O8       4.3390   6.5977   1.4735   O.2       3 RES3   0.0000
@<TRIPOS>BOND
     1     1     2    1
     2     2    10    1
     3     3     1    1
     4     4     1    1
     5     5     1    1
     6     6     1    1
     7     7     1    1
     8     8    46    1
     9     9    49    1
    10    10    11    1
    11    12    10    1
    12    13     3   ar
    13    14    13   ar
    14    15    14    1
    15    16    14   ar
    16    17    16    1
    17    18    16   ar
    18    19    18    1
    19    20     3   ar
    20    21    20    1
    21    22     2    1
    22    23    22    1
    23    24    22    1
    24    25     4   ar
    25    26    25   ar
    26    27    26    1
    27    28    26   ar
    28    29    28    1
    29    30     4   ar
    30    31    30    1
    31    32     2    1
    32    33    32    1
    33    34    32    1
    34    35     5   ar
    35    36    35   ar
    36    37    36    1
    37    38    36   ar
    38    39    38    1
    39    40    38   ar
    40    41    40    1
    41    42     5   ar
    42    43    42    1
    43    44     6    1
    44    45    44    1
    45    46    44    2
    46    47    46    1
    47    48     6    2
    48    49     7    2
    49    50     9    1
    50    51    50    1
    51    52     7    1
    52    53    52    1
    53    54     8    1
    54    55    54    1
    55    56    54    1
    56    57     9    1
    57    58    57    1
    58    59    57    1
    59    60    54    1
    60    61    60   ar
    61    62    61    1
    62    63    61   ar
    63    64    63    1
    64    65    63   ar
    65    66    65    1
    66    67    65   ar
    67    68    67    1
    68    69    57    1
    69    70    28   ar
    70    71    70    1
    71     8    48    1
    72    10    13    1
    73    18    20   ar
    74    22    25    1
    75    30    70   ar
    76    32    35    1
    77    40    42   ar
    78    48    49    1
    79    50    52    2
    80    60    69   ar
    81    67    69   ar
    82    72    73    1
    83    74    72    2
    84    75    72    2
    85    76    72    2
    86    77    78    1
    87    79    77    2
    88    80    77    2
    89    81    77    2
@<TRIPOS>SUBSTRUCTURE
     1 RES1        1 GROUP             0 ****  ****    0  
     2 RES2       72 GROUP             0 ****  ****    0  
     3 RES3       77 GROUP             0 ****  ****    0  
@<TRIPOS>CRYSIN
    8.8529    8.8571   40.3210   90.0000   95.2800   90.0000    14     1
