@<TRIPOS>MOLECULE
VEVKEM
    41    44     2     0     0
SMALL
NO_CHARGES
****
Generated from the CSD

@<TRIPOS>ATOM
     1 Fe1      0.0000   4.2700   1.2871   Fe        1 RES1   0.0000
     2 S1      -4.3110   2.0633   1.2611   S.2       1 RES1   0.0000
     3 C1      -2.7994   2.6508   1.2516   C.1       1 RES1   0.0000
     4 N1      -1.7217   3.0471   1.2398   N.2       1 RES1   0.0000
     5 N2       0.8472   2.9583   2.8842   N.ar      1 RES1   0.0000
     6 C2       2.1248   2.6884   3.0143   C.ar      1 RES1   0.0000
     7 C3       2.6457   1.9215   4.0317   C.ar      1 RES1   0.0000
     8 C4       1.8156   1.4040   5.0041   C.ar      1 RES1   0.0000
     9 C5       0.4868   1.6875   4.8621   C.ar      1 RES1   0.0000
    10 C6       0.0359   2.4441   3.8022   C.ar      1 RES1   0.0000
    11 C7       2.3348   0.5824   6.1587   C.3       1 RES1   0.0000
    12 N3       0.9770   3.0215  -0.3052   N.ar      1 RES1   0.0000
    13 C8       0.9496   1.6892  -0.3123   C.ar      1 RES1   0.0000
    14 C9       1.5509   0.9223  -1.2989   C.ar      1 RES1   0.0000
    15 C10      2.1999   1.5235  -2.3471   C.ar      1 RES1   0.0000
    16 C11      2.2443   2.9156  -2.3305   C.ar      1 RES1   0.0000
    17 C12      1.6346   3.6107  -1.3108   C.ar      1 RES1   0.0000
    18 C13      2.8421   0.7396  -3.4828   C.3       1 RES1   0.0000
    19 N1A      1.7217   5.4929   1.2398   N.2       1 RES1   0.0000
    20 C1A      2.7994   5.8892   1.2516   C.1       1 RES1   0.0000
    21 S1A      4.3110   6.4767   1.2611   S.2       1 RES1   0.0000
    22 N2A     -0.8472   5.5817   2.8842   N.ar      1 RES1   0.0000
    23 C2A     -2.1248   5.8516   3.0143   C.ar      1 RES1   0.0000
    24 C3A     -2.6457   6.6185   4.0317   C.ar      1 RES1   0.0000
    25 C4A     -1.8156   7.1360   5.0041   C.ar      1 RES1   0.0000
    26 C5A     -0.4868   6.8525   4.8621   C.ar      1 RES1   0.0000
    27 C6A     -0.0359   6.0959   3.8022   C.ar      1 RES1   0.0000
    28 C7A     -2.3348   7.9576   6.1587   C.3       1 RES1   0.0000
    29 N3A     -0.9770   5.5185  -0.3052   N.ar      1 RES1   0.0000
    30 C8A     -0.9496   6.8508  -0.3123   C.ar      1 RES1   0.0000
    31 C9A     -1.5509   7.6177  -1.2989   C.ar      1 RES1   0.0000
    32 C10A    -2.1999   7.0165  -2.3471   C.ar      1 RES1   0.0000
    33 C11A    -2.2443   5.6244  -2.3305   C.ar      1 RES1   0.0000
    34 C12A    -1.6346   4.9293  -1.3108   C.ar      1 RES1   0.0000
    35 C13A    -2.8421   7.8004  -3.4828   C.3       1 RES1   0.0000
    36 C14     13.2780   3.3648   5.0822   C.ar      2 RES2   0.0000
    37 C15     12.1217   3.9591   4.7486   C.ar      2 RES2   0.0000
    38 C16     13.9646   3.6107   6.1469   C.ar      2 RES2   0.0000
    39 C16L    11.6554   4.9293   5.6831   C.ar      2 RES2   0.0000
    40 C14L    12.3420   5.1752   6.7478   C.ar      2 RES2   0.0000
    41 C15L    13.4983   4.5809   7.0814   C.ar      2 RES2   0.0000
@<TRIPOS>BOND
     1     1     4    1
     2     2     3    2
     3     3     4    2
     4     5     1    1
     5     6     5   ar
     6     7     6   ar
     7     8     7   ar
     8     9     8   ar
     9    10     5   ar
    10    11     8    1
    11    12     1    1
    12    13    12   ar
    13    14    13   ar
    14    15    14   ar
    15    16    15   ar
    16    17    12   ar
    17    18    15    1
    18    19     1    1
    19    20    19    2
    20    21    20    2
    21    22     1    1
    22    23    22   ar
    23    24    23   ar
    24    25    24   ar
    25    26    25   ar
    26    27    22   ar
    27    28    25    1
    28    29     1    1
    29    30    29   ar
    30    31    30   ar
    31    32    31   ar
    32    33    32   ar
    33    34    29   ar
    34    35    32    1
    35     9    10   ar
    36    16    17   ar
    37    26    27   ar
    38    33    34   ar
    39    36    37   ar
    40    37    39   ar
    41    38    36   ar
    42    39    40   ar
    43    40    41   ar
    44    41    38   ar
@<TRIPOS>SUBSTRUCTURE
     1 RES1        1 GROUP             0 ****  ****    0  
     2 RES2       36 GROUP             0 ****  ****    0  
