@<TRIPOS>MOLECULE
VEVQOE
   170   182     6     0     0
SMALL
USER_CHARGES
****
Generated from the CSD

@<TRIPOS>ATOM
     1 Fe1      7.4840   4.0906   4.6813   Fe        1 RES1   2.0000
     2 N1       6.0518   3.1985   3.4405   N.ar      1 RES1   0.0000
     3 C1       5.0069   2.5300   3.9878   C.ar      1 RES1   0.0000
     4 C2       3.9956   1.9825   3.1887   C.ar      1 RES1   0.0000
     5 H1       3.2595   1.5274   3.5805   H         1 RES1   0.0000
     6 C3       4.0963   2.1227   1.7996   C.ar      1 RES1   0.0000
     7 H2       3.4199   1.7645   1.2373   H         1 RES1   0.0000
     8 C4       5.1893   2.7912   1.2354   C.ar      1 RES1   0.0000
     9 H3       5.2718   2.8804   0.2938   H         1 RES1   0.0000
    10 C5       6.1573   3.3250   2.0942   C.ar      1 RES1   0.0000
    11 C6       5.0869   2.4515   5.4618   C.2       1 RES1   0.0000
    12 N2       6.1353   3.0872   6.0422   N.2       1 RES1   0.0000
    13 N3       6.0112   2.8410   7.3726   N.pl3     1 RES1   0.0000
    14 H4       6.5670   3.1420   7.9852   H         1 RES1   0.0000
    15 C7       4.9268   2.0759   7.6413   C.2       1 RES1   0.0000
    16 H5       4.6477   1.7785   8.5002   H         1 RES1   0.0000
    17 C8       4.3015   1.8046   6.4419   C.2       1 RES1   0.0000
    18 H6       3.5130   1.2938   6.3038   H         1 RES1   0.0000
    19 C9       7.3674   4.0619   1.6788   C.2       1 RES1   0.0000
    20 N4       8.1438   4.5518   2.6731   N.2       1 RES1   0.0000
    21 N5       9.1651   5.1726   2.0271   N.pl3     1 RES1   0.0000
    22 H7       9.8276   5.5830   2.4382   H         1 RES1   0.0000
    23 C10      9.0493   5.0913   0.6865   C.2       1 RES1   0.0000
    24 H8       9.6515   5.4540   0.0484   H         1 RES1   0.0000
    25 C11      7.8978   4.3838   0.4090   C.2       1 RES1   0.0000
    26 H9       7.5417   4.1637  -0.4441   H         1 RES1   0.0000
    27 N6       8.9149   4.8671   5.9962   N.ar      1 RES1   0.0000
    28 C12     10.0050   4.1271   6.3182   C.ar      1 RES1   0.0000
    29 C13     10.9876   4.6282   7.1822   C.ar      1 RES1   0.0000
    30 H10     11.7573   4.1114   7.3942   H         1 RES1   0.0000
    31 C14     10.8116   5.9024   7.7257   C.ar      1 RES1   0.0000
    32 H11     11.4670   6.2595   8.3135   H         1 RES1   0.0000
    33 C15      9.6786   6.6515   7.4103   C.ar      1 RES1   0.0000
    34 H12      9.5467   7.5149   7.7848   H         1 RES1   0.0000
    35 C16      8.7412   6.1016   6.5288   C.ar      1 RES1   0.0000
    36 C17      9.9953   2.7789   5.7267   C.2       1 RES1   0.0000
    37 N7       8.9517   2.4784   4.9174   N.2       1 RES1   0.0000
    38 N8       9.1386   1.1808   4.5708   N.pl3     1 RES1   0.0000
    39 H13      8.5998   0.7323   4.0384   H         1 RES1   0.0000
    40 C18     10.2443   0.6587   5.1353   C.2       1 RES1   0.0000
    41 H14     10.5596  -0.2302   5.0355   H         1 RES1   0.0000
    42 C19     10.8333   1.6526   5.8846   C.2       1 RES1   0.0000
    43 H15     11.6311   1.5937   6.3972   H         1 RES1   0.0000
    44 C20      7.4943   6.7544   6.0980   C.2       1 RES1   0.0000
    45 N9       6.7349   6.0855   5.2050   N.2       1 RES1   0.0000
    46 N10      5.6625   6.8977   5.0028   N.pl3     1 RES1   0.0000
    47 H16      5.0008   6.7059   4.4549   H         1 RES1   0.0000
    48 C21      5.7232   8.0310   5.7345   C.2       1 RES1   0.0000
    49 H17      5.0793   8.7285   5.7474   H         1 RES1   0.0000
    50 C22      6.8894   7.9846   6.4550   C.2       1 RES1   0.0000
    51 H18      7.2202   8.6378   7.0624   H         1 RES1   0.0000
    52 B1      13.2319   6.4559   3.1398   B         2 RES2  -1.0000
    53 C23     13.5448   6.3575   4.7607   C.ar      2 RES2   0.0000
    54 C24     14.0951   5.2224   5.3951   C.ar      2 RES2   0.0000
    55 H19     14.2374   4.4357   4.8817   H         2 RES2   0.0000
    56 C25     14.4413   5.2123   6.7592   C.ar      2 RES2   0.0000
    57 H20     14.8087   4.4253   7.1471   H         2 RES2   0.0000
    58 C26     14.2499   6.3439   7.5425   C.ar      2 RES2   0.0000
    59 H21     14.4714   6.3328   8.4656   H         2 RES2   0.0000
    60 C27     13.7276   7.4964   6.9510   C.ar      2 RES2   0.0000
    61 H22     13.5981   8.2821   7.4720   H         2 RES2   0.0000
    62 C28     13.3942   7.4968   5.5910   C.ar      2 RES2   0.0000
    63 H23     13.0518   8.2960   5.2083   H         2 RES2   0.0000
    64 C29     14.5745   7.1934   2.5070   C.ar      2 RES2   0.0000
    65 C30     15.6885   6.4733   2.0232   C.ar      2 RES2   0.0000
    66 H24     15.6398   5.5237   1.9907   H         2 RES2   0.0000
    67 C31     16.8657   7.1045   1.5879   C.ar      2 RES2   0.0000
    68 H25     17.5908   6.5838   1.2632   H         2 RES2   0.0000
    69 C32     16.9707   8.4924   1.6302   C.ar      2 RES2   0.0000
    70 H26     17.7628   8.9237   1.3323   H         2 RES2   0.0000
    71 C33     15.8999   9.2365   2.1141   C.ar      2 RES2   0.0000
    72 H27     15.9635  10.1826   2.1583   H         2 RES2   0.0000
    73 C34     14.7266   8.5959   2.5383   C.ar      2 RES2   0.0000
    74 H28     14.0063   9.1260   2.8582   H         2 RES2   0.0000
    75 C35     12.8981   5.0174   2.3975   C.ar      2 RES2   0.0000
    76 C36     13.1043   4.8479   1.0059   C.ar      2 RES2   0.0000
    77 H29     13.5625   5.5307   0.5305   H         2 RES2   0.0000
    78 C37     12.6656   3.7236   0.2996   C.ar      2 RES2   0.0000
    79 H30     12.8264   3.6546  -0.6342   H         2 RES2   0.0000
    80 C38     11.9892   2.7026   0.9755   C.ar      2 RES2   0.0000
    81 H31     11.6873   1.9319   0.5063   H         2 RES2   0.0000
    82 C39     11.7622   2.8250   2.3470   C.ar      2 RES2   0.0000
    83 H32     11.3046   2.1377   2.8150   H         2 RES2   0.0000
    84 C40     12.2080   3.9639   3.0396   C.ar      2 RES2   0.0000
    85 H33     12.0400   4.0277   3.9727   H         2 RES2   0.0000
    86 C41     11.8733   7.3451   2.8307   C.ar      2 RES2   0.0000
    87 C42     11.6703   7.8915   1.5417   C.ar      2 RES2   0.0000
    88 H34     12.3596   7.8009   0.8934   H         2 RES2   0.0000
    89 C43     10.4968   8.5586   1.1830   C.ar      2 RES2   0.0000
    90 H35     10.3968   8.9028   0.3024   H         2 RES2   0.0000
    91 C44      9.4710   8.7229   2.1135   C.ar      2 RES2   0.0000
    92 H36      8.6791   9.1923   1.8801   H         2 RES2   0.0000
    93 C45      9.6259   8.1886   3.3897   C.ar      2 RES2   0.0000
    94 H37      8.9311   8.2891   4.0298   H         2 RES2   0.0000
    95 C46     10.8021   7.5038   3.7356   C.ar      2 RES2   0.0000
    96 H38     10.8788   7.1348   4.6069   H         2 RES2   0.0000
    97 B2       6.1525  -2.3518   3.8837   B         3 RES3  -1.0000
    98 C47      7.2475  -1.5215   2.9515   C.ar      3 RES3   0.0000
    99 C48      8.5993  -1.9504   2.9432   C.ar      3 RES3   0.0000
   100 H39      8.8390  -2.7096   3.4630   H         3 RES3   0.0000
   101 C49      9.5928  -1.3053   2.2027   C.ar      3 RES3   0.0000
   102 H40     10.4836  -1.6355   2.2188   H         3 RES3   0.0000
   103 C50      9.2805  -0.1758   1.4365   C.ar      3 RES3   0.0000
   104 H41      9.9513   0.2615   0.9262   H         3 RES3   0.0000
   105 C51      7.9728   0.2968   1.4348   C.ar      3 RES3   0.0000
   106 H42      7.7493   1.0671   0.9279   H         3 RES3   0.0000
   107 C52      6.9787  -0.3655   2.1828   C.ar      3 RES3   0.0000
   108 H43      6.0934  -0.0209   2.1704   H         3 RES3   0.0000
   109 C53      6.0832  -3.9398   3.4217   C.ar      3 RES3   0.0000
   110 C54      6.6345  -4.4573   2.2317   C.ar      3 RES3   0.0000
   111 H44      7.1381  -3.8778   1.6710   H         3 RES3   0.0000
   112 C55      6.4656  -5.7985   1.8431   C.ar      3 RES3   0.0000
   113 H45      6.8450  -6.1061   1.0282   H         3 RES3   0.0000
   114 C56      5.7440  -6.6755   2.6498   C.ar      3 RES3   0.0000
   115 H46      5.6279  -7.5812   2.3899   H         3 RES3   0.0000
   116 C57      5.1968  -6.2090   3.8376   C.ar      3 RES3   0.0000
   117 H47      4.7126  -6.8000   4.4013   H         3 RES3   0.0000
   118 C58      5.3584  -4.8706   4.2038   C.ar      3 RES3   0.0000
   119 H48      4.9634  -4.5717   5.0147   H         3 RES3   0.0000
   120 C59      6.7528  -2.1603   5.4156   C.ar      3 RES3   0.0000
   121 C60      6.8225  -0.8610   5.9743   C.ar      3 RES3   0.0000
   122 H49      6.3715  -0.1534   5.5297   H         3 RES3   0.0000
   123 C61      7.5232  -0.5716   7.1478   C.ar      3 RES3   0.0000
   124 H50      7.5447   0.3173   7.4824   H         3 RES3   0.0000
   125 C62      8.1911  -1.5909   7.8281   C.ar      3 RES3   0.0000
   126 H51      8.6938  -1.3984   8.6108   H         3 RES3   0.0000
   127 C63      8.1097  -2.8912   7.3424   C.ar      3 RES3   0.0000
   128 H52      8.5393  -3.5988   7.8089   H         3 RES3   0.0000
   129 C64      7.3960  -3.1650   6.1654   C.ar      3 RES3   0.0000
   130 H53      7.3441  -4.0626   5.8615   H         3 RES3   0.0000
   131 C65      4.6127  -1.7778   3.7172   C.ar      3 RES3   0.0000
   132 C66      3.7634  -1.4521   4.7949   C.ar      3 RES3   0.0000
   133 H54      4.0988  -1.5274   5.6800   H         3 RES3   0.0000
   134 C67      2.4398  -1.0200   4.6059   C.ar      3 RES3   0.0000
   135 H55      1.8996  -0.8125   5.3586   H         3 RES3   0.0000
   136 C68      1.9111  -0.8941   3.3169   C.ar      3 RES3   0.0000
   137 H56      1.0219  -0.5858   3.1882   H         3 RES3   0.0000
   138 C69      2.7124  -1.2271   2.2247   C.ar      3 RES3   0.0000
   139 H57      2.3659  -1.1578   1.3427   H         3 RES3   0.0000
   140 C70      4.0252  -1.6630   2.4284   C.ar      3 RES3   0.0000
   141 H58      4.5487  -1.8935   1.6693   H         3 RES3   0.0000
   142 C71      5.8659   5.5523   9.4373   C.3       4 RES4   0.0000
   143 H59      5.9103   5.6632   8.4639   H         4 RES4   0.0000
   144 H60      5.5709   6.3920   9.8463   H         4 RES4   0.0000
   145 H61      5.2294   4.8402   9.6562   H         4 RES4   0.0000
   146 C72      7.2297   5.1876   9.9655   C.3       4 RES4   0.0000
   147 H62      7.8819   5.8899   9.7201   H         4 RES4   0.0000
   148 H63      7.2004   5.1262  10.9540   H         4 RES4   0.0000
   149 O1       7.6462   3.9158   9.4067   O.3       4 RES4   0.0000
   150 C73      8.8586   3.4276  10.0034   C.3       4 RES4   0.0000
   151 H64      8.7390   3.3407  10.9816   H         4 RES4   0.0000
   152 H65      9.5957   4.0661   9.8359   H         4 RES4   0.0000
   153 C74      9.2022   2.0846   9.4081   C.3       4 RES4   0.0000
   154 H66      8.4791   1.4507   9.5923   H         4 RES4   0.0000
   155 H67     10.0356   1.7541   9.8065   H         4 RES4   0.0000
   156 H68      9.3168   2.1760   8.4397   H         4 RES4   0.0000
   157 C75      1.0746   6.2253  13.0227   C.3       5 RES5   0.0000
   158 H69      2.0435   6.1061  12.9291   H         5 RES5   0.0000
   159 H70      0.7961   5.9457  13.9192   H         5 RES5   0.0000
   160 H71      0.8488   7.1697  12.8911   H         5 RES5   0.0000
   161 N11      0.3863   5.4163  12.0227   N.pl3     5 RES5   0.0000
   162 O2      -0.2894   4.4577  12.4195   O.2       5 RES5   0.0000
   163 O3       0.5283   5.7113  10.8359   O.2       5 RES5   0.0000
   164 C76      8.4250   4.4169  14.3779   C.3       6 RES6   0.0000
   165 H72      8.6889   4.0138  15.2308   H         6 RES6   0.0000
   166 H73      8.7873   3.8847  13.6376   H         6 RES6   0.0000
   167 H74      7.4475   4.4392  14.3150   H         6 RES6   0.0000
   168 N12      8.9456   5.7717  14.3029   N.pl3     6 RES6   0.0000
   169 O4       9.5857   6.2180  15.2396   O.2       6 RES6   0.0000
   170 O5       8.7527   6.4109  13.2799   O.2       6 RES6   0.0000
@<TRIPOS>BOND
     1     1     2    1
     2     2     3   ar
     3     3     4   ar
     4     4     5    1
     5     6     4   ar
     6     7     6    1
     7     8     6   ar
     8     9     8    1
     9    10     2   ar
    10    11     3    1
    11    12     1    1
    12    13    12    1
    13    14    13    1
    14    15    13    1
    15    16    15    1
    16    17    11    1
    17    18    17    1
    18    19    10    1
    19    20     1    1
    20    21    20    1
    21    22    21    1
    22    23    21    1
    23    24    23    1
    24    25    19    1
    25    26    25    1
    26    27     1    1
    27    28    27   ar
    28    29    28   ar
    29    30    29    1
    30    31    29   ar
    31    32    31    1
    32    33    31   ar
    33    34    33    1
    34    35    27   ar
    35    36    28    1
    36    37     1    1
    37    38    37    1
    38    39    38    1
    39    40    38    1
    40    41    40    1
    41    42    36    1
    42    43    42    1
    43    44    35    1
    44    45     1    1
    45    46    45    1
    46    47    46    1
    47    48    46    1
    48    49    48    1
    49    50    44    1
    50    51    50    1
    51     8    10   ar
    52    11    12    2
    53    15    17    2
    54    19    20    2
    55    23    25    2
    56    33    35   ar
    57    36    37    2
    58    40    42    2
    59    44    45    2
    60    48    50    2
    61    52    53    1
    62    53    54   ar
    63    54    55    1
    64    56    54   ar
    65    57    56    1
    66    58    56   ar
    67    59    58    1
    68    60    58   ar
    69    61    60    1
    70    62    53   ar
    71    63    62    1
    72    64    52    1
    73    65    64   ar
    74    66    65    1
    75    67    65   ar
    76    68    67    1
    77    69    67   ar
    78    70    69    1
    79    71    69   ar
    80    72    71    1
    81    73    64   ar
    82    74    73    1
    83    75    52    1
    84    76    75   ar
    85    77    76    1
    86    78    76   ar
    87    79    78    1
    88    80    78   ar
    89    81    80    1
    90    82    80   ar
    91    83    82    1
    92    84    75   ar
    93    85    84    1
    94    86    52    1
    95    87    86   ar
    96    88    87    1
    97    89    87   ar
    98    90    89    1
    99    91    89   ar
   100    92    91    1
   101    93    91   ar
   102    94    93    1
   103    95    86   ar
   104    96    95    1
   105    60    62   ar
   106    71    73   ar
   107    82    84   ar
   108    93    95   ar
   109    97    98    1
   110    98    99   ar
   111    99   100    1
   112   101    99   ar
   113   102   101    1
   114   103   101   ar
   115   104   103    1
   116   105   103   ar
   117   106   105    1
   118   107    98   ar
   119   108   107    1
   120   109    97    1
   121   110   109   ar
   122   111   110    1
   123   112   110   ar
   124   113   112    1
   125   114   112   ar
   126   115   114    1
   127   116   114   ar
   128   117   116    1
   129   118   109   ar
   130   119   118    1
   131   120    97    1
   132   121   120   ar
   133   122   121    1
   134   123   121   ar
   135   124   123    1
   136   125   123   ar
   137   126   125    1
   138   127   125   ar
   139   128   127    1
   140   129   120   ar
   141   130   129    1
   142   131    97    1
   143   132   131   ar
   144   133   132    1
   145   134   132   ar
   146   135   134    1
   147   136   134   ar
   148   137   136    1
   149   138   136   ar
   150   139   138    1
   151   140   131   ar
   152   141   140    1
   153   105   107   ar
   154   116   118   ar
   155   127   129   ar
   156   138   140   ar
   157   142   143    1
   158   144   142    1
   159   145   142    1
   160   146   142    1
   161   147   146    1
   162   148   146    1
   163   149   146    1
   164   150   149    1
   165   151   150    1
   166   152   150    1
   167   153   150    1
   168   154   153    1
   169   155   153    1
   170   156   153    1
   171   157   158    1
   172   159   157    1
   173   160   157    1
   174   161   157    1
   175   162   161    2
   176   163   161    2
   177   164   165    1
   178   166   164    1
   179   167   164    1
   180   168   164    1
   181   169   168    2
   182   170   168    2
@<TRIPOS>SUBSTRUCTURE
     1 RES1        1 GROUP             0 ****  ****    0  
     2 RES2       52 GROUP             0 ****  ****    0  
     3 RES3       97 GROUP             0 ****  ****    0  
     4 RES4      142 GROUP             0 ****  ****    0  
     5 RES5      157 GROUP             0 ****  ****    0  
     6 RES6      164 GROUP             0 ****  ****    0  
@<TRIPOS>CRYSIN
   11.4029   34.8720   17.3213   90.0000   93.9450   90.0000   231     1
