@<TRIPOS>MOLECULE
VEWJOY
    95   103     4     0     0
SMALL
NO_CHARGES
****
Generated from the CSD

@<TRIPOS>ATOM
     1 Fe1     14.4375   1.1000   8.5793   Fe        1 RES1   0.0000
     2 F1      14.5216  -3.2231   8.7298   F         1 RES1   0.0000
     3 Cl1     10.3256   2.6778   8.8884   Cl        1 RES1   0.0000
     4 F2      14.3642   5.4307   8.4534   F         1 RES1   0.0000
     5 O1      14.7733  -1.3506  10.0346   O.3       1 RES1   0.0000
     6 O2      13.1481  -1.4490   8.1993   O.3       1 RES1   0.0000
     7 C1      15.8919   0.3602   6.3623   C.2       1 RES1   0.0000
     8 N1      14.9637   0.0233  10.0534   N.2       1 RES1   0.0000
     9 O3      15.5300   3.6616   9.3438   O.3       1 RES1   0.0000
    10 O4      15.5599  -1.4223   7.7456   O.3       1 RES1   0.0000
    11 O5      14.5798   3.5849   7.1059   O.3       1 RES1   0.0000
    12 O6      13.0552   3.6199   9.0095   O.3       1 RES1   0.0000
    13 C2      15.9942   1.9275  10.7118   C.2       1 RES1   0.0000
    14 N2      14.8063   2.2143   7.0804   N.2       1 RES1   0.0000
    15 N3      15.4419  -0.0634   7.5017   N.2       1 RES1   0.0000
    16 C3      16.4709  -0.3135  11.9553   C.ar      1 RES1   0.0000
    17 N4      15.4860   2.3060   9.5980   N.2       1 RES1   0.0000
    18 C4      16.6015  -0.4885   5.3491   C.ar      1 RES1   0.0000
    19 C5      16.2113   2.6195   5.0813   C.ar      1 RES1   0.0000
    20 C6      10.5521  -0.5969   8.5046   C.3       1 RES1   0.0000
    21 H1      10.8511  -1.5273   8.4159   H         1 RES1   0.0000
    22 C7      16.8076   2.8096  11.6670   C.ar      1 RES1   0.0000
    23 N5      12.9577   2.2927   8.9345   N.2       1 RES1   0.0000
    24 C8      15.6166   1.7341   6.1320   C.2       1 RES1   0.0000
    25 C9      11.7415   0.3235   8.5524   C.2       1 RES1   0.0000
    26 C10     15.7440  -1.2322  12.7757   C.ar      1 RES1   0.0000
    27 H2      14.8268  -1.3439  12.6699   H         1 RES1   0.0000
    28 N6      12.9734  -0.1301   8.3426   N.2       1 RES1   0.0000
    29 C11     16.4394  -1.9475  13.7326   C.ar      1 RES1   0.0000
    30 H3      15.9564  -2.5361  14.2682   H         1 RES1   0.0000
    31 C12     17.7877   3.5916  11.2030   C.ar      1 RES1   0.0000
    32 H4      18.0096   3.5532  10.3007   H         1 RES1   0.0000
    33 C13     15.8085   0.4869  10.9472   C.2       1 RES1   0.0000
    34 C14     17.7342  -1.2055   5.6493   C.ar      1 RES1   0.0000
    35 H5      18.0662  -1.1538   6.5175   H         1 RES1   0.0000
    36 C15     16.4599   2.7946  13.0128   C.ar      1 RES1   0.0000
    37 H6      15.7739   2.2493  13.3232   H         1 RES1   0.0000
    38 B1      14.3752   4.0451   8.4773   B         1 RES1   0.0000
    39 C16     16.0917  -0.5652   3.9999   C.ar      1 RES1   0.0000
    40 H7      15.3822  -0.0333   3.7201   H         1 RES1   0.0000
    41 C17     18.3730  -1.9542   4.7930   C.ar      1 RES1   0.0000
    42 H8      19.1486  -2.4127   5.0216   H         1 RES1   0.0000
    43 B2      14.5011  -1.8708   8.6735   B         1 RES1   0.0000
    44 C18     17.7987  -2.0259   3.4609   C.ar      1 RES1   0.0000
    45 H9      18.2581  -2.5111   2.8144   H         1 RES1   0.0000
    46 C19     11.8469   1.8108   8.7878   C.2       1 RES1   0.0000
    47 C20     15.3696   3.2948   4.2216   C.ar      1 RES1   0.0000
    48 H10     14.4492   3.2681   4.3478   H         1 RES1   0.0000
    49 C21     17.7767  -1.8541  13.9475   C.ar      1 RES1   0.0000
    50 H11     18.1999  -2.3277  14.6264   H         1 RES1   0.0000
    51 C22     17.1537   3.6066  13.8656   C.ar      1 RES1   0.0000
    52 H12     16.9712   3.5916  14.7782   H         1 RES1   0.0000
    53 C23     18.1370   4.4570  13.3573   C.ar      1 RES1   0.0000
    54 H13     18.5712   5.0422  13.9373   H         1 RES1   0.0000
    55 C24     15.9076   4.0068   3.1760   C.ar      1 RES1   0.0000
    56 H14     15.3523   4.4820   2.5995   H         1 RES1   0.0000
    57 C25     17.8412  -0.1667  12.1889   C.ar      1 RES1   0.0000
    58 H15     18.3195   0.4936  11.7420   H         1 RES1   0.0000
    59 C26     16.7147  -1.4723   3.1265   C.ar      1 RES1   0.0000
    60 H16     16.3293  -1.6641   2.3027   H         1 RES1   0.0000
    61 C27     17.4919   2.6828   4.9124   C.ar      1 RES1   0.0000
    62 H17     18.0410   2.1960   5.4821   H         1 RES1   0.0000
    63 C28     17.2811   4.0151   2.9867   C.ar      1 RES1   0.0000
    64 H18     17.6524   4.4036   2.2276   H         1 RES1   0.0000
    65 C29     18.4847  -0.9971  13.0810   C.ar      1 RES1   0.0000
    66 H19     19.4145  -0.9921  13.1117   H         1 RES1   0.0000
    67 C30      9.6522  -0.2568   7.4147   C.3       1 RES1   0.0000
    68 H20      9.6962   0.6936   7.2202   H         1 RES1   0.0000
    69 H21      9.8850  -0.7503   6.6113   H         1 RES1   0.0000
    70 C31     18.4831   4.4570  12.0337   C.ar      1 RES1   0.0000
    71 H22     19.1518   5.0139  11.7062   H         1 RES1   0.0000
    72 O7       9.7230  -0.4452   9.7123   O.3       1 RES1   0.0000
    73 C32     18.0709   3.4448   3.9248   C.ar      1 RES1   0.0000
    74 H23     18.9929   3.5649   3.9009   H         1 RES1   0.0000
    75 C33      8.3668  -0.6119   7.8599   C.3       1 RES1   0.0000
    76 H24      7.7391   0.0950   7.6449   H         1 RES1   0.0000
    77 H25      8.0773  -1.4223   7.4113   H         1 RES1   0.0000
    78 C34      8.3888  -0.8170   9.2398   C.3       1 RES1   0.0000
    79 H26      8.2095  -1.7508   9.4428   H         1 RES1   0.0000
    80 H27      7.7123  -0.2751   9.6730   H         1 RES1   0.0000
    81 C35     11.1641   1.1222  12.9292   C.3       2 RES2   0.0000
    82 H28     10.9675   1.6524  13.7172   H         2 RES2   0.0000
    83 H29     10.4404   1.2672  12.2998   H         2 RES2   0.0000
    84 Cl2     12.6006   1.7391  12.2282   Cl        2 RES2   0.0000
    85 Cl3     11.1342  -0.5236  13.3897   Cl        2 RES2   0.0000
    86 C36     17.8098  -3.4332   9.1408   C.3       3 RES3   0.0000
    87 H30     16.9161  -3.5699   8.7895   H         3 RES3   0.0000
    88 H31     17.9340  -2.4794   9.2654   H         3 RES3   0.0000
    89 Cl4     17.9199  -4.2035  10.6674   Cl        3 RES3   0.0000
    90 Cl5     18.9079  -3.9684   8.0134   Cl        3 RES3   0.0000
    91 Cl6     20.4120  -1.0621   9.1818   Cl        4 RES4   0.0000
    92 C37     20.3050   0.4635   8.6206   C.3       4 RES4   0.0000
    93 H32     20.6968   0.4969   7.7336   H         4 RES4   0.0000
    94 H33     20.8305   1.0438   9.1937   H         4 RES4   0.0000
    95 Cl7     18.7553   1.0555   8.5421   Cl        4 RES4   0.0000
@<TRIPOS>BOND
     1     1     8    1
     2     2    43    1
     3     3    46    1
     4     4    38    1
     5     5     8    1
     6     6    28    1
     7     7    15    2
     8     8    33    2
     9     9    17    1
    10    10    15    1
    11    11    14    1
    12    12    23    1
    13    13    17    2
    14    14     1    1
    15    15     1    1
    16    16    26   ar
    17    17     1    1
    18    18     7    1
    19    19    24    1
    20    20    21    1
    21    22    13    1
    22    23     1    1
    23    24     7    1
    24    25    20    1
    25    26    27    1
    26    28     1    1
    27    29    26   ar
    28    30    29    1
    29    31    22   ar
    30    32    31    1
    31    33    13    1
    32    34    18   ar
    33    35    34    1
    34    36    22   ar
    35    37    36    1
    36    38     9    1
    37    39    18   ar
    38    40    39    1
    39    41    34   ar
    40    42    41    1
    41    43     5    1
    42    44    41   ar
    43    45    44    1
    44    46    23    2
    45    47    19   ar
    46    48    47    1
    47    49    29   ar
    48    50    49    1
    49    51    36   ar
    50    52    51    1
    51    53    51   ar
    52    54    53    1
    53    55    47   ar
    54    56    55    1
    55    57    16   ar
    56    58    57    1
    57    59    39   ar
    58    60    59    1
    59    61    19   ar
    60    62    61    1
    61    63    55   ar
    62    64    63    1
    63    65    49   ar
    64    66    65    1
    65    67    20    1
    66    68    67    1
    67    69    67    1
    68    70    31   ar
    69    71    70    1
    70    72    20    1
    71    73    61   ar
    72    74    73    1
    73    75    67    1
    74    76    75    1
    75    77    75    1
    76    78    72    1
    77    79    78    1
    78    80    78    1
    79     6    43    1
    80    10    43    1
    81    11    38    1
    82    12    38    1
    83    14    24    2
    84    16    33    1
    85    25    28    2
    86    25    46    1
    87    44    59   ar
    88    53    70   ar
    89    57    65   ar
    90    63    73   ar
    91    75    78    1
    92    81    82    1
    93    83    81    1
    94    84    81    1
    95    85    81    1
    96    86    87    1
    97    88    86    1
    98    89    86    1
    99    90    86    1
   100    91    92    1
   101    92    93    1
   102    94    92    1
   103    95    92    1
@<TRIPOS>SUBSTRUCTURE
     1 RES1        1 GROUP             0 ****  ****    0  
     2 RES2       81 GROUP             0 ****  ****    0  
     3 RES3       86 GROUP             0 ****  ****    0  
     4 RES4       91 GROUP             0 ****  ****    0  
@<TRIPOS>CRYSIN
   15.7330   16.6740   17.0570   90.0000   90.0000   90.0000    19     1
