@<TRIPOS>MOLECULE
VEYVAA
    81    85     4     0     0
SMALL
USER_CHARGES
****
Generated from the CSD

@<TRIPOS>ATOM
     1 Fe1      1.4513  10.1169   8.9577   Fe        1 RES1   1.0000
     2 C1       1.8800  12.7540   8.0476   C.3       1 RES1   0.0000
     3 H1       2.4645  13.5207   7.9402   H         1 RES1   0.0000
     4 H2       0.9853  13.0807   8.2301   H         1 RES1   0.0000
     5 N1       2.3527  11.9238   9.1988   N.3       1 RES1   0.0000
     6 O1       3.0911   9.2244   8.6483   O.3       1 RES1   0.0000
     7 O2       7.3438  11.2913   5.7912   O.3       1 RES1   0.0000
     8 H3       7.3647  12.0432   5.8225   H         1 RES1   0.0000
     9 C2       1.8715  11.9428   6.7711   C.3       1 RES1   0.0000
    10 H4       1.4055  12.4281   6.0725   H         1 RES1   0.0000
    11 H5       2.7804  11.7782   6.4759   H         1 RES1   0.0000
    12 N2       1.1828  10.6549   7.0418   N.3       1 RES1   0.0000
    13 H6       0.3071  10.8129   6.9960   H         1 RES1   0.0000
    14 C3       0.6851   8.3632   6.1683   C.3       1 RES1   0.0000
    15 H7       0.8794   7.7758   5.4212   H         1 RES1   0.0000
    16 H8      -0.2621   8.5690   6.1383   H         1 RES1   0.0000
    17 C4       1.4599   9.6495   5.9784   C.3       1 RES1   0.0000
    18 H9       2.4089   9.4491   5.9721   H         1 RES1   0.0000
    19 H10      1.2320  10.0311   5.1159   H         1 RES1   0.0000
    20 C5       4.1043   9.7462   7.9294   C.ar      1 RES1   0.0000
    21 C6       4.4990  11.0679   8.1300   C.ar      1 RES1   0.0000
    22 C7       3.8547  11.8465   9.2291   C.3       1 RES1   0.0000
    23 H11      4.2058  12.7505   9.2058   H         1 RES1   0.0000
    24 H12      4.1216  11.4540  10.0749   H         1 RES1   0.0000
    25 C8       1.9294  12.6237  10.4563   C.3       1 RES1   0.0000
    26 H13      0.9763  12.7951  10.4068   H         1 RES1   0.0000
    27 H14      2.3786  13.4827  10.4958   H         1 RES1   0.0000
    28 C9       4.7880   8.9818   6.9843   C.ar      1 RES1   0.0000
    29 H15      4.5315   8.1006   6.8329   H         1 RES1   0.0000
    30 C10      5.8469   9.5216   6.2650   C.ar      1 RES1   0.0000
    31 H16      6.2913   9.0027   5.6348   H         1 RES1   0.0000
    32 C11      6.2402  10.8285   6.4854   C.ar      1 RES1   0.0000
    33 C12      5.5727  11.6010   7.4071   C.ar      1 RES1   0.0000
    34 H17      5.8361  12.4814   7.5512   H         1 RES1   0.0000
    35 C1B      1.0225   7.4798   9.8678   C.3       1 RES1   0.0000
    36 H1B      0.4381   6.7131   9.9752   H         1 RES1   0.0000
    37 H2B      1.9173   7.1531   9.6854   H         1 RES1   0.0000
    38 N1B      0.5499   8.3100   8.7167   N.3       1 RES1   0.0000
    39 O1B     -0.1886  11.0094   9.2671   O.3       1 RES1   0.0000
    40 O2B     -4.4413   8.9425  12.1243   O.3       1 RES1   0.0000
    41 H3B     -4.4622   8.1906  12.0929   H         1 RES1   0.0000
    42 C2B      1.0311   8.2910  11.1443   C.3       1 RES1   0.0000
    43 H4B      1.4970   7.8057  11.8430   H         1 RES1   0.0000
    44 H5B      0.1221   8.4556  11.4396   H         1 RES1   0.0000
    45 N2B      1.7198   9.5789  10.8736   N.3       1 RES1   0.0000
    46 H6B      2.5955   9.4209  10.9195   H         1 RES1   0.0000
    47 C3B      2.2175  11.8706  11.7472   C.3       1 RES1   0.0000
    48 H7B      2.0232  12.4580  12.4943   H         1 RES1   0.0000
    49 H8B      3.1646  11.6648  11.7772   H         1 RES1   0.0000
    50 C4B      1.4427  10.5843  11.9371   C.3       1 RES1   0.0000
    51 H9B      0.4937  10.7847  11.9433   H         1 RES1   0.0000
    52 H10B     1.6706  10.2027  12.7995   H         1 RES1   0.0000
    53 C5B     -1.2017  10.4876   9.9861   C.ar      1 RES1   0.0000
    54 C6B     -1.5964   9.1659   9.7854   C.ar      1 RES1   0.0000
    55 C7B     -0.9522   8.3873   8.6863   C.3       1 RES1   0.0000
    56 H11B    -1.3032   7.4833   8.7097   H         1 RES1   0.0000
    57 H12B    -1.2191   8.7798   7.8406   H         1 RES1   0.0000
    58 C8B      0.9732   7.6101   7.4591   C.3       1 RES1   0.0000
    59 H13B     1.9263   7.4387   7.5086   H         1 RES1   0.0000
    60 H14B     0.5239   6.7511   7.4197   H         1 RES1   0.0000
    61 C9B     -1.8854  11.2520  10.9311   C.ar      1 RES1   0.0000
    62 H15B    -1.6289  12.1332  11.0825   H         1 RES1   0.0000
    63 C10B    -2.9443  10.7122  11.6504   C.ar      1 RES1   0.0000
    64 H16B    -3.3888  11.2311  12.2806   H         1 RES1   0.0000
    65 C11B    -3.3377   9.4053  11.4300   C.ar      1 RES1   0.0000
    66 C12B    -2.6701   8.6328  10.5083   C.ar      1 RES1   0.0000
    67 H17B    -2.9336   7.7524  10.3642   H         1 RES1   0.0000
    68 F1       8.8444  14.1289   3.3690   F         2 RES2   0.0000
    69 S1       8.2952  15.1754   5.6651   S.o2      2 RES2   0.0000
    70 F2       7.0046  15.1754   3.4299   F         2 RES2   0.0000
    71 O3       9.6752  15.1754   5.9802   O.3       2 RES2  -1.0000
    72 O4       7.6008  13.9971   6.0169   O.2       2 RES2   0.0000
    73 C13      8.2423  15.1754   3.8670   C.3       2 RES2   0.0000
    74 F1C      8.8444  16.2218   3.3690   F         2 RES2   0.0000
    75 O4C      7.6008  16.3536   6.0169   O.2       2 RES2   0.0000
    76 N3      -0.9481  15.1754  -0.1406   N.1       3 RES3   0.0000
    77 C14      0.1639  15.1754   0.0779   C.1       3 RES3   0.0000
    78 C15      1.5597  15.1754   0.3646   C.3       3 RES3   0.0000
    79 N4       3.3403  15.1754   3.1719   N.1       4 RES4   0.0000
    80 C16      3.6448  15.1754   4.2433   C.1       4 RES4   0.0000
    81 C17      4.0600  15.1754   5.5851   C.2       4 RES4   0.0000
@<TRIPOS>BOND
     1     1     5    1
     2     2     3    1
     3     4     2    1
     4     5     2    1
     5     6     1    1
     6     7     8    1
     7     9     2    1
     8    10     9    1
     9    11     9    1
    10    12     1    1
    11    13    12    1
    12    14    15    1
    13    16    14    1
    14    17    12    1
    15    18    17    1
    16    19    17    1
    17    20     6    1
    18    21    20   ar
    19    22     5    1
    20    23    22    1
    21    24    22    1
    22    25     5    1
    23    26    25    1
    24    27    25    1
    25    28    20   ar
    26    29    28    1
    27    30    28   ar
    28    31    30    1
    29    32     7    1
    30    33    21   ar
    31    34    33    1
    32    35    36    1
    33    37    35    1
    34    38     1    1
    35    39     1    1
    36    40    41    1
    37    42    35    1
    38    43    42    1
    39    44    42    1
    40    45     1    1
    41    46    45    1
    42    47    25    1
    43    48    47    1
    44    49    47    1
    45    50    45    1
    46    51    50    1
    47    52    50    1
    48    53    39    1
    49    54    53   ar
    50    55    38    1
    51    56    55    1
    52    57    55    1
    53    58    14    1
    54    59    58    1
    55    60    58    1
    56    61    53   ar
    57    62    61    1
    58    63    61   ar
    59    64    63    1
    60    65    40    1
    61    66    54   ar
    62    67    66    1
    63     9    12    1
    64    14    17    1
    65    21    22    1
    66    30    32   ar
    67    32    33   ar
    68    35    38    1
    69    38    58    1
    70    42    45    1
    71    47    50    1
    72    54    55    1
    73    63    65   ar
    74    65    66   ar
    75    68    73    1
    76    69    71    1
    77    70    73    1
    78    72    69    2
    79    73    69    1
    80    74    73    1
    81    75    69    2
    82    76    77    3
    83    77    78    1
    84    79    80    3
    85    80    81    1
@<TRIPOS>SUBSTRUCTURE
     1 RES1        1 GROUP             0 ****  ****    0  
     2 RES2       68 GROUP             0 ****  ****    0  
     3 RES3       76 GROUP             0 ****  ****    0  
     4 RES4       79 GROUP             0 ****  ****    0  
@<TRIPOS>CRYSIN
    9.0315   20.2338    9.4674   90.0000  108.8860   90.0000    11     1
