@<TRIPOS>MOLECULE
VIHPOS
    93   106     2     0     0
SMALL
NO_CHARGES
****
Generated from the CSD

@<TRIPOS>ATOM
     1 Fe1      0.0000   0.0000   0.0000   Fe        1 RES1   0.0000
     2 N1      -0.4706   0.0282  -3.3428   N.2       1 RES1   0.0000
     3 N2      -1.3127  -0.7551  -1.2090   N.2       1 RES1   0.0000
     4 N3      -2.7593  -1.8885   0.3715   N.2       1 RES1   0.0000
     5 N4      -0.9251  -0.7829   1.5077   N.2       1 RES1   0.0000
     6 C1      -1.3298  -0.6352  -2.5811   C.2       1 RES1   0.0000
     7 C2      -2.4735  -1.3437  -3.1205   C.2       1 RES1   0.0000
     8 C3      -2.9156  -1.5429  -4.4290   C.2       1 RES1   0.0000
     9 H1      -2.4591  -1.1831  -5.1547   H         1 RES1   0.0000
    10 C4      -4.0538  -2.2913  -4.5990   C.2       1 RES1   0.0000
    11 H2      -4.3760  -2.4346  -5.4591   H         1 RES1   0.0000
    12 C5      -4.7415  -2.8423  -3.5094   C.2       1 RES1   0.0000
    13 H3      -5.5125  -3.3375  -3.6621   H         1 RES1   0.0000
    14 C6      -4.2974  -2.6641  -2.2150   C.2       1 RES1   0.0000
    15 H4      -4.7459  -3.0413  -1.4926   H         1 RES1   0.0000
    16 C7      -3.1516  -1.8979  -2.0352   C.2       1 RES1   0.0000
    17 C8      -2.3964  -1.5122  -0.8524   C.2       1 RES1   0.0000
    18 C9      -2.0553  -1.5562   1.4503   C.2       1 RES1   0.0000
    19 C10     -2.4378  -1.9980   2.7869   C.2       1 RES1   0.0000
    20 C11     -3.4798  -2.7937   3.2429   C.2       1 RES1   0.0000
    21 H5      -4.0969  -3.1671   2.6559   H         1 RES1   0.0000
    22 C12     -3.5571  -3.0067   4.6099   C.2       1 RES1   0.0000
    23 H6      -4.2471  -3.5301   4.9511   H         1 RES1   0.0000
    24 C13     -2.6328  -2.4569   5.4742   C.2       1 RES1   0.0000
    25 H7      -2.7138  -2.6225   6.3862   H         1 RES1   0.0000
    26 C14     -1.5785  -1.6620   5.0226   C.2       1 RES1   0.0000
    27 H8      -0.9573  -1.2929   5.6096   H         1 RES1   0.0000
    28 C15     -1.5027  -1.4501   3.6600   C.2       1 RES1   0.0000
    29 C16     -0.5670  -0.6877   2.8324   C.2       1 RES1   0.0000
    30 N5      -1.1317   1.6743   0.1626   N.ar      1 RES1   0.0000
    31 C17     -1.3304   2.2719   1.3485   C.ar      1 RES1   0.0000
    32 H9      -0.8721   1.9426   2.0872   H         1 RES1   0.0000
    33 C18     -2.1695   3.3373   1.5316   C.ar      1 RES1   0.0000
    34 H10     -2.2676   3.7196   2.3732   H         1 RES1   0.0000
    35 C19     -2.8653   3.8363   0.4560   C.ar      1 RES1   0.0000
    36 C20     -2.6344   3.2742  -0.7820   C.ar      1 RES1   0.0000
    37 H11     -3.0563   3.6129  -1.5392   H         1 RES1   0.0000
    38 C21     -1.7786   2.2149  -0.8817   C.ar      1 RES1   0.0000
    39 H12     -1.6338   1.8471  -1.7233   H         1 RES1   0.0000
    40 C22     -3.8321   4.8963   0.6358   C.1       1 RES1   0.0000
    41 N6      -4.6227   5.6957   0.8015   N.1       1 RES1   0.0000
    42 N1B      0.4706  -0.0282   3.3428   N.2       1 RES1   0.0000
    43 N2B      1.3127   0.7551   1.2090   N.2       1 RES1   0.0000
    44 N3B      2.7593   1.8885  -0.3715   N.2       1 RES1   0.0000
    45 N4B      0.9251   0.7829  -1.5077   N.2       1 RES1   0.0000
    46 C1B      1.3298   0.6352   2.5811   C.2       1 RES1   0.0000
    47 C2B      2.4735   1.3437   3.1205   C.2       1 RES1   0.0000
    48 C3B      2.9156   1.5429   4.4290   C.2       1 RES1   0.0000
    49 H1B      2.4591   1.1831   5.1547   H         1 RES1   0.0000
    50 C4B      4.0538   2.2913   4.5990   C.2       1 RES1   0.0000
    51 H2B      4.3760   2.4346   5.4591   H         1 RES1   0.0000
    52 C5B      4.7415   2.8423   3.5094   C.2       1 RES1   0.0000
    53 H3B      5.5125   3.3375   3.6621   H         1 RES1   0.0000
    54 C6B      4.2974   2.6641   2.2150   C.2       1 RES1   0.0000
    55 H4B      4.7459   3.0413   1.4926   H         1 RES1   0.0000
    56 C7B      3.1516   1.8979   2.0352   C.2       1 RES1   0.0000
    57 C8B      2.3964   1.5122   0.8524   C.2       1 RES1   0.0000
    58 C9B      2.0553   1.5562  -1.4503   C.2       1 RES1   0.0000
    59 C10B     2.4378   1.9980  -2.7869   C.2       1 RES1   0.0000
    60 C11B     3.4798   2.7937  -3.2429   C.2       1 RES1   0.0000
    61 H5B      4.0969   3.1671  -2.6559   H         1 RES1   0.0000
    62 C12B     3.5571   3.0067  -4.6099   C.2       1 RES1   0.0000
    63 H6B      4.2471   3.5301  -4.9511   H         1 RES1   0.0000
    64 C13B     2.6328   2.4569  -5.4742   C.2       1 RES1   0.0000
    65 H7B      2.7138   2.6225  -6.3862   H         1 RES1   0.0000
    66 C14B     1.5785   1.6620  -5.0226   C.2       1 RES1   0.0000
    67 H8B      0.9573   1.2929  -5.6096   H         1 RES1   0.0000
    68 C15B     1.5027   1.4501  -3.6600   C.2       1 RES1   0.0000
    69 C16B     0.5670   0.6877  -2.8324   C.2       1 RES1   0.0000
    70 N5B      1.1317  -1.6743  -0.1626   N.ar      1 RES1   0.0000
    71 C17B     1.3304  -2.2719  -1.3485   C.ar      1 RES1   0.0000
    72 H9B      0.8721  -1.9426  -2.0872   H         1 RES1   0.0000
    73 C18B     2.1695  -3.3373  -1.5316   C.ar      1 RES1   0.0000
    74 H10B     2.2676  -3.7196  -2.3732   H         1 RES1   0.0000
    75 C19B     2.8653  -3.8363  -0.4560   C.ar      1 RES1   0.0000
    76 C20B     2.6344  -3.2742   0.7820   C.ar      1 RES1   0.0000
    77 H11B     3.0563  -3.6129   1.5392   H         1 RES1   0.0000
    78 C21B     1.7786  -2.2149   0.8817   C.ar      1 RES1   0.0000
    79 H12B     1.6338  -1.8471   1.7233   H         1 RES1   0.0000
    80 C22B     3.8321  -4.8963  -0.6358   C.1       1 RES1   0.0000
    81 N6B      4.6227  -5.6957  -0.8015   N.1       1 RES1   0.0000
    82 N7       8.1527   1.9442  -1.3680   N.ar      2 RES2   0.0000
    83 C23      7.0074   1.8487  -0.7864   C.ar      2 RES2   0.0000
    84 H13      6.8534   2.3869  -0.0422   H         2 RES2   0.0000
    85 C24      5.9940   1.0063  -1.1893   C.ar      2 RES2   0.0000
    86 H14      5.1802   0.9936  -0.7387   H         2 RES2   0.0000
    87 C25      6.2090   0.1943  -2.2605   C.ar      2 RES2   0.0000
    88 C26      7.4243   0.2643  -2.9104   C.ar      2 RES2   0.0000
    89 H15      7.6048  -0.2611  -3.6556   H         2 RES2   0.0000
    90 C27      8.3757   1.1544  -2.4024   C.ar      2 RES2   0.0000
    91 H16      9.2081   1.1926  -2.8151   H         2 RES2   0.0000
    92 C28      5.1977  -0.7134  -2.6775   C.1       2 RES2   0.0000
    93 N8       4.4074  -1.4601  -3.0187   N.1       2 RES2   0.0000
@<TRIPOS>BOND
     1     1     3    1
     2     2     6    2
     3     3     6    1
     4     4    17    2
     5     5     1    1
     6     6     7    1
     7     7     8    1
     8     8     9    1
     9    10     8    2
    10    11    10    1
    11    12    10    1
    12    13    12    1
    13    14    12    2
    14    15    14    1
    15    16     7    2
    16    17     3    1
    17    18     4    1
    18    19    18    1
    19    20    19    1
    20    21    20    1
    21    22    20    2
    22    23    22    1
    23    24    22    1
    24    25    24    1
    25    26    24    2
    26    27    26    1
    27    28    19    2
    28    29     5    1
    29    30     1    1
    30    31    30   ar
    31    32    31    1
    32    33    31   ar
    33    34    33    1
    34    35    33   ar
    35    36    35   ar
    36    37    36    1
    37    38    30   ar
    38    39    38    1
    39    40    35    1
    40    41    40    3
    41    42    29    2
    42    43     1    1
    43    44    57    1
    44    45     1    1
    45    46    42    1
    46    47    46    2
    47    48    47    1
    48    49    48    1
    49    50    48    2
    50    51    50    1
    51    52    50    1
    52    53    52    1
    53    54    52    2
    54    55    54    1
    55    56    47    1
    56    57    43    1
    57    58    44    2
    58    59    58    1
    59    60    59    1
    60    61    60    1
    61    62    60    2
    62    63    62    1
    63    64    62    1
    64    65    64    1
    65    66    64    2
    66    67    66    1
    67    68    59    2
    68    69     2    1
    69    70     1    1
    70    71    70   ar
    71    72    71    1
    72    73    71   ar
    73    74    73    1
    74    75    73   ar
    75    76    75   ar
    76    77    76    1
    77    78    70   ar
    78    79    78    1
    79    80    75    1
    80    81    80    3
    81     5    18    2
    82    14    16    1
    83    16    17    1
    84    26    28    1
    85    28    29    1
    86    36    38   ar
    87    43    46    1
    88    45    58    1
    89    45    69    2
    90    54    56    1
    91    56    57    2
    92    66    68    1
    93    68    69    1
    94    76    78   ar
    95    82    83   ar
    96    83    84    1
    97    85    83   ar
    98    86    85    1
    99    87    85   ar
   100    88    87   ar
   101    89    88    1
   102    90    82   ar
   103    91    90    1
   104    92    87    1
   105    93    92    3
   106    88    90   ar
@<TRIPOS>SUBSTRUCTURE
     1 RES1        1 GROUP             0 ****  ****    0  
     2 RES2       82 GROUP             0 ****  ****    0  
@<TRIPOS>CRYSIN
   13.7190   15.9230   11.4460   90.0000  108.8600   90.0000    14     1
