@<TRIPOS>MOLECULE
VIMBAW
    77    84     3     0     0
SMALL
USER_CHARGES
****
Generated from the CSD

@<TRIPOS>ATOM
     1 Fe1      1.7128   9.5081   5.6846   Fe        1 RES1   2.0000
     2 N1       1.0812  11.3618   4.7876   N.ar      1 RES1   0.0000
     3 C1       0.0079  12.0284   5.2963   C.ar      1 RES1   0.0000
     4 C2      -0.3190  13.3249   4.8420   C.ar      1 RES1   0.0000
     5 H1      -1.0775  13.7805   5.1865   H         1 RES1   0.0000
     6 C3       0.4978  13.9258   3.8714   C.ar      1 RES1   0.0000
     7 H2       0.3000  14.8037   3.5671   H         1 RES1   0.0000
     8 C4       1.5964  13.2449   3.3514   C.ar      1 RES1   0.0000
     9 H3       2.1516  13.6450   2.6915   H         1 RES1   0.0000
    10 C5       1.8645  11.9445   3.8331   C.ar      1 RES1   0.0000
    11 C6      -0.7293  11.2662   6.3357   C.2       1 RES1   0.0000
    12 N2      -0.2105  10.0694   6.7199   N.2       1 RES1   0.0000
    13 N3      -1.0741   9.5584   7.6552   N.pl3     1 RES1   0.0000
    14 C7      -2.1198  10.4191   7.8522   C.2       1 RES1   0.0000
    15 H4      -2.8498  10.2837   8.4478   H         1 RES1   0.0000
    16 C8      -1.9337  11.5260   7.0313   C.2       1 RES1   0.0000
    17 H5      -2.4924  12.2906   6.9556   H         1 RES1   0.0000
    18 C9      -0.8165   8.2557   8.3047   C.3       1 RES1   0.0000
    19 H6      -0.0988   8.3567   8.9645   H         1 RES1   0.0000
    20 H7      -0.5487   7.6007   7.6269   H         1 RES1   0.0000
    21 H8      -1.6307   7.9479   8.7537   H         1 RES1   0.0000
    22 C10      2.9600  11.0690   3.3493   C.2       1 RES1   0.0000
    23 N4       3.0572   9.8339   3.9298   N.2       1 RES1   0.0000
    24 N5       4.0580   9.1927   3.2505   N.pl3     1 RES1   0.0000
    25 C11      4.5796   9.9894   2.2731   C.2       1 RES1   0.0000
    26 H9       5.2737   9.7530   1.6709   H         1 RES1   0.0000
    27 C12      3.9141  11.2059   2.3161   C.2       1 RES1   0.0000
    28 H10      4.0655  11.9668   1.7691   H         1 RES1   0.0000
    29 C13      4.3304   7.7536   3.4717   C.3       1 RES1   0.0000
    30 H11      3.8049   7.2202   2.8379   H         1 RES1   0.0000
    31 H12      4.0798   7.5108   4.3881   H         1 RES1   0.0000
    32 H13      5.2851   7.5773   3.3353   H         1 RES1   0.0000
    33 N6       2.3636   7.8803   6.9298   N.ar      1 RES1   0.0000
    34 C14      2.9575   8.1289   8.1330   C.ar      1 RES1   0.0000
    35 C15      3.3237   7.0838   9.0009   C.ar      1 RES1   0.0000
    36 H14      3.7188   7.2670   9.8451   H         1 RES1   0.0000
    37 C16      3.0905   5.7561   8.5838   C.ar      1 RES1   0.0000
    38 H15      3.3526   5.0335   9.1416   H         1 RES1   0.0000
    39 C17      2.4743   5.4977   7.3469   C.ar      1 RES1   0.0000
    40 H16      2.3091   4.6074   7.0602   H         1 RES1   0.0000
    41 C18      2.1063   6.5981   6.5416   C.ar      1 RES1   0.0000
    42 C19      3.1577   9.5748   8.4072   C.2       1 RES1   0.0000
    43 N7       2.8607  10.4639   7.4128   N.2       1 RES1   0.0000
    44 N8       3.1267  11.7034   7.9499   N.pl3     1 RES1   0.0000
    45 C20      3.5810  11.5937   9.2329   C.2       1 RES1   0.0000
    46 H17      3.8314  12.3153   9.8000   H         1 RES1   0.0000
    47 C21      3.6145  10.2418   9.5654   C.2       1 RES1   0.0000
    48 H18      3.8844   9.8539  10.3891   H         1 RES1   0.0000
    49 C22      2.9784  12.9350   7.1554   C.3       1 RES1   0.0000
    50 H19      2.0281  13.1316   7.0329   H         1 RES1   0.0000
    51 H20      3.4010  12.8115   6.2795   H         1 RES1   0.0000
    52 H21      3.4070  13.6808   7.6252   H         1 RES1   0.0000
    53 C23      1.3833   6.5148   5.2507   C.2       1 RES1   0.0000
    54 N9       0.9253   7.6916   4.7298   N.2       1 RES1   0.0000
    55 N10      0.3005   7.3516   3.5622   N.pl3     1 RES1   0.0000
    56 C24      0.3709   6.0062   3.3444   C.2       1 RES1   0.0000
    57 H22      0.0143   5.5420   2.5965   H         1 RES1   0.0000
    58 C25      1.0572   5.4336   4.4064   C.2       1 RES1   0.0000
    59 H23      1.2621   4.5151   4.5362   H         1 RES1   0.0000
    60 C26     -0.3289   8.3924   2.7314   C.3       1 RES1   0.0000
    61 H24     -1.0622   8.8110   3.2307   H         1 RES1   0.0000
    62 H25     -0.6814   7.9861   1.9123   H         1 RES1   0.0000
    63 H26      0.3387   9.0721   2.4983   H         1 RES1   0.0000
    64 P1       4.8175   3.3439   4.6386   P.3       2 RES2  -1.0000
    65 F1       4.2890   3.1832   3.1266   F         2 RES2   0.0000
    66 F2       4.3942   4.9067   4.6655   F         2 RES2   0.0000
    67 F3       5.3627   3.4930   6.1717   F         2 RES2   0.0000
    68 F4       5.2564   1.7855   4.6508   F         2 RES2   0.0000
    69 F5       6.2772   3.7628   4.0821   F         2 RES2   0.0000
    70 F6       3.3610   2.9418   5.2150   F         2 RES2   0.0000
    71 P2      -1.6097   3.9673   7.4226   P.3       3 RES3  -1.0000
    72 F7      -1.2550   5.3702   6.7212   F         3 RES3   0.0000
    73 F8      -3.1055   4.5458   7.6874   F         3 RES3   0.0000
    74 F9      -2.0134   2.5696   8.0663   F         3 RES3   0.0000
    75 F10     -0.1444   3.3779   7.1299   F         3 RES3   0.0000
    76 F11     -2.1098   3.4532   5.9801   F         3 RES3   0.0000
    77 F12     -1.1306   4.5237   8.8240   F         3 RES3   0.0000
@<TRIPOS>BOND
     1     1     2    1
     2     2     3   ar
     3     3     4   ar
     4     4     5    1
     5     6     4   ar
     6     7     6    1
     7     8     6   ar
     8     9     8    1
     9    10     2   ar
    10    11     3    1
    11    12     1    1
    12    13    12    1
    13    14    13    1
    14    15    14    1
    15    16    11    1
    16    17    16    1
    17    18    13    1
    18    19    18    1
    19    20    18    1
    20    21    18    1
    21    22    10    1
    22    23     1    1
    23    24    23    1
    24    25    24    1
    25    26    25    1
    26    27    22    1
    27    28    27    1
    28    29    24    1
    29    30    29    1
    30    31    29    1
    31    32    29    1
    32    33     1    1
    33    34    33   ar
    34    35    34   ar
    35    36    35    1
    36    37    35   ar
    37    38    37    1
    38    39    37   ar
    39    40    39    1
    40    41    33   ar
    41    42    34    1
    42    43     1    1
    43    44    43    1
    44    45    44    1
    45    46    45    1
    46    47    42    1
    47    48    47    1
    48    49    44    1
    49    50    49    1
    50    51    49    1
    51    52    49    1
    52    53    41    1
    53    54     1    1
    54    55    54    1
    55    56    55    1
    56    57    56    1
    57    58    53    1
    58    59    58    1
    59    60    55    1
    60    61    60    1
    61    62    60    1
    62    63    60    1
    63     8    10   ar
    64    11    12    2
    65    14    16    2
    66    22    23    2
    67    25    27    2
    68    39    41   ar
    69    42    43    2
    70    45    47    2
    71    53    54    2
    72    56    58    2
    73    64    65    1
    74    66    64    1
    75    67    64    1
    76    68    64    1
    77    69    64    1
    78    70    64    1
    79    71    72    1
    80    73    71    1
    81    74    71    1
    82    75    71    1
    83    76    71    1
    84    77    71    1
@<TRIPOS>SUBSTRUCTURE
     1 RES1        1 GROUP             0 ****  ****    0  
     2 RES2       64 GROUP             0 ****  ****    0  
     3 RES3       71 GROUP             0 ****  ****    0  
@<TRIPOS>CRYSIN
   34.1240   12.3128   17.6817   90.0000  114.4410   90.0000    15     1
