@<TRIPOS>MOLECULE
VIQJOW
   102   106     2     0     0
SMALL
USER_CHARGES
****
Generated from the CSD

@<TRIPOS>ATOM
     1 Fe1      6.1286   0.9428   5.0617   Fe        1 RES1   0.0000
     2 Cl1      5.1401   3.0588   6.0697   Cl        1 RES1   0.0000
     3 Cl2      7.0882  -1.0060   4.0560   Cl        1 RES1   0.0000
     4 S1       7.6952   3.3020   9.9534   S.o2      1 RES1   0.0000
     5 S2       4.5419  -1.2130   0.1565   S.o2      1 RES1   0.0000
     6 O1       7.0321   2.1008   3.8570   O.3       1 RES1  -1.0000
     7 O2       9.0409   4.5848   7.4120   O.2       1 RES1   0.0000
     8 O3      10.4421   5.8691   8.4458   O.2       1 RES1   0.0000
     9 O4       7.5804   4.7163   9.8248   O.2       1 RES1   0.0000
    10 O5       7.2771   2.6622  11.1422   O.2       1 RES1   0.0000
    11 O6       5.1433  -0.0635   6.3328   O.3       1 RES1   0.0000
    12 O7       3.4101  -2.5029   2.6753   O.2       1 RES1   0.0000
    13 O8       1.7796  -3.7338   2.0185   O.2       1 RES1   0.0000
    14 O9       4.8981  -0.5001  -1.0245   O.2       1 RES1   0.0000
    15 O10      4.6936  -2.6199   0.2112   O.2       1 RES1   0.0000
    16 N1       7.7507   1.1239   6.4033   N.2       1 RES1   0.0000
    17 N2       6.9026   2.6533   8.7368   N.pl3     1 RES1   0.0000
    18 H1       6.5835   3.1846   8.1124   H         1 RES1   0.0000
    19 N3       4.4685   0.8399   3.7596   N.2       1 RES1   0.0000
    20 N4       5.3672  -0.5993   1.3637   N.pl3     1 RES1   0.0000
    21 H2       5.7196  -1.1507   1.9511   H         1 RES1   0.0000
    22 N5       9.8912   4.7965   8.2532   N.pl3     1 RES1   0.0000
    23 N6       2.4199  -2.7001   2.0069   N.pl3     1 RES1   0.0000
    24 C1       9.4274   2.8961   9.7921   C.ar      1 RES1   0.0000
    25 C2       9.9041   1.8157  10.4781   C.ar      1 RES1   0.0000
    26 H3       9.3045   1.2799  10.9833   H         1 RES1   0.0000
    27 C3      11.2415   1.4937  10.4480   C.ar      1 RES1   0.0000
    28 H4      11.5551   0.7229  10.9068   H         1 RES1   0.0000
    29 C4      12.1249   2.2902   9.7535   C.ar      1 RES1   0.0000
    30 H5      13.0516   2.0819   9.7597   H         1 RES1   0.0000
    31 C5      11.6835   3.3695   9.0570   C.ar      1 RES1   0.0000
    32 H6      12.2917   3.9087   8.5630   H         1 RES1   0.0000
    33 C6      10.3276   3.6703   9.0776   C.ar      1 RES1   0.0000
    34 C7       6.6810   1.2231   8.6095   C.3       1 RES1   0.0000
    35 H7       5.7742   1.0738   8.2406   H         1 RES1   0.0000
    36 H8       6.7080   0.8165   9.5117   H         1 RES1   0.0000
    37 C8       7.6837   0.5157   7.7286   C.3       1 RES1   0.0000
    38 H9       8.5774   0.5536   8.1517   H         1 RES1   0.0000
    39 H10      7.4277  -0.4366   7.6391   H         1 RES1   0.0000
    40 C9       8.8524   1.6898   6.0869   C.2       1 RES1   0.0000
    41 H11      9.5370   1.6697   6.7462   H         1 RES1   0.0000
    42 C10      9.1806   2.3559   4.8513   C.ar      1 RES1   0.0000
    43 C11     10.4818   2.8817   4.7312   C.ar      1 RES1   0.0000
    44 H12     11.0930   2.7836   5.4524   H         1 RES1   0.0000
    45 C12     10.8805   3.5311   3.5953   C.ar      1 RES1   0.0000
    46 H13     11.7529   3.9009   3.5343   H         1 RES1   0.0000
    47 C13      9.9971   3.6425   2.5371   C.ar      1 RES1   0.0000
    48 H14     10.2782   4.0746   1.7382   H         1 RES1   0.0000
    49 C14      8.7232   3.1434   2.6191   C.ar      1 RES1   0.0000
    50 H15      8.1386   3.2314   1.8767   H         1 RES1   0.0000
    51 C15      8.2700   2.5040   3.7830   C.ar      1 RES1   0.0000
    52 C16      2.8151  -0.8633   0.3842   C.ar      1 RES1   0.0000
    53 C17      2.2985   0.2128  -0.3162   C.ar      1 RES1   0.0000
    54 H16      2.8737   0.7463  -0.8515   H         1 RES1   0.0000
    55 C18      0.9514   0.5202  -0.2398   C.ar      1 RES1   0.0000
    56 H17      0.6007   1.2587  -0.7234   H         1 RES1   0.0000
    57 C19      0.1251  -0.2506   0.5394   C.ar      1 RES1   0.0000
    58 H18     -0.7991  -0.0379   0.5911   H         1 RES1   0.0000
    59 C20      0.6085  -1.3166   1.2380   C.ar      1 RES1   0.0000
    60 H19      0.0263  -1.8535   1.7630   H         1 RES1   0.0000
    61 C21      1.9508  -1.6018   1.1750   C.ar      1 RES1   0.0000
    62 C22      5.5710   0.8321   1.5499   C.3       1 RES1   0.0000
    63 H20      5.5522   1.2743   0.6635   H         1 RES1   0.0000
    64 H21      6.4706   0.9769   1.9387   H         1 RES1   0.0000
    65 C23      4.5404   1.4926   2.4474   C.3       1 RES1   0.0000
    66 H22      4.7749   2.4461   2.5691   H         1 RES1   0.0000
    67 H23      3.6523   1.4503   2.0111   H         1 RES1   0.0000
    68 C24      3.3625   0.2662   4.0558   C.2       1 RES1   0.0000
    69 H24      2.6825   0.2996   3.3938   H         1 RES1   0.0000
    70 C25      3.0293  -0.4188   5.2697   C.ar      1 RES1   0.0000
    71 C26      1.7601  -0.9981   5.3765   C.ar      1 RES1   0.0000
    72 H25      1.1674  -0.9390   4.6360   H         1 RES1   0.0000
    73 C27      1.3470  -1.6363   6.4879   C.ar      1 RES1   0.0000
    74 H26      0.4819  -2.0262   6.5271   H         1 RES1   0.0000
    75 C28      2.2036  -1.7165   7.5792   C.ar      1 RES1   0.0000
    76 H27      1.9166  -2.1521   8.3749   H         1 RES1   0.0000
    77 C29      3.4616  -1.1707   7.5165   C.ar      1 RES1   0.0000
    78 H28      4.0345  -1.2275   8.2716   H         1 RES1   0.0000
    79 C30      3.9114  -0.5369   6.3614   C.ar      1 RES1   0.0000
    80 N7       5.7883   6.0039   5.2023   N.4       2 RES2   1.0000
    81 H29      5.6786   5.0827   5.2581   H         2 RES2   0.0000
    82 C31      6.2119   6.4506   6.5955   C.3       2 RES2   0.0000
    83 H30      5.5421   6.1287   7.2505   H         2 RES2   0.0000
    84 H31      7.0772   6.0240   6.8165   H         2 RES2   0.0000
    85 C32      6.3511   7.8998   6.7400   C.3       2 RES2   0.0000
    86 H32      6.7563   8.1047   7.6081   H         2 RES2   0.0000
    87 H33      5.4678   8.3197   6.6842   H         2 RES2   0.0000
    88 H34      6.9232   8.2451   6.0228   H         2 RES2   0.0000
    89 C33      4.5156   6.5230   4.7000   C.3       2 RES2   0.0000
    90 H35      4.3112   6.0830   3.8361   H         2 RES2   0.0000
    91 H36      4.6127   7.4932   4.5264   H         2 RES2   0.0000
    92 C34      3.3631   6.3114   5.6343   C.3       2 RES2   0.0000
    93 H37      2.5306   6.5809   5.1940   H         2 RES2   0.0000
    94 H38      3.4946   6.8505   6.4424   H         2 RES2   0.0000
    95 H39      3.3110   5.3634   5.8802   H         2 RES2   0.0000
    96 C35      6.8426   6.2222   4.1647   C.3       2 RES2   0.0000
    97 H40      6.6392   5.6263   3.4020   H         2 RES2   0.0000
    98 H41      6.7529   7.1524   3.8382   H         2 RES2   0.0000
    99 C36      8.2271   6.0173   4.5223   C.3       2 RES2   0.0000
   100 H42      8.7876   6.1142   3.7224   H         2 RES2   0.0000
   101 H43      8.3391   5.1173   4.8922   H         2 RES2   0.0000
   102 H44      8.4939   6.6823   5.1899   H         2 RES2   0.0000
@<TRIPOS>BOND
     1     1     2    1
     2     3     1    1
     3     4     9    2
     4     5    14    2
     5     6     1    1
     6     7    22    2
     7     8    22    2
     8    10     4    2
     9    11     1    1
    10    12    23    2
    11    13    23    2
    12    15     5    2
    13    16     1    1
    14    17     4    1
    15    18    17    1
    16    19     1    1
    17    20     5    1
    18    21    20    1
    19    22    33    1
    20    23    61    1
    21    24     4    1
    22    25    24   ar
    23    26    25    1
    24    27    25   ar
    25    28    27    1
    26    29    27   ar
    27    30    29    1
    28    31    29   ar
    29    32    31    1
    30    33    24   ar
    31    34    17    1
    32    35    34    1
    33    36    34    1
    34    37    16    1
    35    38    37    1
    36    39    37    1
    37    40    16    2
    38    41    40    1
    39    42    40    1
    40    43    42   ar
    41    44    43    1
    42    45    43   ar
    43    46    45    1
    44    47    45   ar
    45    48    47    1
    46    49    47   ar
    47    50    49    1
    48    51     6    1
    49    52     5    1
    50    53    52   ar
    51    54    53    1
    52    55    53   ar
    53    56    55    1
    54    57    55   ar
    55    58    57    1
    56    59    57   ar
    57    60    59    1
    58    61    52   ar
    59    62    20    1
    60    63    62    1
    61    64    62    1
    62    65    19    1
    63    66    65    1
    64    67    65    1
    65    68    19    2
    66    69    68    1
    67    70    68    1
    68    71    70   ar
    69    72    71    1
    70    73    71   ar
    71    74    73    1
    72    75    73   ar
    73    76    75    1
    74    77    75   ar
    75    78    77    1
    76    79    11    1
    77    31    33   ar
    78    34    37    1
    79    42    51   ar
    80    49    51   ar
    81    59    61   ar
    82    62    65    1
    83    70    79   ar
    84    77    79   ar
    85    80    81    1
    86    82    80    1
    87    83    82    1
    88    84    82    1
    89    85    82    1
    90    86    85    1
    91    87    85    1
    92    88    85    1
    93    89    80    1
    94    90    89    1
    95    91    89    1
    96    92    89    1
    97    93    92    1
    98    94    92    1
    99    95    92    1
   100    96    80    1
   101    97    96    1
   102    98    96    1
   103    99    96    1
   104   100    99    1
   105   101    99    1
   106   102    99    1
@<TRIPOS>SUBSTRUCTURE
     1 RES1        1 GROUP             0 ****  ****    0  
     2 RES2       80 GROUP             0 ****  ****    0  
@<TRIPOS>CRYSIN
    8.7806   11.1390   20.7590   90.0000   95.3500   90.0000     4     1
