@<TRIPOS>MOLECULE
VIQNEQ
    82    86     2     0     0
SMALL
NO_CHARGES
****
Generated from the CSD

@<TRIPOS>ATOM
     1 Fe1      8.5377   5.3862   3.8462   Fe        1 RES1   0.0000
     2 Cl1      8.5377   2.9813   3.8462   Cl        1 RES1   0.0000
     3 S1      12.6257   1.7282   2.2152   S.o2      1 RES1   0.0000
     4 O1       8.5490   5.5607   5.7370   O.3       1 RES1   0.0000
     5 O2      12.8500   0.8360   3.2985   O.2       1 RES1   0.0000
     6 O3      13.7255   2.4481   1.6385   O.2       1 RES1   0.0000
     7 O4      10.0593   0.1223   3.0662   O.2       1 RES1   0.0000
     8 O5      10.8930  -1.8593   2.8077   O.2       1 RES1   0.0000
     9 O6       8.5377   7.5091   3.8462   O.3       1 RES1   0.0000
    10 H1       7.9785   7.9344   3.2923   H         1 RES1   0.0000
    11 N1      10.6640   5.2976   3.8877   N.2       1 RES1   0.0000
    12 N2      11.5471   2.8096   2.6846   N.pl3     1 RES1   0.0000
    13 H2      11.1437   2.7006   3.4600   H         1 RES1   0.0000
    14 N3      10.6555  -0.7164   2.4200   N.pl3     1 RES1   0.0000
    15 C1       9.4428   5.2284   6.6447   C.ar      1 RES1   0.0000
    16 C2       9.0528   5.0955   7.9785   C.ar      1 RES1   0.0000
    17 H3       8.1389   5.2032   8.2139   H         1 RES1   0.0000
    18 C3       9.9937   4.8058   8.9662   C.ar      1 RES1   0.0000
    19 H4       9.7091   4.7168   9.8678   H         1 RES1   0.0000
    20 C4      11.3278   5.0942   4.9831   C.2       1 RES1   0.0000
    21 H5      12.2662   4.9773   4.8877   H         1 RES1   0.0000
    22 C5      10.8140   5.0278   6.3216   C.ar      1 RES1   0.0000
    23 C6      11.7205   4.7646   7.3493   C.ar      1 RES1   0.0000
    24 H6      12.6405   4.6609   7.1354   H         1 RES1   0.0000
    25 C7      11.3242   4.6490   8.6632   C.ar      1 RES1   0.0000
    26 H7      11.9584   4.4629   9.3462   H         1 RES1   0.0000
    27 C8      11.4272   5.2670   2.6339   C.3       1 RES1   0.0000
    28 H8      12.3924   5.3667   2.8369   H         1 RES1   0.0000
    29 H9      11.1540   6.0325   2.0677   H         1 RES1   0.0000
    30 C9      11.2081   3.9738   1.8677   C.3       1 RES1   0.0000
    31 H10     10.2605   3.9140   1.5877   H         1 RES1   0.0000
    32 H11     11.7693   3.9765   1.0508   H         1 RES1   0.0000
    33 C10     11.9489   0.7695   0.8877   C.ar      1 RES1   0.0000
    34 C11     12.3089   1.0739  -0.4123   C.ar      1 RES1   0.0000
    35 H12     12.8749   1.8168  -0.5800   H         1 RES1   0.0000
    36 C12     11.8505   0.3057  -1.4723   C.ar      1 RES1   0.0000
    37 H13     12.0970   0.5383  -2.3600   H         1 RES1   0.0000
    38 C13     11.0487  -0.7828  -1.2615   C.ar      1 RES1   0.0000
    39 H14     10.7351  -1.2945  -1.9985   H         1 RES1   0.0000
    40 C14     10.6959  -1.1350   0.0246   C.ar      1 RES1   0.0000
    41 H15     10.1668  -1.9072   0.1877   H         1 RES1   0.0000
    42 C15     11.1248  -0.3429   1.0754   C.ar      1 RES1   0.0000
    43 H1A      9.0970   7.9344   4.4000   H         1 RES1   0.0000
    44 S1A      4.4498   1.7282   5.4771   S.o2      1 RES1   0.0000
    45 O1A      8.5265   5.5607   1.9554   O.3       1 RES1   0.0000
    46 O2A      4.2255   0.8360   4.3939   O.2       1 RES1   0.0000
    47 O3A      3.3499   2.4481   6.0539   O.2       1 RES1   0.0000
    48 O4A      7.0161   0.1223   4.6262   O.2       1 RES1   0.0000
    49 O5A      6.1825  -1.8593   4.8847   O.2       1 RES1   0.0000
    50 N1A      6.4115   5.2976   3.8046   N.2       1 RES1   0.0000
    51 N2A      5.5283   2.8096   5.0077   N.pl3     1 RES1   0.0000
    52 H2A      5.9318   2.7006   4.2323   H         1 RES1   0.0000
    53 N3A      6.4200  -0.7164   5.2724   N.pl3     1 RES1   0.0000
    54 C1A      7.6327   5.2284   1.0477   C.ar      1 RES1   0.0000
    55 C2A      8.0227   5.0955  -0.2862   C.ar      1 RES1   0.0000
    56 H3A      8.9365   5.2032  -0.5215   H         1 RES1   0.0000
    57 C3A      7.0818   4.8058  -1.2739   C.ar      1 RES1   0.0000
    58 H4A      7.3664   4.7168  -2.1754   H         1 RES1   0.0000
    59 C4A      5.7477   5.0942   2.7093   C.2       1 RES1   0.0000
    60 H5A      4.8093   4.9773   2.8046   H         1 RES1   0.0000
    61 C5A      6.2615   5.0278   1.3708   C.ar      1 RES1   0.0000
    62 C6A      5.3550   4.7646   0.3431   C.ar      1 RES1   0.0000
    63 H6A      4.4350   4.6609   0.5569   H         1 RES1   0.0000
    64 C7A      5.7513   4.6490  -0.9708   C.ar      1 RES1   0.0000
    65 H7A      5.1171   4.4629  -1.6539   H         1 RES1   0.0000
    66 C8A      5.6483   5.2670   5.0585   C.3       1 RES1   0.0000
    67 H8A      4.6831   5.3667   4.8554   H         1 RES1   0.0000
    68 H9A      5.9215   6.0325   5.6247   H         1 RES1   0.0000
    69 C9A      5.8674   3.9738   5.8247   C.3       1 RES1   0.0000
    70 H10A     6.8150   3.9140   6.1047   H         1 RES1   0.0000
    71 H11A     5.3062   3.9765   6.6416   H         1 RES1   0.0000
    72 C10A     5.1266   0.7695   6.8047   C.ar      1 RES1   0.0000
    73 C11A     4.7666   1.0739   8.1047   C.ar      1 RES1   0.0000
    74 H12A     4.2006   1.8168   8.2724   H         1 RES1   0.0000
    75 C12A     5.2250   0.3057   9.1647   C.ar      1 RES1   0.0000
    76 H13A     4.9785   0.5383  10.0524   H         1 RES1   0.0000
    77 C13A     6.0268  -0.7828   8.9539   C.ar      1 RES1   0.0000
    78 H14A     6.3404  -1.2945   9.6909   H         1 RES1   0.0000
    79 C14A     6.3796  -1.1350   7.6678   C.ar      1 RES1   0.0000
    80 H15A     6.9087  -1.9072   7.5047   H         1 RES1   0.0000
    81 C15A     5.9507  -0.3429   6.6170   C.ar      1 RES1   0.0000
    82 O7       7.4049   9.3578   2.4554   O.3       2 RES2   0.0000
@<TRIPOS>BOND
     1     1     2    1
     2     3     5    2
     3     4     1    1
     4     6     3    2
     5     7    14    2
     6     8    14    2
     7     9     1    1
     8    10     9    1
     9    11     1    1
    10    12     3    1
    11    13    12    1
    12    14    42    1
    13    15     4    1
    14    16    15   ar
    15    17    16    1
    16    18    16   ar
    17    19    18    1
    18    20    11    2
    19    21    20    1
    20    22    15   ar
    21    23    22   ar
    22    24    23    1
    23    25    18   ar
    24    26    25    1
    25    27    11    1
    26    28    27    1
    27    29    27    1
    28    30    12    1
    29    31    30    1
    30    32    30    1
    31    33     3    1
    32    34    33   ar
    33    35    34    1
    34    36    34   ar
    35    37    36    1
    36    38    36   ar
    37    39    38    1
    38    40    38   ar
    39    41    40    1
    40    42    33   ar
    41    43     9    1
    42    44    46    2
    43    45     1    1
    44    47    44    2
    45    48    53    2
    46    49    53    2
    47    50     1    1
    48    51    44    1
    49    52    51    1
    50    53    81    1
    51    54    45    1
    52    55    54   ar
    53    56    55    1
    54    57    55   ar
    55    58    57    1
    56    59    50    2
    57    60    59    1
    58    61    54   ar
    59    62    61   ar
    60    63    62    1
    61    64    57   ar
    62    65    64    1
    63    66    50    1
    64    67    66    1
    65    68    66    1
    66    69    51    1
    67    70    69    1
    68    71    69    1
    69    72    44    1
    70    73    72   ar
    71    74    73    1
    72    75    73   ar
    73    76    75    1
    74    77    75   ar
    75    78    77    1
    76    79    77   ar
    77    80    79    1
    78    81    72   ar
    79    20    22    1
    80    23    25   ar
    81    27    30    1
    82    40    42   ar
    83    59    61    1
    84    62    64   ar
    85    66    69    1
    86    79    81   ar
@<TRIPOS>SUBSTRUCTURE
     1 RES1        1 GROUP             0 ****  ****    0  
     2 RES2       82 GROUP             0 ****  ****    0  
@<TRIPOS>CRYSIN
   18.1128   13.2904   15.5240   90.0000   97.6800   90.0000    15     1
