@<TRIPOS>MOLECULE
VIRJUC
    80    87     2     0     0
SMALL
USER_CHARGES
****
Generated from the CSD

@<TRIPOS>ATOM
     1 Fe1     -1.6067  13.3655  -2.2845   Fe        1 RES1   0.0000
     2 C1      -2.3154  14.9278  -1.3362   C.1       1 RES1   0.0000
     3 N1      -2.7177  15.8812  -0.8437   N.1       1 RES1   0.0000
     4 C2      -2.2584  14.2373  -3.9267   C.1       1 RES1   0.0000
     5 N2      -2.6231  14.6834  -4.9221   N.1       1 RES1   0.0000
     6 C3      -1.0363  12.5655  -0.5842   C.1       1 RES1   0.0000
     7 N3      -0.7078  12.0234   0.3772   N.1       1 RES1   0.0000
     8 N4       0.1808  14.1149  -2.5521   N.ar      1 RES1   0.0000
     9 C4       0.7299  15.1909  -2.0184   C.ar      1 RES1   0.0000
    10 H1       0.2202  15.7183  -1.4440   H         1 RES1   0.0000
    11 C5       2.0578  15.5671  -2.2868   C.ar      1 RES1   0.0000
    12 H2       2.4214  16.3175  -1.8742   H         1 RES1   0.0000
    13 C6       2.8128  14.8319  -3.1519   C.ar      1 RES1   0.0000
    14 H3       3.6841  15.0906  -3.3472   H         1 RES1   0.0000
    15 C7       2.2616  13.6726  -3.7493   C.ar      1 RES1   0.0000
    16 C8       2.9540  12.8297  -4.6465   C.ar      1 RES1   0.0000
    17 H4       3.8209  13.0404  -4.9073   H         1 RES1   0.0000
    18 C9       2.3499  11.7049  -5.1314   C.ar      1 RES1   0.0000
    19 H5       2.8136  11.1633  -5.7283   H         1 RES1   0.0000
    20 C10      1.0344  11.3399  -4.7479   C.ar      1 RES1   0.0000
    21 H6       0.6468  10.5627  -5.0815   H         1 RES1   0.0000
    22 C11      0.3366  12.1434  -3.8786   C.ar      1 RES1   0.0000
    23 C12      0.9432  13.3341  -3.3987   C.ar      1 RES1   0.0000
    24 N5      -0.9459  11.9494  -3.3485   N.am      1 RES1  -1.0000
    25 C13     -1.7699  10.9056  -3.6231   C.2       1 RES1   0.0000
    26 O1      -1.5695   9.9407  -4.3656   O.2       1 RES1   0.0000
    27 C14     -3.0537  11.0825  -2.8773   C.ar      1 RES1   0.0000
    28 C15     -4.0631  10.1373  -2.8470   C.ar      1 RES1   0.0000
    29 H7      -3.9543   9.3509  -3.3314   H         1 RES1   0.0000
    30 N6      -5.1926  10.3110  -2.1472   N.ar      1 RES1   0.0000
    31 C16     -5.3079  11.4632  -1.4817   C.ar      1 RES1   0.0000
    32 H8      -6.0875  11.6239  -1.0005   H         1 RES1   0.0000
    33 C17     -4.3108  12.4347  -1.4769   C.ar      1 RES1   0.0000
    34 H9      -4.4231  13.2165  -0.9873   H         1 RES1   0.0000
    35 N7      -3.1877  12.2393  -2.1826   N.ar      1 RES1   0.0000
    36 P1      -7.5263   6.0161  -3.8399   P.3       2 RES2   1.0000
    37 C18     -6.1623   5.1817  -3.0281   C.ar      2 RES2   0.0000
    38 C19     -5.5310   5.7548  -1.9323   C.ar      2 RES2   0.0000
    39 H10     -5.8449   6.5556  -1.5786   H         2 RES2   0.0000
    40 C20     -4.4292   5.1287  -1.3671   C.ar      2 RES2   0.0000
    41 H11     -4.0102   5.5064  -0.6283   H         2 RES2   0.0000
    42 C21     -3.9497   3.9397  -1.9014   C.ar      2 RES2   0.0000
    43 H12     -3.2128   3.5224  -1.5179   H         2 RES2   0.0000
    44 C22     -4.5709   3.3753  -3.0043   C.ar      2 RES2   0.0000
    45 H13     -4.2459   2.5831  -3.3657   H         2 RES2   0.0000
    46 C23     -5.6684   3.9875  -3.5618   C.ar      2 RES2   0.0000
    47 H14     -6.0858   3.6052  -4.3002   H         2 RES2   0.0000
    48 C24     -8.6811   4.7844  -4.4293   C.ar      2 RES2   0.0000
    49 C25     -9.3661   4.9785  -5.6293   C.ar      2 RES2   0.0000
    50 H15     -9.2246   5.7487  -6.1322   H         2 RES2   0.0000
    51 C26    -10.2583   4.0137  -6.0643   C.ar      2 RES2   0.0000
    52 H16    -10.7145   4.1320  -6.8660   H         2 RES2   0.0000
    53 C27    -10.4743   2.8753  -5.3117   C.ar      2 RES2   0.0000
    54 H17    -11.0568   2.2203  -5.6227   H         2 RES2   0.0000
    55 C28     -9.8312   2.6993  -4.0990   C.ar      2 RES2   0.0000
    56 H18    -10.0022   1.9403  -3.5901   H         2 RES2   0.0000
    57 C29     -8.9352   3.6479  -3.6442   C.ar      2 RES2   0.0000
    58 H19     -8.5055   3.5359  -2.8272   H         2 RES2   0.0000
    59 C30     -6.8344   6.9896  -5.1837   C.ar      2 RES2   0.0000
    60 C31     -7.6495   7.9027  -5.8502   C.ar      2 RES2   0.0000
    61 H20     -8.5382   8.0112  -5.5989   H         2 RES2   0.0000
    62 C32     -7.1168   8.6473  -6.8937   C.ar      2 RES2   0.0000
    63 H21     -7.6591   9.2425  -7.3597   H         2 RES2   0.0000
    64 C33     -5.7843   8.5111  -7.2475   C.ar      2 RES2   0.0000
    65 H22     -5.4364   9.0228  -7.9431   H         2 RES2   0.0000
    66 C34     -4.9706   7.6277  -6.5823   C.ar      2 RES2   0.0000
    67 H23     -4.0747   7.5521  -6.8159   H         2 RES2   0.0000
    68 C35     -5.4931   6.8414  -5.5517   C.ar      2 RES2   0.0000
    69 H24     -4.9530   6.2244  -5.1132   H         2 RES2   0.0000
    70 C36     -8.3683   7.1345  -2.7229   C.ar      2 RES2   0.0000
    71 C37     -9.5894   6.7955  -2.1485   C.ar      2 RES2   0.0000
    72 H25     -9.9902   5.9806  -2.3468   H         2 RES2   0.0000
    73 C38    -10.2073   7.6835  -1.2737   C.ar      2 RES2   0.0000
    74 H26    -11.0249   7.4618  -0.8896   H         2 RES2   0.0000
    75 C39     -9.6129   8.8908  -0.9728   C.ar      2 RES2   0.0000
    76 H27    -10.0306   9.4774  -0.3854   H         2 RES2   0.0000
    77 C40     -8.3986   9.2335  -1.5422   C.ar      2 RES2   0.0000
    78 H28     -7.9980  10.0464  -1.3331   H         2 RES2   0.0000
    79 C41     -7.7805   8.3622  -2.4254   C.ar      2 RES2   0.0000
    80 H29     -6.9718   8.5968  -2.8193   H         2 RES2   0.0000
@<TRIPOS>BOND
     1     1     2    1
     2     2     3    3
     3     4     1    1
     4     5     4    3
     5     6     1    1
     6     7     6    3
     7     8     1    1
     8     9     8   ar
     9    10     9    1
    10    11     9   ar
    11    12    11    1
    12    13    11   ar
    13    14    13    1
    14    15    13   ar
    15    16    15   ar
    16    17    16    1
    17    18    16   ar
    18    19    18    1
    19    20    18   ar
    20    21    20    1
    21    22    20   ar
    22    23     8   ar
    23    24     1    1
    24    25    24   am
    25    26    25    2
    26    27    25    1
    27    28    27   ar
    28    29    28    1
    29    30    28   ar
    30    31    30   ar
    31    32    31    1
    32    33    31   ar
    33    34    33    1
    34    35     1    1
    35    15    23   ar
    36    22    23   ar
    37    22    24    1
    38    27    35   ar
    39    33    35   ar
    40    36    37    1
    41    37    38   ar
    42    38    39    1
    43    40    38   ar
    44    41    40    1
    45    42    40   ar
    46    43    42    1
    47    44    42   ar
    48    45    44    1
    49    46    37   ar
    50    47    46    1
    51    48    36    1
    52    49    48   ar
    53    50    49    1
    54    51    49   ar
    55    52    51    1
    56    53    51   ar
    57    54    53    1
    58    55    53   ar
    59    56    55    1
    60    57    48   ar
    61    58    57    1
    62    59    36    1
    63    60    59   ar
    64    61    60    1
    65    62    60   ar
    66    63    62    1
    67    64    62   ar
    68    65    64    1
    69    66    64   ar
    70    67    66    1
    71    68    59   ar
    72    69    68    1
    73    70    36    1
    74    71    70   ar
    75    72    71    1
    76    73    71   ar
    77    74    73    1
    78    75    73   ar
    79    76    75    1
    80    77    75   ar
    81    78    77    1
    82    79    70   ar
    83    80    79    1
    84    44    46   ar
    85    55    57   ar
    86    66    68   ar
    87    77    79   ar
@<TRIPOS>SUBSTRUCTURE
     1 RES1        1 GROUP             0 ****  ****    0  
     2 RES2       36 GROUP             0 ****  ****    0  
@<TRIPOS>CRYSIN
    8.6018   15.0530   27.7637   90.0000  108.0480   90.0000    14     1
