@<TRIPOS>MOLECULE
VIWNUL
    85    93     1     0     0
SMALL
NO_CHARGES
****
Generated from the CSD

@<TRIPOS>ATOM
     1 Fe1      6.0317   1.2186  12.9738   Fe        1 RES1   0.0000
     2 O1       7.8696   1.6286  13.0855   O.3       1 RES1   0.0000
     3 O2       5.6173   3.0605  13.1839   O.3       1 RES1   0.0000
     4 O3       4.2034   0.8926  12.6670   O.3       1 RES1   0.0000
     5 N1       5.7899   1.1320  14.8928   N.2       1 RES1   0.0000
     6 N2       6.2571   1.4657  11.0695   N.2       1 RES1   0.0000
     7 N3       6.4129  -0.6889  12.8665   N.2       1 RES1   0.0000
     8 C1       7.9057   2.2409  15.3947   C.ar      1 RES1   0.0000
     9 C2       8.4666   2.1963  14.0985   C.ar      1 RES1   0.0000
    10 C3       9.7423   2.7580  13.9162   C.ar      1 RES1   0.0000
    11 H1      10.1427   2.7160  13.0792   H         1 RES1   0.0000
    12 C4      10.4039   3.3606  14.9389   C.ar      1 RES1   0.0000
    13 H2      11.2455   3.7241  14.7864   H         1 RES1   0.0000
    14 C5       9.8485   3.4415  16.2002   C.ar      1 RES1   0.0000
    15 H3      10.3026   3.8740  16.8864   H         1 RES1   0.0000
    16 C6       8.6176   2.8781  16.4306   C.ar      1 RES1   0.0000
    17 H4       8.2482   2.9174  17.2826   H         1 RES1   0.0000
    18 C7       6.6211   1.6640  15.7129   C.2       1 RES1   0.0000
    19 H5       6.3696   1.6793  16.6080   H         1 RES1   0.0000
    20 C8       4.5046   0.6678  15.4709   C.3       1 RES1   0.0000
    21 H6       3.7743   1.0478  14.9588   H         1 RES1   0.0000
    22 H7       4.4309   1.0010  16.3792   H         1 RES1   0.0000
    23 C9       4.3542  -0.8450  15.4908   C.ar      1 RES1   0.0000
    24 C10      3.3944  -1.4788  14.7483   C.ar      1 RES1   0.0000
    25 H8       2.8424  -0.9805  14.1880   H         1 RES1   0.0000
    26 C11      3.2360  -2.8695  14.8212   C.ar      1 RES1   0.0000
    27 H9       2.5874  -3.2939  14.3090   H         1 RES1   0.0000
    28 C12      4.0373  -3.5940  15.6499   C.ar      1 RES1   0.0000
    29 H10      3.9391  -4.5177  15.6963   H         1 RES1   0.0000
    30 C13      4.9749  -2.9805  16.4091   C.ar      1 RES1   0.0000
    31 H11      5.5087  -3.4813  16.9826   H         1 RES1   0.0000
    32 C14      5.1431  -1.6025  16.3328   C.ar      1 RES1   0.0000
    33 H12      5.7910  -1.1868  16.8549   H         1 RES1   0.0000
    34 C15      4.6979   3.2989  10.9858   C.ar      1 RES1   0.0000
    35 C16      4.8338   3.6659  12.3366   C.ar      1 RES1   0.0000
    36 C17      4.1078   4.7993  12.7808   C.ar      1 RES1   0.0000
    37 H13      4.1996   5.0864  13.6610   H         1 RES1   0.0000
    38 C18      3.2797   5.4716  11.9405   C.ar      1 RES1   0.0000
    39 H14      2.8227   6.2183  12.2554   H         1 RES1   0.0000
    40 C19      3.0979   5.0754  10.6294   C.ar      1 RES1   0.0000
    41 H15      2.4970   5.5217  10.0775   H         1 RES1   0.0000
    42 C20      3.8266   4.0082  10.1570   C.ar      1 RES1   0.0000
    43 H16      3.7365   3.7548   9.2670   H         1 RES1   0.0000
    44 C21      5.5748   2.3159  10.4156   C.2       1 RES1   0.0000
    45 H17      5.6507   2.2996   9.4891   H         1 RES1   0.0000
    46 C22      7.2898   0.6786  10.3228   C.3       1 RES1   0.0000
    47 H18      6.8437  -0.0305   9.8338   H         1 RES1   0.0000
    48 H19      7.8852   0.2621  10.9659   H         1 RES1   0.0000
    49 C23      8.1138   1.4860   9.3565   C.ar      1 RES1   0.0000
    50 C24      8.7669   2.6277   9.7841   C.ar      1 RES1   0.0000
    51 H20      8.6970   2.9055  10.6692   H         1 RES1   0.0000
    52 C25      9.5252   3.3510   8.8824   C.ar      1 RES1   0.0000
    53 H21      9.9500   4.1298   9.1609   H         1 RES1   0.0000
    54 C26      9.6623   2.9353   7.5813   C.ar      1 RES1   0.0000
    55 H22     10.1875   3.4198   6.9863   H         1 RES1   0.0000
    56 C27      9.0240   1.8145   7.1736   C.ar      1 RES1   0.0000
    57 H23      9.1080   1.5263   6.2935   H         1 RES1   0.0000
    58 C28      8.2514   1.1006   8.0570   C.ar      1 RES1   0.0000
    59 H24      7.8118   0.3355   7.7620   H         1 RES1   0.0000
    60 C29      4.5444  -1.1184  11.3935   C.ar      1 RES1   0.0000
    61 C30      3.8353   0.0634  11.7167   C.ar      1 RES1   0.0000
    62 C31      2.6576   0.3366  10.9841   C.ar      1 RES1   0.0000
    63 H25      2.1590   1.0956  11.1797   H         1 RES1   0.0000
    64 C32      2.2450  -0.5095   9.9863   C.ar      1 RES1   0.0000
    65 H26      1.4738  -0.3042   9.5090   H         1 RES1   0.0000
    66 C33      2.9519  -1.6703   9.6697   C.ar      1 RES1   0.0000
    67 H27      2.6672  -2.2292   8.9835   H         1 RES1   0.0000
    68 C34      4.0696  -1.9629  10.3908   C.ar      1 RES1   0.0000
    69 H28      4.5302  -2.7495  10.2084   H         1 RES1   0.0000
    70 C35      5.7098  -1.4851  12.1560   C.2       1 RES1   0.0000
    71 H29      5.9728  -2.3771  12.1278   H         1 RES1   0.0000
    72 C36      7.5194  -1.2217  13.7074   C.3       1 RES1   0.0000
    73 H30      7.1695  -1.3834  14.5958   H         1 RES1   0.0000
    74 H31      8.1959  -0.5300  13.7853   H         1 RES1   0.0000
    75 C37      8.1931  -2.4757  13.2383   C.ar      1 RES1   0.0000
    76 C38      7.7445  -3.7342  13.6029   C.ar      1 RES1   0.0000
    77 H32      6.9792  -3.8155  14.1251   H         1 RES1   0.0000
    78 C39      8.4186  -4.8677  13.2018   C.ar      1 RES1   0.0000
    79 H33      8.1062  -5.7076  13.4505   H         1 RES1   0.0000
    80 C40      9.5405  -4.7575  12.4427   C.ar      1 RES1   0.0000
    81 H34      9.9944  -5.5218  12.1709   H         1 RES1   0.0000
    82 C41     10.0045  -3.5173  12.0764   C.ar      1 RES1   0.0000
    83 H35     10.7712  -3.4436  11.5543   H         1 RES1   0.0000
    84 C42      9.3358  -2.3829  12.4792   C.ar      1 RES1   0.0000
    85 H36      9.6591  -1.5468  12.2355   H         1 RES1   0.0000
@<TRIPOS>BOND
     1     1     2    1
     2     2     9    1
     3     3     1    1
     4     4     1    1
     5     5     1    1
     6     6     1    1
     7     7     1    1
     8     8     9   ar
     9     9    10   ar
    10    10    11    1
    11    12    10   ar
    12    13    12    1
    13    14    12   ar
    14    15    14    1
    15    16     8   ar
    16    17    16    1
    17    18     5    2
    18    19    18    1
    19    20     5    1
    20    21    20    1
    21    22    20    1
    22    23    20    1
    23    24    23   ar
    24    25    24    1
    25    26    24   ar
    26    27    26    1
    27    28    26   ar
    28    29    28    1
    29    30    28   ar
    30    31    30    1
    31    32    23   ar
    32    33    32    1
    33    34    35   ar
    34    35     3    1
    35    36    35   ar
    36    37    36    1
    37    38    36   ar
    38    39    38    1
    39    40    38   ar
    40    41    40    1
    41    42    34   ar
    42    43    42    1
    43    44     6    2
    44    45    44    1
    45    46     6    1
    46    47    46    1
    47    48    46    1
    48    49    46    1
    49    50    49   ar
    50    51    50    1
    51    52    50   ar
    52    53    52    1
    53    54    52   ar
    54    55    54    1
    55    56    54   ar
    56    57    56    1
    57    58    49   ar
    58    59    58    1
    59    60    61   ar
    60    61     4    1
    61    62    61   ar
    62    63    62    1
    63    64    62   ar
    64    65    64    1
    65    66    64   ar
    66    67    66    1
    67    68    60   ar
    68    69    68    1
    69    70     7    2
    70    71    70    1
    71    72     7    1
    72    73    72    1
    73    74    72    1
    74    75    72    1
    75    76    75   ar
    76    77    76    1
    77    78    76   ar
    78    79    78    1
    79    80    78   ar
    80    81    80    1
    81    82    80   ar
    82    83    82    1
    83    84    75   ar
    84    85    84    1
    85     8    18    1
    86    14    16   ar
    87    30    32   ar
    88    34    44    1
    89    40    42   ar
    90    56    58   ar
    91    60    70    1
    92    66    68   ar
    93    82    84   ar
@<TRIPOS>SUBSTRUCTURE
     1 RES1        1 GROUP             0 ****  ****    0  
@<TRIPOS>CRYSIN
    9.3470   10.9248   16.7702   95.4200   96.4700   93.8800     2     1
