@<TRIPOS>MOLECULE
VOFYEW
    99   103     1     0     0
SMALL
NO_CHARGES
****
Generated from the CSD

@<TRIPOS>ATOM
     1 Fe1      3.5625   8.3111   7.9105   Fe        1 RES1   0.0000
     2 H1       4.7573   8.4834   7.9831   H         1 RES1   0.0000
     3 P1       4.1887   6.8181   6.4353   P.3       1 RES1   0.0000
     4 P2       3.9079   8.9609   9.9749   P.3       1 RES1   0.0000
     5 P3       3.7912  10.2067   6.7759   P.3       1 RES1   0.0000
     6 P4       1.3045   8.0346   7.7733   P.3       1 RES1   0.0000
     7 O1       3.5466   5.3377   6.9221   O.3       1 RES1   0.0000
     8 O2       3.3630   7.7262  10.9987   O.3       1 RES1   0.0000
     9 O3       2.6675   2.9358  10.9015   O.3       1 RES1   0.0000
    10 C1       3.4639   6.5762   8.9309   C.ar      1 RES1   0.0000
    11 C2       3.3735   5.3404   8.2943   C.ar      1 RES1   0.0000
    12 C3       3.0953   4.1500   8.9393   C.ar      1 RES1   0.0000
    13 H2       3.0304   3.3399   8.4476   H         1 RES1   0.0000
    14 C4       2.9146   4.1569  10.3210   C.ar      1 RES1   0.0000
    15 C5       3.0107   5.3646  11.0295   C.ar      1 RES1   0.0000
    16 H3       2.8856   5.3881  11.9708   H         1 RES1   0.0000
    17 C6       3.2966   6.5238  10.3200   C.ar      1 RES1   0.0000
    18 C7       3.6876   6.7141   4.6347   C.3       1 RES1   0.0000
    19 H4       2.8161   7.1994   4.5730   H         1 RES1   0.0000
    20 C8       4.6523   7.4860   3.7092   C.3       1 RES1   0.0000
    21 H5       4.2486   7.5797   2.8212   H         1 RES1   0.0000
    22 H6       5.4963   6.9950   3.6344   H         1 RES1   0.0000
    23 H7       4.8247   8.3745   4.0850   H         1 RES1   0.0000
    24 C9       3.4152   5.3193   4.0785   C.3       1 RES1   0.0000
    25 H8       2.9861   5.3958   3.2007   H         1 RES1   0.0000
    26 H9       2.8235   4.8340   4.6907   H         1 RES1   0.0000
    27 H10      4.2611   4.8321   3.9878   H         1 RES1   0.0000
    28 C10      5.9855   6.2842   6.5706   C.3       1 RES1   0.0000
    29 H11      6.1180   6.0951   7.5428   H         1 RES1   0.0000
    30 C11      6.3106   4.9601   5.8742   C.3       1 RES1   0.0000
    31 H12      7.1718   4.6219   6.1995   H         1 RES1   0.0000
    32 H13      6.3605   5.1034   4.9067   H         1 RES1   0.0000
    33 H14      5.6082   4.3048   6.0724   H         1 RES1   0.0000
    34 C12      7.0256   7.3447   6.2444   C.3       1 RES1   0.0000
    35 H15      7.9151   7.0179   6.4986   H         1 RES1   0.0000
    36 H16      6.8240   8.1643   6.7417   H         1 RES1   0.0000
    37 H17      7.0098   7.5338   5.2825   H         1 RES1   0.0000
    38 C13      3.1871  10.4075  10.9239   C.3       1 RES1   0.0000
    39 H18      3.4840  11.2386  10.4556   H         1 RES1   0.0000
    40 C14      3.6327  10.5336  12.3765   C.3       1 RES1   0.0000
    41 H19      3.0914  11.2157  12.8262   H         1 RES1   0.0000
    42 H20      4.5764  10.7934  12.4074   H         1 RES1   0.0000
    43 H21      3.5153   9.6719  12.8308   H         1 RES1   0.0000
    44 C15      1.6688  10.3788  10.8547   C.3       1 RES1   0.0000
    45 H22      1.3080  11.2080  11.2352   H         1 RES1   0.0000
    46 H23      1.3317   9.6126  11.3651   H         1 RES1   0.0000
    47 H24      1.3857  10.2986   9.9199   H         1 RES1   0.0000
    48 C16      5.6799   9.0127  10.5967   C.3       1 RES1   0.0000
    49 H25      5.6345   9.0432  11.5960   H         1 RES1   0.0000
    50 C17      6.4069  10.2756  10.1471   C.3       1 RES1   0.0000
    51 H26      7.3329  10.2508  10.4686   H         1 RES1   0.0000
    52 H27      5.9538  11.0609  10.5154   H         1 RES1   0.0000
    53 H28      6.4025  10.3234   9.1684   H         1 RES1   0.0000
    54 C18      6.4782   7.7707  10.2303   C.3       1 RES1   0.0000
    55 H29      7.3030   7.7459  10.7594   H         1 RES1   0.0000
    56 H30      6.7018   7.7956   9.2768   H         1 RES1   0.0000
    57 H31      5.9438   6.9721  10.4191   H         1 RES1   0.0000
    58 C19      2.7956  10.5298   5.2367   C.3       1 RES1   0.0000
    59 H32      3.1312  11.3380   4.7945   H         1 RES1   0.0000
    60 H33      1.8540  10.6578   5.4769   H         1 RES1   0.0000
    61 H34      2.8770   9.7674   4.6281   H         1 RES1   0.0000
    62 C20      5.4629  10.5603   6.0686   C.3       1 RES1   0.0000
    63 H35      5.4712  11.4603   5.6826   H         1 RES1   0.0000
    64 H36      5.6681   9.9031   5.3703   H         1 RES1   0.0000
    65 H37      6.1370  10.5030   6.7781   H         1 RES1   0.0000
    66 C21      3.5051  11.8080   7.6727   C.ar      1 RES1   0.0000
    67 C22      4.5588  12.5665   8.1700   C.ar      1 RES1   0.0000
    68 H38      5.4535  12.3182   7.9709   H         1 RES1   0.0000
    69 C23      4.3149  13.6824   8.9562   C.ar      1 RES1   0.0000
    70 H39      5.0444  14.1792   9.3076   H         1 RES1   0.0000
    71 C24      3.0244  14.0760   9.2310   C.ar      1 RES1   0.0000
    72 H40      2.8629  14.8364   9.7760   H         1 RES1   0.0000
    73 C25      1.9629  13.3557   8.7084   C.ar      1 RES1   0.0000
    74 H41      1.0702  13.6346   8.8730   H         1 RES1   0.0000
    75 C26      2.2072  12.2284   7.9438   C.ar      1 RES1   0.0000
    76 H42      1.4750  11.7316   7.5979   H         1 RES1   0.0000
    77 C27      0.0761   9.3929   7.4540   C.3       1 RES1   0.0000
    78 H43     -0.8155   9.0031   7.3306   H         1 RES1   0.0000
    79 H44      0.3331   9.8820   6.6454   H         1 RES1   0.0000
    80 H45      0.0616  10.0062   8.2177   H         1 RES1   0.0000
    81 C28      0.4397   7.3294   9.2469   C.3       1 RES1   0.0000
    82 H46     -0.5238   7.2854   9.0702   H         1 RES1   0.0000
    83 H47      0.6031   7.8988  10.0265   H         1 RES1   0.0000
    84 H48      0.7802   6.4275   9.4254   H         1 RES1   0.0000
    85 C29      0.6663   6.8555   6.4734   C.ar      1 RES1   0.0000
    86 C30      0.3496   7.3160   5.2002   C.ar      1 RES1   0.0000
    87 H49      0.4259   8.2427   5.0039   H         1 RES1   0.0000
    88 C31     -0.0725   6.4466   4.2206   C.ar      1 RES1   0.0000
    89 H50     -0.2858   6.7772   3.3559   H         1 RES1   0.0000
    90 C32     -0.1867   5.0920   4.4870   C.ar      1 RES1   0.0000
    91 H51     -0.4648   4.4920   3.8055   H         1 RES1   0.0000
    92 C33      0.1056   4.6200   5.7480   C.ar      1 RES1   0.0000
    93 H52      0.0274   3.6933   5.9377   H         1 RES1   0.0000
    94 C34      0.5140   5.4989   6.7389   C.ar      1 RES1   0.0000
    95 H53      0.6917   5.1703   7.6119   H         1 RES1   0.0000
    96 C35      2.3257   2.9195  12.2784   C.3       1 RES1   0.0000
    97 H54      2.2119   1.9928  12.5766   H         1 RES1   0.0000
    98 H55      1.4879   3.4106  12.4121   H         1 RES1   0.0000
    99 H56      3.0399   3.3456  12.7972   H         1 RES1   0.0000
@<TRIPOS>BOND
     1     1     2    1
     2     3     1    1
     3     4     1    1
     4     5     1    1
     5     6     1    1
     6     7     3    1
     7     8     4    1
     8     9    14    1
     9    10     1    1
    10    11     7    1
    11    12    11   ar
    12    13    12    1
    13    14    12   ar
    14    15    14   ar
    15    16    15    1
    16    17     8    1
    17    18     3    1
    18    19    18    1
    19    20    18    1
    20    21    20    1
    21    22    20    1
    22    23    20    1
    23    24    18    1
    24    25    24    1
    25    26    24    1
    26    27    24    1
    27    28     3    1
    28    29    28    1
    29    30    28    1
    30    31    30    1
    31    32    30    1
    32    33    30    1
    33    34    28    1
    34    35    34    1
    35    36    34    1
    36    37    34    1
    37    38     4    1
    38    39    38    1
    39    40    38    1
    40    41    40    1
    41    42    40    1
    42    43    40    1
    43    44    38    1
    44    45    44    1
    45    46    44    1
    46    47    44    1
    47    48     4    1
    48    49    48    1
    49    50    48    1
    50    51    50    1
    51    52    50    1
    52    53    50    1
    53    54    48    1
    54    55    54    1
    55    56    54    1
    56    57    54    1
    57    58     5    1
    58    59    58    1
    59    60    58    1
    60    61    58    1
    61    62     5    1
    62    63    62    1
    63    64    62    1
    64    65    62    1
    65    66     5    1
    66    67    66   ar
    67    68    67    1
    68    69    67   ar
    69    70    69    1
    70    71    69   ar
    71    72    71    1
    72    73    71   ar
    73    74    73    1
    74    75    66   ar
    75    76    75    1
    76    77     6    1
    77    78    77    1
    78    79    77    1
    79    80    77    1
    80    81     6    1
    81    82    81    1
    82    83    81    1
    83    84    81    1
    84    85     6    1
    85    86    85   ar
    86    87    86    1
    87    88    86   ar
    88    89    88    1
    89    90    88   ar
    90    91    90    1
    91    92    90   ar
    92    93    92    1
    93    94    85   ar
    94    95    94    1
    95    96     9    1
    96    97    96    1
    97    98    96    1
    98    99    96    1
    99    10    11   ar
   100    10    17   ar
   101    15    17   ar
   102    73    75   ar
   103    92    94   ar
@<TRIPOS>SUBSTRUCTURE
     1 RES1        1 GROUP             0 ****  ****    0  
@<TRIPOS>CRYSIN
   10.1486   19.1068   10.4402   90.0000  116.4440   90.0000     4     1
