@<TRIPOS>MOLECULE
VOJDOQ
   121   129     1     0     0
SMALL
NO_CHARGES
****
Generated from the CSD

@<TRIPOS>ATOM
     1 Fe1     10.5774   3.6672   4.7040   Fe        1 RES1   0.0000
     2 Cl1     10.5774   1.2767   4.7040   Cl        1 RES1   0.0000
     3 P1      12.0118   3.7884   2.9831   P.3       1 RES1   0.0000
     4 N1      12.9595   3.3731   6.8273   N.pl3     1 RES1   0.0000
     5 N2      12.3739   5.3537   6.1136   N.pl3     1 RES1   0.0000
     6 C1      12.0481   3.9973   5.9790   C.3       1 RES1   0.0000
     7 C2      13.8235   4.3074   7.4100   C.ar      1 RES1   0.0000
     8 C3      14.9085   4.1198   8.2556   C.ar      1 RES1   0.0000
     9 H1      15.1859   3.2509   8.5214   H         1 RES1   0.0000
    10 C4      15.5685   5.2540   8.6944   C.ar      1 RES1   0.0000
    11 H2      16.3046   5.1648   9.2884   H         1 RES1   0.0000
    12 C5      15.1763   6.5206   8.2836   C.ar      1 RES1   0.0000
    13 H3      15.6461   7.2793   8.6108   H         1 RES1   0.0000
    14 C6      14.1174   6.7093   7.4085   C.ar      1 RES1   0.0000
    15 H4      13.8601   7.5768   7.1185   H         1 RES1   0.0000
    16 C7      13.4457   5.5629   6.9727   C.ar      1 RES1   0.0000
    17 C8      11.5363   6.2624   5.4138   C.ar      1 RES1   0.0000
    18 C9      11.5714   7.6548   5.4063   C.ar      1 RES1   0.0000
    19 H5      12.2536   8.1294   5.8670   H         1 RES1   0.0000
    20 C10     10.5774   8.3312   4.7040   C.ar      1 RES1   0.0000
    21 H6      10.5774   9.2816   4.7040   H         1 RES1   0.0000
    22 C11     10.5774   5.5431   4.7040   C.ar      1 RES1   0.0000
    23 C12     13.0086   1.9871   7.2788   C.ar      1 RES1   0.0000
    24 C13     12.6235   1.6947   8.6054   C.ar      1 RES1   0.0000
    25 C14     12.6967   0.3553   9.0233   C.ar      1 RES1   0.0000
    26 H7      12.4020   0.1254   9.8968   H         1 RES1   0.0000
    27 C15     13.1832  -0.6289   8.2007   C.ar      1 RES1   0.0000
    28 H8      13.1999  -1.5312   8.4975   H         1 RES1   0.0000
    29 C16     13.6456  -0.3100   6.9484   C.ar      1 RES1   0.0000
    30 H9      14.0193  -0.9916   6.4025   H         1 RES1   0.0000
    31 C17     13.5783   0.9974   6.4602   C.ar      1 RES1   0.0000
    32 C18     12.2056   2.7164   9.6595   C.3       1 RES1   0.0000
    33 H10     12.1727   3.6200   9.2317   H         1 RES1   0.0000
    34 C19     13.2101   2.7649  10.8374   C.3       1 RES1   0.0000
    35 H11     14.1058   2.9669  10.4949   H         1 RES1   0.0000
    36 H12     12.9378   3.4616  11.4706   H         1 RES1   0.0000
    37 H13     13.2223   1.8969  11.2921   H         1 RES1   0.0000
    38 C20     10.8332   2.4019  10.2324   C.3       1 RES1   0.0000
    39 H14     10.5969   3.0754  10.9037   H         1 RES1   0.0000
    40 H15     10.1684   2.4111   9.5123   H         1 RES1   0.0000
    41 H16     10.8491   1.5155  10.6505   H         1 RES1   0.0000
    42 C21     14.1847   1.3284   5.1221   C.3       1 RES1   0.0000
    43 H17     13.5886   1.9934   4.6728   H         1 RES1   0.0000
    44 C22     15.5607   1.9827   5.3077   C.3       1 RES1   0.0000
    45 H18     15.9436   2.1918   4.4303   H         1 RES1   0.0000
    46 H19     15.4626   2.8077   5.8268   H         1 RES1   0.0000
    47 H20     16.1542   1.3651   5.7843   H         1 RES1   0.0000
    48 C23     14.3087   0.1125   4.1986   C.3       1 RES1   0.0000
    49 H21     14.7080   0.3888   3.3473   H         1 RES1   0.0000
    50 H22     14.8778  -0.5631   4.6226   H         1 RES1   0.0000
    51 H23     13.4194  -0.2651   4.0350   H         1 RES1   0.0000
    52 C24     11.5138   4.8524   1.5721   C.3       1 RES1   0.0000
    53 H24     11.2620   5.7389   1.9045   H         1 RES1   0.0000
    54 H25     12.2638   4.9381   0.9473   H         1 RES1   0.0000
    55 H26     10.7496   4.4468   1.1114   H         1 RES1   0.0000
    56 C25     12.4211   2.2353   2.1123   C.3       1 RES1   0.0000
    57 H27     11.5955   1.7517   1.9016   H         1 RES1   0.0000
    58 H28     12.8993   2.4428   1.2824   H         1 RES1   0.0000
    59 H29     12.9885   1.6792   2.6859   H         1 RES1   0.0000
    60 C26     13.6663   4.5247   3.2787   C.3       1 RES1   0.0000
    61 H30     13.5645   5.3783   3.7496   H         1 RES1   0.0000
    62 H31     14.2035   3.9129   3.8240   H         1 RES1   0.0000
    63 H32     14.1143   4.6766   2.4205   H         1 RES1   0.0000
    64 N1A      8.1953   3.3731   2.5808   N.pl3     1 RES1   0.0000
    65 N2A      8.7810   5.3537   3.2945   N.pl3     1 RES1   0.0000
    66 C1A      9.1068   3.9973   3.4291   C.3       1 RES1   0.0000
    67 C2A      7.3313   4.3074   1.9981   C.ar      1 RES1   0.0000
    68 C3A      6.2463   4.1198   1.1525   C.ar      1 RES1   0.0000
    69 H1A      5.9690   3.2509   0.8866   H         1 RES1   0.0000
    70 C4A      5.5863   5.2540   0.7137   C.ar      1 RES1   0.0000
    71 H2A      4.8502   5.1648   0.1197   H         1 RES1   0.0000
    72 C5A      5.9785   6.5206   1.1245   C.ar      1 RES1   0.0000
    73 H3A      5.5087   7.2793   0.7973   H         1 RES1   0.0000
    74 C6A      7.0374   6.7093   1.9996   C.ar      1 RES1   0.0000
    75 H4A      7.2947   7.5768   2.2896   H         1 RES1   0.0000
    76 C7A      7.7091   5.5629   2.4354   C.ar      1 RES1   0.0000
    77 C8A      9.6185   6.2624   3.9943   C.ar      1 RES1   0.0000
    78 C9A      9.5834   7.6548   4.0018   C.ar      1 RES1   0.0000
    79 H5A      8.9012   8.1294   3.5411   H         1 RES1   0.0000
    80 C12A     8.1462   1.9871   2.1292   C.ar      1 RES1   0.0000
    81 C13A     8.5313   1.6947   0.8027   C.ar      1 RES1   0.0000
    82 C14A     8.4581   0.3553   0.3848   C.ar      1 RES1   0.0000
    83 H7A      8.7528   0.1254  -0.4888   H         1 RES1   0.0000
    84 C15A     7.9717  -0.6289   1.2074   C.ar      1 RES1   0.0000
    85 H8A      7.9549  -1.5312   0.9106   H         1 RES1   0.0000
    86 C16A     7.5092  -0.3100   2.4596   C.ar      1 RES1   0.0000
    87 H9A      7.1355  -0.9916   3.0056   H         1 RES1   0.0000
    88 C17A     7.5765   0.9974   2.9479   C.ar      1 RES1   0.0000
    89 C18A     8.9492   2.7164  -0.2514   C.3       1 RES1   0.0000
    90 H10A     8.9821   3.6200   0.1764   H         1 RES1   0.0000
    91 C19A     7.9448   2.7649  -1.4293   C.3       1 RES1   0.0000
    92 H11A     7.0490   2.9669  -1.0868   H         1 RES1   0.0000
    93 H12A     8.2171   3.4616  -2.0625   H         1 RES1   0.0000
    94 H13A     7.9325   1.8969  -1.8840   H         1 RES1   0.0000
    95 C20A    10.3217   2.4019  -0.8243   C.3       1 RES1   0.0000
    96 H14A    10.5580   3.0754  -1.4956   H         1 RES1   0.0000
    97 H15A    10.9864   2.4111  -0.1042   H         1 RES1   0.0000
    98 H16A    10.3057   1.5155  -1.2425   H         1 RES1   0.0000
    99 C21A     6.9701   1.3284   4.2859   C.3       1 RES1   0.0000
   100 H17A     7.5662   1.9934   4.7353   H         1 RES1   0.0000
   101 C22A     5.5941   1.9827   4.1004   C.3       1 RES1   0.0000
   102 H18A     5.2112   2.1918   4.9778   H         1 RES1   0.0000
   103 H19A     5.6922   2.8077   3.5813   H         1 RES1   0.0000
   104 H20A     5.0006   1.3651   3.6238   H         1 RES1   0.0000
   105 C23A     6.8461   0.1125   5.2094   C.3       1 RES1   0.0000
   106 H21A     6.4468   0.3888   6.0608   H         1 RES1   0.0000
   107 H22A     6.2770  -0.5631   4.7855   H         1 RES1   0.0000
   108 H23A     7.7354  -0.2651   5.3731   H         1 RES1   0.0000
   109 P1A      9.1430   3.7884   6.4250   P.3       1 RES1   0.0000
   110 C24A     9.6410   4.8524   7.8360   C.3       1 RES1   0.0000
   111 H24A     9.8928   5.7389   7.5036   H         1 RES1   0.0000
   112 H25A     8.8910   4.9381   8.4608   H         1 RES1   0.0000
   113 H26A    10.4052   4.4468   8.2967   H         1 RES1   0.0000
   114 C25A     8.7337   2.2353   7.2958   C.3       1 RES1   0.0000
   115 H27A     9.5594   1.7517   7.5065   H         1 RES1   0.0000
   116 H28A     8.2555   2.4428   8.1257   H         1 RES1   0.0000
   117 H29A     8.1663   1.6792   6.7222   H         1 RES1   0.0000
   118 C26A     7.4885   4.5247   6.1294   C.3       1 RES1   0.0000
   119 H30A     7.5903   5.3783   5.6585   H         1 RES1   0.0000
   120 H31A     6.9513   3.9129   5.5840   H         1 RES1   0.0000
   121 H32A     7.0405   4.6766   6.9876   H         1 RES1   0.0000
@<TRIPOS>BOND
     1     1     2    1
     2     3     1    1
     3     4     6    1
     4     5     6    1
     5     6     1    1
     6     7     4    1
     7     8     7   ar
     8     9     8    1
     9    10     8   ar
    10    11    10    1
    11    12    10   ar
    12    13    12    1
    13    14    12   ar
    14    15    14    1
    15    16     5    1
    16    17     5    1
    17    18    17   ar
    18    19    18    1
    19    20    18   ar
    20    21    20    1
    21    22     1    1
    22    23     4    1
    23    24    23   ar
    24    25    24   ar
    25    26    25    1
    26    27    25   ar
    27    28    27    1
    28    29    27   ar
    29    30    29    1
    30    31    23   ar
    31    32    24    1
    32    33    32    1
    33    34    32    1
    34    35    34    1
    35    36    34    1
    36    37    34    1
    37    38    32    1
    38    39    38    1
    39    40    38    1
    40    41    38    1
    41    42    31    1
    42    43    42    1
    43    44    42    1
    44    45    44    1
    45    46    44    1
    46    47    44    1
    47    48    42    1
    48    49    48    1
    49    50    48    1
    50    51    48    1
    51    52     3    1
    52    53    52    1
    53    54    52    1
    54    55    52    1
    55    56     3    1
    56    57    56    1
    57    58    56    1
    58    59    56    1
    59    60     3    1
    60    61    60    1
    61    62    60    1
    62    63    60    1
    63    64    66    1
    64    65    66    1
    65    66     1    1
    66    67    64    1
    67    68    67   ar
    68    69    68    1
    69    70    68   ar
    70    71    70    1
    71    72    70   ar
    72    73    72    1
    73    74    72   ar
    74    75    74    1
    75    76    65    1
    76    77    22   ar
    77    78    20   ar
    78    79    78    1
    79    80    64    1
    80    81    80   ar
    81    82    81   ar
    82    83    82    1
    83    84    82   ar
    84    85    84    1
    85    86    84   ar
    86    87    86    1
    87    88    80   ar
    88    89    81    1
    89    90    89    1
    90    91    89    1
    91    92    91    1
    92    93    91    1
    93    94    91    1
    94    95    89    1
    95    96    95    1
    96    97    95    1
    97    98    95    1
    98    99    88    1
    99   100    99    1
   100   101    99    1
   101   102   101    1
   102   103   101    1
   103   104   101    1
   104   105    99    1
   105   106   105    1
   106   107   105    1
   107   108   105    1
   108   109     1    1
   109   110   109    1
   110   111   110    1
   111   112   110    1
   112   113   110    1
   113   114   109    1
   114   115   114    1
   115   116   114    1
   116   117   114    1
   117   118   109    1
   118   119   118    1
   119   120   118    1
   120   121   118    1
   121     7    16   ar
   122    14    16   ar
   123    17    22   ar
   124    29    31   ar
   125    65    77    1
   126    67    76   ar
   127    74    76   ar
   128    77    78   ar
   129    86    88   ar
@<TRIPOS>SUBSTRUCTURE
     1 RES1        1 GROUP             0 ****  ****    0  
@<TRIPOS>CRYSIN
   21.1714   11.0332   18.8162   90.0000   90.1010   90.0000    15     1
