@<TRIPOS>MOLECULE
VOKWEB
   117   122     2     0     0
SMALL
NO_CHARGES
****
Generated from the CSD

@<TRIPOS>ATOM
     1 Fe1     14.0248   7.1060   6.0362   Fe        1 RES1   0.0000
     2 Si1     13.4357   8.7843   8.8136   Si        1 RES1   0.0000
     3 Si2     11.6023   6.4540   8.1643   Si        1 RES1   0.0000
     4 Si3     11.2473   9.9986   3.9839   Si        1 RES1   0.0000
     5 O1      12.1094   7.8231   8.9094   O.3       1 RES1   0.0000
     6 N1      12.8858   8.2043   5.3830   N.2       1 RES1   0.0000
     7 N2      11.9929   8.9951   5.2038   N.2       1 RES1   0.0000
     8 N3      15.5509   6.2418   3.4190   N.pl3     1 RES1   0.0000
     9 N4      16.2819   5.2985   5.1942   N.pl3     1 RES1   0.0000
    10 C1      15.3797   6.2347   4.7732   C.3       1 RES1   0.0000
    11 C2      15.4542   8.4802   6.7138   C.2       1 RES1   0.0000
    12 H1      16.4030   8.2120   6.6257   H         1 RES1   0.0000
    13 H2      15.2903   9.4324   6.4974   H         1 RES1   0.0000
    14 C3      14.7482   7.9530   7.8182   C.2       1 RES1   0.0000
    15 H3      15.2953   7.3123   8.3570   H         1 RES1   0.0000
    16 C4      12.9212   5.3426   5.8245   C.2       1 RES1   0.0000
    17 H4      12.0416   5.4229   5.3775   H         1 RES1   0.0000
    18 H5      13.4269   4.5339   5.5597   H         1 RES1   0.0000
    19 C5      12.9695   5.6987   7.1948   C.2       1 RES1   0.0000
    20 H6      13.5634   5.1064   7.7390   H         1 RES1   0.0000
    21 C6      12.9551  10.4471   8.1414   C.3       1 RES1   0.0000
    22 H7      12.7219  10.3609   7.1935   H         1 RES1   0.0000
    23 H8      13.7069  11.0679   8.2380   H         1 RES1   0.0000
    24 H9      12.1827  10.7891   8.6382   H         1 RES1   0.0000
    25 C7      14.0109   9.0189  10.5732   C.3       1 RES1   0.0000
    26 H10     13.3202   9.4923  11.0823   H         1 RES1   0.0000
    27 H11     14.8386   9.5433  10.5792   H         1 RES1   0.0000
    28 H12     14.1758   8.1435  10.9823   H         1 RES1   0.0000
    29 C8      11.0613   5.2914   9.5239   C.3       1 RES1   0.0000
    30 H13     11.8179   5.1113  10.1199   H         1 RES1   0.0000
    31 H14     10.7484   4.4508   9.1295   H         1 RES1   0.0000
    32 H15     10.3335   5.7033  10.0352   H         1 RES1   0.0000
    33 C9      10.1182   6.8457   7.1282   C.3       1 RES1   0.0000
    34 H16      9.4069   7.2045   7.6988   H         1 RES1   0.0000
    35 H17      9.8031   6.0297   6.6869   H         1 RES1   0.0000
    36 H18     10.3598   7.5114   6.4503   H         1 RES1   0.0000
    37 C10     16.5085   5.3170   3.0318   C.2       1 RES1   0.0000
    38 H19     16.7855   5.1325   2.1421   H         1 RES1   0.0000
    39 C11     16.9684   4.7334   4.1391   C.2       1 RES1   0.0000
    40 H20     17.6376   4.0614   4.1911   H         1 RES1   0.0000
    41 C12     14.8290   7.0846   2.4591   C.3       1 RES1   0.0000
    42 H21     14.2717   7.7366   2.9729   H         1 RES1   0.0000
    43 C13     13.9005   6.2356   1.6038   C.3       1 RES1   0.0000
    44 H22     13.2081   5.8281   2.1821   H         1 RES1   0.0000
    45 H23     14.4204   5.5027   1.1888   H         1 RES1   0.0000
    46 C14     13.2218   7.0502   0.5086   C.3       1 RES1   0.0000
    47 H24     12.6742   6.4487  -0.0561   H         1 RES1   0.0000
    48 H25     12.6170   7.7164   0.9215   H         1 RES1   0.0000
    49 C15     14.2425   7.7652  -0.3589   C.3       1 RES1   0.0000
    50 H26     13.7744   8.3119  -1.0385   H         1 RES1   0.0000
    51 H27     14.8005   7.0980  -0.8317   H         1 RES1   0.0000
    52 C16     15.1292   8.6601   0.4912   C.3       1 RES1   0.0000
    53 H28     14.5807   9.3799   0.8916   H         1 RES1   0.0000
    54 H29     15.8156   9.0823  -0.0839   H         1 RES1   0.0000
    55 C17     15.8168   7.8719   1.6014   C.3       1 RES1   0.0000
    56 H30     16.3192   8.4987   2.1798   H         1 RES1   0.0000
    57 H31     16.4670   7.2439   1.1979   H         1 RES1   0.0000
    58 C18     16.5234   4.9405   6.5957   C.3       1 RES1   0.0000
    59 H32     15.8716   5.4509   7.1568   H         1 RES1   0.0000
    60 C19     17.9251   5.3487   7.0268   C.3       1 RES1   0.0000
    61 H33     18.0449   6.3211   6.8850   H         1 RES1   0.0000
    62 H34     18.5932   4.8726   6.4728   H         1 RES1   0.0000
    63 C20     18.1523   5.0164   8.4953   C.3       1 RES1   0.0000
    64 H35     19.0808   5.2517   8.7461   H         1 RES1   0.0000
    65 H36     17.5381   5.5560   9.0538   H         1 RES1   0.0000
    66 C21     17.9140   3.5379   8.7631   C.3       1 RES1   0.0000
    67 H37     18.0173   3.3568   9.7308   H         1 RES1   0.0000
    68 H38     18.5889   3.0013   8.2765   H         1 RES1   0.0000
    69 C22     16.5187   3.1262   8.3152   C.3       1 RES1   0.0000
    70 H39     15.8442   3.5953   8.8677   H         1 RES1   0.0000
    71 H40     16.4032   2.1527   8.4522   H         1 RES1   0.0000
    72 C23     16.2907   3.4612   6.8465   C.3       1 RES1   0.0000
    73 H41     16.9088   2.9287   6.2857   H         1 RES1   0.0000
    74 H42     15.3636   3.2238   6.5928   H         1 RES1   0.0000
    75 C24     12.6240  10.4656   2.7860   C.3       1 RES1   0.0000
    76 H43     12.8522   9.6300   2.2861   H         1 RES1   0.0000
    77 C25     13.8988  10.8905   3.5036   C.3       1 RES1   0.0000
    78 H44     13.7268  11.7054   4.0202   H         1 RES1   0.0000
    79 H45     14.6025  11.0645   2.8440   H         1 RES1   0.0000
    80 H46     14.1875  10.1753   4.1082   H         1 RES1   0.0000
    81 C26     12.2828  11.5112   1.7293   C.3       1 RES1   0.0000
    82 H47     11.4475  11.2629   1.2812   H         1 RES1   0.0000
    83 H48     13.0062  11.5576   1.0698   H         1 RES1   0.0000
    84 H49     12.1756  12.3862   2.1582   H         1 RES1   0.0000
    85 C27      9.8877   8.9448   3.2101   C.3       1 RES1   0.0000
    86 H50      9.1006   9.0004   3.8243   H         1 RES1   0.0000
    87 C28      9.4087   9.4385   1.8438   C.3       1 RES1   0.0000
    88 H51      9.1820  10.3905   1.9017   H         1 RES1   0.0000
    89 H52      8.6164   8.9303   1.5718   H         1 RES1   0.0000
    90 H53     10.1209   9.3124   1.1826   H         1 RES1   0.0000
    91 C29     10.2668   7.4628   3.1212   C.3       1 RES1   0.0000
    92 H54     11.0569   7.3614   2.5506   H         1 RES1   0.0000
    93 H55      9.5199   6.9571   2.7379   H         1 RES1   0.0000
    94 H56     10.4656   7.1222   4.0183   H         1 RES1   0.0000
    95 C30     10.5454  11.4407   4.9606   C.3       1 RES1   0.0000
    96 H57     11.3245  11.9206   5.3640   H         1 RES1   0.0000
    97 C31      9.7843  12.4695   4.1134   C.3       1 RES1   0.0000
    98 H58     10.3593  12.7816   3.3837   H         1 RES1   0.0000
    99 H59      9.5284  13.2306   4.6757   H         1 RES1   0.0000
   100 H60      8.9791  12.0542   3.7401   H         1 RES1   0.0000
   101 C32      9.6695  10.9708   6.1228   C.3       1 RES1   0.0000
   102 H61      8.8408  10.5830   5.7713   H         1 RES1   0.0000
   103 H62      9.4548  11.7331   6.6994   H         1 RES1   0.0000
   104 H63     10.1519  10.2937   6.6423   H         1 RES1   0.0000
   105 O2      19.2244   2.0224   5.0120   O.3       2 RES2   0.0000
   106 C33     18.3593   1.1981   4.2335   C.3       2 RES2   0.0000
   107 H64     18.3818   1.4794   3.2846   H         2 RES2   0.0000
   108 H65     17.4284   1.2739   4.5616   H         2 RES2   0.0000
   109 C34     18.8378  -0.2063   4.3646   C.3       2 RES2   0.0000
   110 H66     19.4201  -0.4551   3.6036   H         2 RES2   0.0000
   111 H67     18.0762  -0.8378   4.4067   H         2 RES2   0.0000
   112 C33A    20.0896   1.1981   5.7904   C.3       2 RES2   0.0000
   113 H64A    20.0671   1.4794   6.7393   H         2 RES2   0.0000
   114 H65A    21.0205   1.2739   5.4623   H         2 RES2   0.0000
   115 C34A    19.6111  -0.2063   5.6593   C.3       2 RES2   0.0000
   116 H66A    19.0288  -0.4551   6.4203   H         2 RES2   0.0000
   117 H67A    20.3727  -0.8378   5.6172   H         2 RES2   0.0000
@<TRIPOS>BOND
     1     1     6    1
     2     2     5    1
     3     3     5    1
     4     4     7    1
     5     6     7    2
     6     8    10    1
     7     9    10    1
     8    10     1    1
     9    11     1   un
    10    12    11    1
    11    13    11    1
    12    14     1   un
    13    15    14    1
    14    16     1   un
    15    17    16    1
    16    18    16    1
    17    19     1   un
    18    20    19    1
    19    21     2    1
    20    22    21    1
    21    23    21    1
    22    24    21    1
    23    25     2    1
    24    26    25    1
    25    27    25    1
    26    28    25    1
    27    29     3    1
    28    30    29    1
    29    31    29    1
    30    32    29    1
    31    33     3    1
    32    34    33    1
    33    35    33    1
    34    36    33    1
    35    37     8    1
    36    38    37    1
    37    39     9    1
    38    40    39    1
    39    41     8    1
    40    42    41    1
    41    43    41    1
    42    44    43    1
    43    45    43    1
    44    46    43    1
    45    47    46    1
    46    48    46    1
    47    49    46    1
    48    50    49    1
    49    51    49    1
    50    52    49    1
    51    53    52    1
    52    54    52    1
    53    55    41    1
    54    56    55    1
    55    57    55    1
    56    58     9    1
    57    59    58    1
    58    60    58    1
    59    61    60    1
    60    62    60    1
    61    63    60    1
    62    64    63    1
    63    65    63    1
    64    66    63    1
    65    67    66    1
    66    68    66    1
    67    69    66    1
    68    70    69    1
    69    71    69    1
    70    72    58    1
    71    73    72    1
    72    74    72    1
    73    75     4    1
    74    76    75    1
    75    77    75    1
    76    78    77    1
    77    79    77    1
    78    80    77    1
    79    81    75    1
    80    82    81    1
    81    83    81    1
    82    84    81    1
    83    85     4    1
    84    86    85    1
    85    87    85    1
    86    88    87    1
    87    89    87    1
    88    90    87    1
    89    91    85    1
    90    92    91    1
    91    93    91    1
    92    94    91    1
    93    95     4    1
    94    96    95    1
    95    97    95    1
    96    98    97    1
    97    99    97    1
    98   100    97    1
    99   101    95    1
   100   102   101    1
   101   103   101    1
   102   104   101    1
   103     2    14    1
   104     3    19    1
   105    11    14    2
   106    16    19    2
   107    37    39    2
   108    52    55    1
   109    69    72    1
   110   105   106    1
   111   106   107    1
   112   108   106    1
   113   109   106    1
   114   110   109    1
   115   111   109    1
   116   112   105    1
   117   113   112    1
   118   114   112    1
   119   115   109    1
   120   116   115    1
   121   117   115    1
   122   112   115    1
@<TRIPOS>SUBSTRUCTURE
     1 RES1        1 GROUP             0 ****  ****    0  
     2 RES2      105 GROUP             0 ****  ****    0  
@<TRIPOS>CRYSIN
   44.3770    8.8161   23.2913   90.0000  120.6000   90.0000    15     1
