@<TRIPOS>MOLECULE
VOPHIS01
    79    84     2     0     0
SMALL
NO_CHARGES
****
Generated from the CSD

@<TRIPOS>ATOM
     1 Fe1      8.5459   3.6857   8.7289   Fe        1 RES1   0.0000
     2 O1       9.7684   4.3471  10.0735   O.3       1 RES1   0.0000
     3 O2       7.4901   2.8953  10.1522   O.3       1 RES1   0.0000
     4 O3      13.0989   6.7951   9.5127   O.2       1 RES1   0.0000
     5 O4       4.3291   0.2186   9.8058   O.2       1 RES1   0.0000
     6 N1       9.5133   4.4875   7.3037   N.2       1 RES1   0.0000
     7 N2       7.4315   2.9702   7.3798   N.2       1 RES1   0.0000
     8 N3       9.6239   1.9949   8.5665   N.2       1 RES1   0.0000
     9 N4      10.3646  -0.0721   8.8249   N.pl3     1 RES1   0.0000
    10 N5       7.4764   5.3889   8.8618   N.2       1 RES1   0.0000
    11 N6       6.6886   7.3413   9.5463   N.pl3     1 RES1   0.0000
    12 C1      10.8176   5.0446   9.9165   C.2       1 RES1   0.0000
    13 C2      11.2631   5.5511   8.6493   C.2       1 RES1   0.0000
    14 C3      10.5713   5.2360   7.4391   C.2       1 RES1   0.0000
    15 H1      10.9154   5.6066   6.6584   H         1 RES1   0.0000
    16 C4       8.9716   4.1829   6.0264   C.ar      1 RES1   0.0000
    17 C5       9.4523   4.6252   4.7961   C.ar      1 RES1   0.0000
    18 H2      10.1502   5.2391   4.7625   H         1 RES1   0.0000
    19 C6       8.8908   4.1518   3.6250   C.ar      1 RES1   0.0000
    20 H3       9.2140   4.4506   2.8063   H         1 RES1   0.0000
    21 C7       7.8489   3.2340   3.6619   C.ar      1 RES1   0.0000
    22 H4       7.4913   2.9055   2.8689   H         1 RES1   0.0000
    23 C8       7.3425   2.8076   4.8777   C.ar      1 RES1   0.0000
    24 H5       6.6411   2.1959   4.8956   H         1 RES1   0.0000
    25 C9       7.8691   3.2857   6.0656   C.ar      1 RES1   0.0000
    26 C10      6.4481   2.1100   7.5733   C.2       1 RES1   0.0000
    27 H6       6.0496   1.7535   6.8127   H         1 RES1   0.0000
    28 C11      5.9376   1.6756   8.8271   C.2       1 RES1   0.0000
    29 C12      6.4815   2.1393  10.0709   C.2       1 RES1   0.0000
    30 C13     11.5941   5.2637  11.1849   C.3       1 RES1   0.0000
    31 H7      11.2739   4.6648  11.8627   H         1 RES1   0.0000
    32 H8      11.4799   6.1699  11.4779   H         1 RES1   0.0000
    33 H9      12.5255   5.0942  11.0227   H         1 RES1   0.0000
    34 C14     12.4515   6.3924   8.5419   C.2       1 RES1   0.0000
    35 C15     12.9759   6.7795   7.1717   C.3       1 RES1   0.0000
    36 H10     13.8234   7.2212   7.2668   H         1 RES1   0.0000
    37 H11     12.3522   7.3723   6.7456   H         1 RES1   0.0000
    38 H12     13.0842   5.9897   6.6360   H         1 RES1   0.0000
    39 C16      5.8653   1.7635  11.4030   C.3       1 RES1   0.0000
    40 H13      6.3231   2.2254  12.1087   H         1 RES1   0.0000
    41 H14      5.9442   0.8159  11.5361   H         1 RES1   0.0000
    42 H15      4.9374   2.0112  11.4074   H         1 RES1   0.0000
    43 C17      4.8125   0.7298   8.7947   C.2       1 RES1   0.0000
    44 C18      4.1753   0.3565   7.4849   C.3       1 RES1   0.0000
    45 H16      3.4257  -0.2185   7.6471   H         1 RES1   0.0000
    46 H17      4.8176  -0.1005   6.9369   H         1 RES1   0.0000
    47 H18      3.8786   1.1515   7.0364   H         1 RES1   0.0000
    48 C19     10.4342   1.6457   7.5084   C.2       1 RES1   0.0000
    49 H19     10.6338   2.2028   6.7903   H         1 RES1   0.0000
    50 C20     10.9016   0.3765   7.6538   C.2       1 RES1   0.0000
    51 H20     11.4668  -0.0868   7.0778   H         1 RES1   0.0000
    52 C21      9.6150   0.9140   9.3438   C.2       1 RES1   0.0000
    53 H21      9.1496   0.8499  10.1469   H         1 RES1   0.0000
    54 C22     10.6335  -1.3861   9.4277   C.3       1 RES1   0.0000
    55 H22     11.2810  -1.2896  10.1301   H         1 RES1   0.0000
    56 H23     10.9747  -1.9820   8.7577   H         1 RES1   0.0000
    57 H24      9.8191  -1.7444   9.7901   H         1 RES1   0.0000
    58 C23      6.6188   5.9168   7.9122   C.2       1 RES1   0.0000
    59 H25      6.4099   5.5115   7.1013   H         1 RES1   0.0000
    60 C24      7.5013   6.2971   9.8259   C.2       1 RES1   0.0000
    61 H26      8.0132   6.2252  10.5988   H         1 RES1   0.0000
    62 C25      6.4772   8.5055  10.4098   C.3       1 RES1   0.0000
    63 H27      6.7666   9.2995   9.9534   H         1 RES1   0.0000
    64 H28      6.9834   8.3996  11.2184   H         1 RES1   0.0000
    65 H29      5.5450   8.5804  10.6234   H         1 RES1   0.0000
    66 C26      6.1297   7.1066   8.3327   C.2       1 RES1   0.0000
    67 H30      5.5290   7.6539   7.8797   H         1 RES1   0.0000
    68 N7       2.8170   3.7380   5.4146   N.2       2 RES2   0.0000
    69 N8       3.0066   3.7829   7.6247   N.pl3     2 RES2   0.0000
    70 C27      1.8479   3.1493   7.3529   C.2       2 RES2   0.0000
    71 H31      1.2463   2.7949   7.9670   H         2 RES2   0.0000
    72 C28      1.7388   3.1341   5.9962   C.2       2 RES2   0.0000
    73 H32      1.0266   2.7618   5.5287   H         2 RES2   0.0000
    74 C29      3.5517   4.1195   6.4402   C.2       2 RES2   0.0000
    75 H33      4.3588   4.5708   6.3541   H         2 RES2   0.0000
    76 C30      3.5172   4.1197   8.9535   C.3       2 RES2   0.0000
    77 H34      4.4586   4.2981   8.8987   H         2 RES2   0.0000
    78 H35      3.3643   3.3820   9.5496   H         2 RES2   0.0000
    79 H36      3.0609   4.8976   9.2834   H         2 RES2   0.0000
@<TRIPOS>BOND
     1     1     2    1
     2     2    12    1
     3     3     1    1
     4     4    34    2
     5     5    43    2
     6     6     1    1
     7     7     1    1
     8     8     1    1
     9     9    50    1
    10    10     1    1
    11    11    60    1
    12    12    13    2
    13    13    14    1
    14    14     6    2
    15    15    14    1
    16    16     6    1
    17    17    16   ar
    18    18    17    1
    19    19    17   ar
    20    20    19    1
    21    21    19   ar
    22    22    21    1
    23    23    21   ar
    24    24    23    1
    25    25     7    1
    26    26     7    2
    27    27    26    1
    28    28    26    1
    29    29     3    1
    30    30    12    1
    31    31    30    1
    32    32    30    1
    33    33    30    1
    34    34    13    1
    35    35    34    1
    36    36    35    1
    37    37    35    1
    38    38    35    1
    39    39    29    1
    40    40    39    1
    41    41    39    1
    42    42    39    1
    43    43    28    1
    44    44    43    1
    45    45    44    1
    46    46    44    1
    47    47    44    1
    48    48     8    1
    49    49    48    1
    50    50    48    2
    51    51    50    1
    52    52     8    2
    53    53    52    1
    54    54     9    1
    55    55    54    1
    56    56    54    1
    57    57    54    1
    58    58    10    1
    59    59    58    1
    60    60    10    2
    61    61    60    1
    62    62    11    1
    63    63    62    1
    64    64    62    1
    65    65    62    1
    66    66    11    1
    67    67    66    1
    68     9    52    1
    69    16    25   ar
    70    23    25   ar
    71    28    29    2
    72    58    66    2
    73    68    72    1
    74    69    70    1
    75    70    71    1
    76    72    70    2
    77    73    72    1
    78    74    68    2
    79    75    74    1
    80    76    69    1
    81    77    76    1
    82    78    76    1
    83    79    76    1
    84    69    74    1
@<TRIPOS>SUBSTRUCTURE
     1 RES1        1 GROUP             0 ****  ****    0  
     2 RES2       68 GROUP             0 ****  ****    0  
@<TRIPOS>CRYSIN
   11.6760   11.7660   11.8250   77.3560   72.9010   72.6420     2     1
