@<TRIPOS>MOLECULE
VOTCEM
    86    93     2     0     0
SMALL
USER_CHARGES
****
Generated from the CSD

@<TRIPOS>ATOM
     1 Fe1      1.7260   1.7260   1.7260   Fe        1 RES1  -1.0000
     2 S1       3.0647   1.0848   3.5475   S.3       1 RES1   0.0000
     3 C1       2.3580   0.2671   0.8787   C.1       1 RES1   0.0000
     4 O1       2.7025  -0.6657   0.3334   O.2       1 RES1   0.0000
     5 C2       2.1260  -1.2244   4.6732   C.ar      1 RES1   0.0000
     6 H1       2.7872  -1.7366   3.9898   H         1 RES1   0.0000
     7 C3       1.3295  -1.9427   5.5666   C.ar      1 RES1   0.0000
     8 H2       1.3803  -3.0216   5.5642   H         1 RES1   0.0000
     9 C4       0.5073  -1.3165   6.4325   C.ar      1 RES1   0.0000
    10 H3      -0.1020  -1.8993   7.1075   H         1 RES1   0.0000
    11 C5       0.4426   0.0378   6.4521   C.ar      1 RES1   0.0000
    12 H4      -0.2090   0.5357   7.1551   H         1 RES1   0.0000
    13 C6       1.2189   0.7832   5.5656   C.ar      1 RES1   0.0000
    14 H5       1.1638   1.8617   5.5823   H         1 RES1   0.0000
    15 C7       2.0552   0.1537   4.6693   C.ar      1 RES1   0.0000
    16 S1A      3.5475   3.0647   1.0848   S.3       1 RES1   0.0000
    17 S1B      1.0848   3.5475   3.0647   S.3       1 RES1   0.0000
    18 C1A      0.8787   2.3580   0.2671   C.1       1 RES1   0.0000
    19 C1B      0.2671   0.8787   2.3580   C.1       1 RES1   0.0000
    20 C7A      4.6693   2.0552   0.1537   C.ar      1 RES1   0.0000
    21 C7B      0.1537   4.6693   2.0552   C.ar      1 RES1   0.0000
    22 O1A      0.3334   2.7025  -0.6657   O.2       1 RES1   0.0000
    23 O1B     -0.6657   0.3334   2.7025   O.2       1 RES1   0.0000
    24 C2A      4.6732   2.1260  -1.2244   C.ar      1 RES1   0.0000
    25 C6A      5.5656   1.2189   0.7832   C.ar      1 RES1   0.0000
    26 C2B     -1.2244   4.6732   2.1260   C.ar      1 RES1   0.0000
    27 C6B      0.7832   5.5656   1.2189   C.ar      1 RES1   0.0000
    28 H1A      3.9898   2.7872  -1.7366   H         1 RES1   0.0000
    29 C3A      5.5666   1.3295  -1.9427   C.ar      1 RES1   0.0000
    30 C5A      6.4521   0.4426   0.0378   C.ar      1 RES1   0.0000
    31 H5A      5.5823   1.1638   1.8617   H         1 RES1   0.0000
    32 H1B     -1.7366   3.9898   2.7872   H         1 RES1   0.0000
    33 C3B     -1.9427   5.5666   1.3295   C.ar      1 RES1   0.0000
    34 C5B      0.0378   6.4521   0.4426   C.ar      1 RES1   0.0000
    35 H5B      1.8617   5.5823   1.1638   H         1 RES1   0.0000
    36 H2A      5.5642   1.3803  -3.0216   H         1 RES1   0.0000
    37 C4A      6.4325   0.5073  -1.3165   C.ar      1 RES1   0.0000
    38 H4A      7.1551  -0.2090   0.5357   H         1 RES1   0.0000
    39 H2B     -3.0216   5.5642   1.3803   H         1 RES1   0.0000
    40 C4B     -1.3165   6.4325   0.5073   C.ar      1 RES1   0.0000
    41 H4B      0.5357   7.1551  -0.2090   H         1 RES1   0.0000
    42 H3A      7.1075  -0.1020  -1.8993   H         1 RES1   0.0000
    43 H3B     -1.8993   7.1075  -0.1020   H         1 RES1   0.0000
    44 K1       4.2655   4.2655   4.2655   K         2 RES2   1.0000
    45 O2       3.1657   6.9341   4.0189   O.3       2 RES2   0.0000
    46 O3       2.7092   5.5743   6.4025   O.3       2 RES2   0.0000
    47 C8       3.7945   7.9146   3.2751   C.3       2 RES2   0.0000
    48 H6       4.8536   8.1185   3.3302   H         2 RES2   0.0000
    49 H7       3.4051   8.2828   2.3376   H         2 RES2   0.0000
    50 C9       2.4841   7.5189   5.1074   C.3       2 RES2   0.0000
    51 H8       3.1910   7.9740   5.7852   H         2 RES2   0.0000
    52 H9       1.7909   8.2677   4.7536   H         2 RES2   0.0000
    53 C10      1.7489   6.4196   5.8098   C.3       2 RES2   0.0000
    54 H10      1.1581   5.8645   5.0962   H         2 RES2   0.0000
    55 H11      1.1018   6.8312   6.5700   H         2 RES2   0.0000
    56 C11      2.0652   4.5783   7.1571   C.3       2 RES2   0.0000
    57 H12      1.9405   3.5620   6.8139   H         2 RES2   0.0000
    58 H13      1.9862   4.6071   8.2338   H         2 RES2   0.0000
    59 O2A      4.0189   3.1657   6.9341   O.3       2 RES2   0.0000
    60 O2B      6.9341   4.0189   3.1657   O.3       2 RES2   0.0000
    61 O3A      6.4025   2.7092   5.5743   O.3       2 RES2   0.0000
    62 O3B      5.5743   6.4025   2.7092   O.3       2 RES2   0.0000
    63 C11B     4.5783   7.1571   2.0652   C.3       2 RES2   0.0000
    64 C8A      3.2751   3.7945   7.9146   C.3       2 RES2   0.0000
    65 C9A      5.1074   2.4841   7.5189   C.3       2 RES2   0.0000
    66 C8B      7.9146   3.2751   3.7945   C.3       2 RES2   0.0000
    67 C9B      7.5189   5.1074   2.4841   C.3       2 RES2   0.0000
    68 C10A     5.8098   1.7489   6.4196   C.3       2 RES2   0.0000
    69 C11A     7.1571   2.0652   4.5783   C.3       2 RES2   0.0000
    70 C10B     6.4196   5.8098   1.7489   C.3       2 RES2   0.0000
    71 H12B     3.5620   6.8139   1.9405   H         2 RES2   0.0000
    72 H13B     4.6071   8.2338   1.9862   H         2 RES2   0.0000
    73 H6A      3.3302   4.8536   8.1185   H         2 RES2   0.0000
    74 H7A      2.3376   3.4051   8.2828   H         2 RES2   0.0000
    75 H8A      5.7852   3.1910   7.9740   H         2 RES2   0.0000
    76 H9A      4.7536   1.7909   8.2677   H         2 RES2   0.0000
    77 H6B      8.1185   3.3302   4.8536   H         2 RES2   0.0000
    78 H7B      8.2828   2.3376   3.4051   H         2 RES2   0.0000
    79 H8B      7.9740   5.7852   3.1910   H         2 RES2   0.0000
    80 H9B      8.2677   4.7536   1.7909   H         2 RES2   0.0000
    81 H10A     5.0962   1.1581   5.8645   H         2 RES2   0.0000
    82 H11A     6.5700   1.1018   6.8312   H         2 RES2   0.0000
    83 H12A     6.8139   1.9405   3.5620   H         2 RES2   0.0000
    84 H13A     8.2338   1.9862   4.6071   H         2 RES2   0.0000
    85 H10B     5.8645   5.0962   1.1581   H         2 RES2   0.0000
    86 H11B     6.8312   6.5700   1.1018   H         2 RES2   0.0000
@<TRIPOS>BOND
     1     1     2    1
     2     2    15    1
     3     3     1    1
     4     4     3    3
     5     5     6    1
     6     7     5   ar
     7     8     7    1
     8     9     7   ar
     9    10     9    1
    10    11     9   ar
    11    12    11    1
    12    13    11   ar
    13    14    13    1
    14    15     5   ar
    15    16     1    1
    16    17     1    1
    17    18     1    1
    18    19     1    1
    19    20    16    1
    20    21    17    1
    21    22    18    3
    22    23    19    3
    23    24    20   ar
    24    25    20   ar
    25    26    21   ar
    26    27    21   ar
    27    28    24    1
    28    29    24   ar
    29    30    25   ar
    30    31    25    1
    31    32    26    1
    32    33    26   ar
    33    34    27   ar
    34    35    27    1
    35    36    29    1
    36    37    29   ar
    37    38    30    1
    38    39    33    1
    39    40    33   ar
    40    41    34    1
    41    42    37    1
    42    43    40    1
    43    13    15   ar
    44    30    37   ar
    45    34    40   ar
    46    44    45    1
    47    45    47    1
    48    46    44    1
    49    47    48    1
    50    49    47    1
    51    50    45    1
    52    51    50    1
    53    52    50    1
    54    53    46    1
    55    54    53    1
    56    55    53    1
    57    56    46    1
    58    57    56    1
    59    58    56    1
    60    59    44    1
    61    60    44    1
    62    61    44    1
    63    62    44    1
    64    63    47    1
    65    64    56    1
    66    65    59    1
    67    66    60    1
    68    67    60    1
    69    68    61    1
    70    69    61    1
    71    70    62    1
    72    71    63    1
    73    72    63    1
    74    73    64    1
    75    74    64    1
    76    75    65    1
    77    76    65    1
    78    77    66    1
    79    78    66    1
    80    79    67    1
    81    80    67    1
    82    81    68    1
    83    82    68    1
    84    83    69    1
    85    84    69    1
    86    85    70    1
    87    86    70    1
    88    50    53    1
    89    59    64    1
    90    62    63    1
    91    65    68    1
    92    66    69    1
    93    67    70    1
@<TRIPOS>SUBSTRUCTURE
     1 RES1        1 GROUP             0 ****  ****    0  
     2 RES2       44 GROUP             0 ****  ****    0  
@<TRIPOS>CRYSIN
   19.6090   19.6090   19.6090   90.0000   90.0000   90.0000   205     1
