@<TRIPOS>MOLECULE
VOXVAI
   142   151     1     0     0
SMALL
NO_CHARGES
****
Generated from the CSD

@<TRIPOS>ATOM
     1 Fe1     13.8947   6.5669  15.0797   Fe        1 RES1   0.0000
     2 B1      17.0413   6.2177  15.2649   B         1 RES1   0.0000
     3 H1      18.0226   6.1119  15.3224   H         1 RES1   0.0000
     4 B2      10.7662   7.0449  14.9030   B         1 RES1   0.0000
     5 H2       9.7886   7.1982  14.8498   H         1 RES1   0.0000
     6 N1      15.0650   4.8223  14.6250   N.ar      1 RES1   0.0000
     7 N2      16.4138   4.9132  14.7400   N.ar      1 RES1   0.0000
     8 N3      15.1407   6.7073  16.8797   N.ar      1 RES1   0.0000
     9 N4      16.4790   6.5323  16.6564   N.ar      1 RES1   0.0000
    10 N5      15.4423   7.6986  13.9947   N.2       1 RES1   0.0000
    11 N6      16.7022   7.3650  14.2898   N.pl3     1 RES1   0.0000
    12 N7      12.6248   6.3506  13.3018   N.ar      1 RES1   0.0000
    13 N8      11.2958   6.6300  13.5036   N.ar      1 RES1   0.0000
    14 N9      12.3004   5.4205  16.0949   N.ar      1 RES1   0.0000
    15 N10     11.0459   5.9356  15.9108   N.ar      1 RES1   0.0000
    16 N11     12.8016   8.3968  15.5717   N.ar      1 RES1   0.0000
    17 N12     11.4601   8.3419  15.3543   N.ar      1 RES1   0.0000
    18 C1      14.8193   3.6140  14.1610   C.ar      1 RES1   0.0000
    19 H3      13.9583   3.2790  13.9919   H         1 RES1   0.0000
    20 C2      15.9979   2.8926  13.9524   C.ar      1 RES1   0.0000
    21 C3      16.9932   3.7442  14.3285   C.ar      1 RES1   0.0000
    22 C4      16.1577   1.4714  13.4215   C.3       1 RES1   0.0000
    23 H4      16.5901   1.5188  12.5423   H         1 RES1   0.0000
    24 H5      16.7631   0.9859  14.0196   H         1 RES1   0.0000
    25 C5      14.9584   0.7092  13.2873   C.3       1 RES1   0.0000
    26 H6      15.1764  -0.1858  12.9851   H         1 RES1   0.0000
    27 H7      14.3737   1.1364  12.6402   H         1 RES1   0.0000
    28 H8      14.5091   0.6604  14.1452   H         1 RES1   0.0000
    29 C6      18.4672   3.5747  14.2683   C.3       1 RES1   0.0000
    30 H9      18.6749   2.6173  14.2580   H         1 RES1   0.0000
    31 H10     18.8629   3.9571  15.0797   H         1 RES1   0.0000
    32 C7      19.1073   4.2243  13.0638   C.3       1 RES1   0.0000
    33 H11     18.8648   5.1735  13.0362   H         1 RES1   0.0000
    34 H12     18.7727   3.7998  12.2464   H         1 RES1   0.0000
    35 C8      20.6394   4.0873  13.1234   C.3       1 RES1   0.0000
    36 H13     21.0323   4.5226  12.3507   H         1 RES1   0.0000
    37 H14     20.8800   3.1475  13.1234   H         1 RES1   0.0000
    38 H15     20.9703   4.5063  13.9345   H         1 RES1   0.0000
    39 C9      15.0072   7.0192  18.1863   C.ar      1 RES1   0.0000
    40 C10     16.2705   7.0666  18.7730   C.ar      1 RES1   0.0000
    41 C11     17.1353   6.7547  17.7981   C.ar      1 RES1   0.0000
    42 H16     18.0677   6.7005  17.9045   H         1 RES1   0.0000
    43 C12     13.6518   7.3406  18.7475   C.3       1 RES1   0.0000
    44 H17     12.9882   7.2348  18.0343   H         1 RES1   0.0000
    45 H18     13.6443   8.2817  19.0199   H         1 RES1   0.0000
    46 C13     13.2251   6.4903  19.9310   C.3       1 RES1   0.0000
    47 H19     13.3172   5.5424  19.7032   H         1 RES1   0.0000
    48 H20     13.8135   6.6761  20.6931   H         1 RES1   0.0000
    49 C14     11.8114   6.7724  20.3163   C.3       1 RES1   0.0000
    50 H21     11.5727   6.2367  21.0890   H         1 RES1   0.0000
    51 H22     11.2230   6.5513  19.5777   H         1 RES1   0.0000
    52 H23     11.7155   7.7135  20.5334   H         1 RES1   0.0000
    53 C15     16.5638   7.4124  20.2290   C.3       1 RES1   0.0000
    54 H24     16.3119   8.3454  20.3929   H         1 RES1   0.0000
    55 H25     16.0130   6.8469  20.8102   H         1 RES1   0.0000
    56 C16     17.9925   7.2267  20.5845   C.3       1 RES1   0.0000
    57 H26     18.1166   7.4016  21.5297   H         1 RES1   0.0000
    58 H27     18.5358   7.8396  20.0673   H         1 RES1   0.0000
    59 H28     18.2576   6.3140  20.3866   H         1 RES1   0.0000
    60 C17     15.4904   8.7536  13.1618   C.2       1 RES1   0.0000
    61 C18     16.8307   9.0927  12.9170   C.2       1 RES1   0.0000
    62 C19     17.5282   8.1800  13.6279   C.2       1 RES1   0.0000
    63 H29     18.4663   8.1258  13.6535   H         1 RES1   0.0000
    64 C20     14.2534   9.3829  12.6274   C.3       1 RES1   0.0000
    65 H30     13.4920   8.8323  12.9042   H         1 RES1   0.0000
    66 H31     14.1500  10.2575  13.0596   H         1 RES1   0.0000
    67 C21     14.1632   9.5849  11.1586   C.3       1 RES1   0.0000
    68 H32     14.3681   8.7387  10.7095   H         1 RES1   0.0000
    69 H33     14.8418  10.2372  10.8862   H         1 RES1   0.0000
    70 C22     12.8284  10.0609  10.7052   C.3       1 RES1   0.0000
    71 H34     12.8491  10.2169   9.7473   H         1 RES1   0.0000
    72 H35     12.6066  10.8868  11.1629   H         1 RES1   0.0000
    73 H36     12.1592   9.3883  10.9096   H         1 RES1   0.0000
    74 C23     17.3496  10.2928  12.0931   C.2       1 RES1   0.0000
    75 H37     16.7537  10.9315  11.7462   H         1 RES1   0.0000
    76 C24     18.6185  10.3972  11.8909   C.3       1 RES1   0.0000
    77 H38     18.7971  11.1892  11.3587   H         1 RES1   0.0000
    78 H39     18.9362   9.6120  11.4183   H         1 RES1   0.0000
    79 H40     19.0772  10.4704  12.7424   H         1 RES1   0.0000
    80 C25     12.7476   6.0821  11.9910   C.ar      1 RES1   0.0000
    81 C26     11.4843   6.1757  11.3434   C.ar      1 RES1   0.0000
    82 C27     10.6252   6.5188  12.3550   C.ar      1 RES1   0.0000
    83 H41      9.7003   6.6571  12.2528   H         1 RES1   0.0000
    84 C28     14.0767   5.7607  11.3928   C.3       1 RES1   0.0000
    85 H42     14.7535   5.8475  12.0953   H         1 RES1   0.0000
    86 H43     14.2741   6.4388  10.7137   H         1 RES1   0.0000
    87 C29     14.2365   4.3938  10.7542   C.3       1 RES1   0.0000
    88 H44     13.9846   3.7022  11.4013   H         1 RES1   0.0000
    89 H45     13.6312   4.3232   9.9857   H         1 RES1   0.0000
    90 C30     15.6464   4.1578  10.2965   C.3       1 RES1   0.0000
    91 H46     15.7160   3.2750   9.9027   H         1 RES1   0.0000
    92 H47     16.2461   4.2215  11.0565   H         1 RES1   0.0000
    93 H48     15.8889   4.8264   9.6366   H         1 RES1   0.0000
    94 C31     11.1328   5.9519   9.9048   C.3       1 RES1   0.0000
    95 H49     11.9580   5.9736   9.3748   H         1 RES1   0.0000
    96 H50     10.5688   6.6937   9.6026   H         1 RES1   0.0000
    97 C32     10.4203   4.6636   9.6217   C.3       1 RES1   0.0000
    98 H51     10.2079   4.6121   8.6766   H         1 RES1   0.0000
    99 H52      9.6006   4.6284  10.1390   H         1 RES1   0.0000
   100 H53     10.9899   3.9191   9.8665   H         1 RES1   0.0000
   101 C33     12.1742   4.4534  17.0215   C.ar      1 RES1   0.0000
   102 C34     10.8527   4.3571  17.4417   C.ar      1 RES1   0.0000
   103 C35     10.1834   5.2820  16.7154   C.ar      1 RES1   0.0000
   104 H54      9.2585   5.4447  16.7635   H         1 RES1   0.0000
   105 C36     13.3548   3.6560  17.4879   C.3       1 RES1   0.0000
   106 H55     13.3962   3.7062  18.4665   H         1 RES1   0.0000
   107 H56     14.1688   4.0724  17.1382   H         1 RES1   0.0000
   108 C37     13.3510   2.2010  17.0849   C.3       1 RES1   0.0000
   109 H57     12.5671   1.7616  17.4766   H         1 RES1   0.0000
   110 H58     13.2740   2.1386  16.1100   H         1 RES1   0.0000
   111 C38     14.5899   1.4741  17.5256   C.3       1 RES1   0.0000
   112 H59     14.5429   0.5492  17.2361   H         1 RES1   0.0000
   113 H60     14.6576   1.5080  18.4920   H         1 RES1   0.0000
   114 H61     15.3701   1.8958  17.1318   H         1 RES1   0.0000
   115 C39     10.2661   3.3753  18.4643   C.3       1 RES1   0.0000
   116 H62     10.4579   2.4600  18.1727   H         1 RES1   0.0000
   117 H63     10.7060   3.5137  19.3286   H         1 RES1   0.0000
   118 C40      8.7961   3.5299  18.6410   C.3       1 RES1   0.0000
   119 H64      8.4746   2.8668  19.2711   H         1 RES1   0.0000
   120 H65      8.3524   3.4065  17.7874   H         1 RES1   0.0000
   121 H66      8.6024   4.4182  18.9795   H         1 RES1   0.0000
   122 C41     13.0672   9.6215  16.0419   C.ar      1 RES1   0.0000
   123 C42     11.8960  10.3755  16.1015   C.ar      1 RES1   0.0000
   124 C43     10.9185   9.5280  15.6694   C.ar      1 RES1   0.0000
   125 H67     10.0048   9.7409  15.6055   H         1 RES1   0.0000
   126 C44     14.4508  10.0121  16.4676   C.3       1 RES1   0.0000
   127 H68     14.4339  10.1192  17.4404   H         1 RES1   0.0000
   128 H69     15.0373   9.2500  16.2760   H         1 RES1   0.0000
   129 C45     15.0824  11.1702  15.9291   C.3       1 RES1   0.0000
   130 H70     14.5072  11.9472  16.0887   H         1 RES1   0.0000
   131 H71     15.1746  11.0604  14.9605   H         1 RES1   0.0000
   132 C46     16.4454  11.4428  16.5187   C.3       1 RES1   0.0000
   133 H72     16.8232  12.2347  16.1057   H         1 RES1   0.0000
   134 H73     17.0263  10.6834  16.3569   H         1 RES1   0.0000
   135 H74     16.3608  11.5865  17.4745   H         1 RES1   0.0000
   136 C47     11.7099  11.7655  16.6698   C.3       1 RES1   0.0000
   137 H75     10.8827  11.8035  17.1956   H         1 RES1   0.0000
   138 H76     12.4600  11.9852  17.2638   H         1 RES1   0.0000
   139 C48     11.6497  12.6782  15.6332   C.3       1 RES1   0.0000
   140 H77     11.5106  13.5678  15.9951   H         1 RES1   0.0000
   141 H78     10.9128  12.4504  15.0457   H         1 RES1   0.0000
   142 H79     12.4807  12.6565  15.1351   H         1 RES1   0.0000
@<TRIPOS>BOND
     1     1     6    1
     2     2     3    1
     3     4     5    1
     4     6     7   ar
     5     7     2    1
     6     8     1    1
     7     9     2    1
     8    10     1    1
     9    11     2    1
    10    12     1    1
    11    13     4    1
    12    14     1    1
    13    15     4    1
    14    16     1    1
    15    17     4    1
    16    18     6   ar
    17    19    18    1
    18    20    18   ar
    19    21     7   ar
    20    22    20    1
    21    23    22    1
    22    24    22    1
    23    25    22    1
    24    26    25    1
    25    27    25    1
    26    28    25    1
    27    29    21    1
    28    30    29    1
    29    31    29    1
    30    32    29    1
    31    33    32    1
    32    34    32    1
    33    35    32    1
    34    36    35    1
    35    37    35    1
    36    38    35    1
    37    39     8   ar
    38    40    39   ar
    39    41     9   ar
    40    42    41    1
    41    43    39    1
    42    44    43    1
    43    45    43    1
    44    46    43    1
    45    47    46    1
    46    48    46    1
    47    49    46    1
    48    50    49    1
    49    51    49    1
    50    52    49    1
    51    53    40    1
    52    54    53    1
    53    55    53    1
    54    56    53    1
    55    57    56    1
    56    58    56    1
    57    59    56    1
    58    60    10    2
    59    61    60    1
    60    62    11    2
    61    63    62    1
    62    64    60    1
    63    65    64    1
    64    66    64    1
    65    67    64    1
    66    68    67    1
    67    69    67    1
    68    70    67    1
    69    71    70    1
    70    72    70    1
    71    73    70    1
    72    74    61    2
    73    75    74    1
    74    76    74    1
    75    77    76    1
    76    78    76    1
    77    79    76    1
    78    80    12   ar
    79    81    80   ar
    80    82    13   ar
    81    83    82    1
    82    84    80    1
    83    85    84    1
    84    86    84    1
    85    87    84    1
    86    88    87    1
    87    89    87    1
    88    90    87    1
    89    91    90    1
    90    92    90    1
    91    93    90    1
    92    94    81    1
    93    95    94    1
    94    96    94    1
    95    97    94    1
    96    98    97    1
    97    99    97    1
    98   100    97    1
    99   101    14   ar
   100   102   101   ar
   101   103    15   ar
   102   104   103    1
   103   105   101    1
   104   106   105    1
   105   107   105    1
   106   108   105    1
   107   109   108    1
   108   110   108    1
   109   111   108    1
   110   112   111    1
   111   113   111    1
   112   114   111    1
   113   115   102    1
   114   116   115    1
   115   117   115    1
   116   118   115    1
   117   119   118    1
   118   120   118    1
   119   121   118    1
   120   122    16   ar
   121   123   122   ar
   122   124    17   ar
   123   125   124    1
   124   126   122    1
   125   127   126    1
   126   128   126    1
   127   129   126    1
   128   130   129    1
   129   131   129    1
   130   132   129    1
   131   133   132    1
   132   134   132    1
   133   135   132    1
   134   136   123    1
   135   137   136    1
   136   138   136    1
   137   139   136    1
   138   140   139    1
   139   141   139    1
   140   142   139    1
   141     8     9   ar
   142    10    11    1
   143    12    13   ar
   144    14    15   ar
   145    16    17   ar
   146    20    21   ar
   147    40    41   ar
   148    61    62    1
   149    81    82   ar
   150   102   103   ar
   151   123   124   ar
@<TRIPOS>SUBSTRUCTURE
     1 RES1        1 GROUP             0 ****  ****    0  
@<TRIPOS>CRYSIN
   18.7990   13.5610   21.2870   90.0000   90.0000   90.0000    33     1
