@<TRIPOS>MOLECULE
VOYROS
    87    92     5     0     0
SMALL
USER_CHARGES
****
Generated from the CSD

@<TRIPOS>ATOM
     1 C1       6.1435   9.9911   0.8855   C.2       1 RES1   0.0000
     2 C2       7.1013  10.0449  -0.2632   C.2       1 RES1   0.0000
     3 C3       7.6398   8.7608  -0.7518   C.ar      1 RES1   0.0000
     4 C4       8.6299   8.7720  -1.7300   C.ar      1 RES1   0.0000
     5 H1       8.9424   9.6001  -2.0774   H         1 RES1   0.0000
     6 C5       9.1592   7.5854  -2.1996   C.ar      1 RES1   0.0000
     7 H2       9.8479   7.5942  -2.8521   H         1 RES1   0.0000
     8 C6       8.6790   6.3864  -1.7128   C.ar      1 RES1   0.0000
     9 H3       9.0422   5.5692  -2.0353   H         1 RES1   0.0000
    10 C7       7.6728   6.3612  -0.7581   C.ar      1 RES1   0.0000
    11 H4       7.3360   5.5280  -0.4514   H         1 RES1   0.0000
    12 C8       7.1527   7.5449  -0.2445   C.ar      1 RES1   0.0000
    13 C9       6.0771   7.5004   0.8048   C.2       1 RES1   0.0000
    14 C10      5.6199   8.7610   1.3067   C.2       1 RES1   0.0000
    15 C11      3.9529   8.0592   2.9407   C.2       1 RES1   0.0000
    16 H5       4.0060   7.1280   2.7565   H         1 RES1   0.0000
    17 C12      3.0753   8.6048   3.9496   C.ar      1 RES1   0.0000
    18 C13      2.2140   7.8415   4.7390   C.ar      1 RES1   0.0000
    19 H6       2.1552   6.9001   4.6216   H         1 RES1   0.0000
    20 C14      1.4450   8.4820   5.6974   C.ar      1 RES1   0.0000
    21 H7       0.8681   7.9809   6.2628   H         1 RES1   0.0000
    22 C15      1.5243   9.8573   5.8229   C.ar      1 RES1   0.0000
    23 H8       0.9953  10.3104   6.4694   H         1 RES1   0.0000
    24 C16      2.3819  10.5716   4.9994   C.ar      1 RES1   0.0000
    25 H9       2.4221  11.5177   5.0826   H         1 RES1   0.0000
    26 C17      6.1769  11.7036   4.7966   C.2       1 RES1   0.0000
    27 C18      7.2397  11.7280   5.8562   C.2       1 RES1   0.0000
    28 C19      7.5590  13.0442   6.4465   C.ar      1 RES1   0.0000
    29 C20      8.4932  13.1069   7.4750   C.ar      1 RES1   0.0000
    30 H10      8.9275  12.3148   7.7702   H         1 RES1   0.0000
    31 C21      8.7953  14.3214   8.0726   C.ar      1 RES1   0.0000
    32 H11      9.4338  14.3619   8.7745   H         1 RES1   0.0000
    33 C22      8.1637  15.4728   7.6415   C.ar      1 RES1   0.0000
    34 H12      8.3737  16.3060   8.0476   H         1 RES1   0.0000
    35 C23      7.2208  15.4229   6.6137   C.ar      1 RES1   0.0000
    36 H13      6.7898  16.2192   6.3279   H         1 RES1   0.0000
    37 C24      6.9120  14.2117   6.0065   C.ar      1 RES1   0.0000
    38 C25      5.8890  14.1810   4.9083   C.2       1 RES1   0.0000
    39 C26      5.5179  12.8800   4.4186   C.2       1 RES1   0.0000
    40 C27      3.7498  13.4492   2.8548   C.2       1 RES1   0.0000
    41 H14      3.7591  14.3854   3.0205   H         1 RES1   0.0000
    42 C28      2.8439  12.8266   1.9152   C.ar      1 RES1   0.0000
    43 C29      1.8611  13.5064   1.2124   C.ar      1 RES1   0.0000
    44 H15      1.7461  14.4428   1.3237   H         1 RES1   0.0000
    45 C30      1.0524  12.7927   0.3445   C.ar      1 RES1   0.0000
    46 H16      0.3791  13.2383  -0.1569   H         1 RES1   0.0000
    47 C31      1.2315  11.4261   0.2146   C.ar      1 RES1   0.0000
    48 H17      0.6760  10.9221  -0.3692   H         1 RES1   0.0000
    49 C32      2.2263  10.8021   0.9438   C.ar      1 RES1   0.0000
    50 H18      2.3447   9.8633   0.8532   H         1 RES1   0.0000
    51 N1       5.7571  11.0904   1.4884   N.2       1 RES1   0.0000
    52 H19      6.0464  11.8913   1.2663   H         1 RES1   0.0000
    53 N2       4.6660   8.9461   2.3026   N.2       1 RES1   0.0000
    54 N3       3.1557   9.9632   4.0915   N.ar      1 RES1   0.0000
    55 N4       5.8564  10.5726   4.2000   N.2       1 RES1   0.0000
    56 H20      6.2310   9.8001   4.3920   H         1 RES1   0.0000
    57 N5       4.5508  12.6211   3.4539   N.2       1 RES1   0.0000
    58 N6       3.0312  11.4813   1.7750   N.ar      1 RES1   0.0000
    59 O1       7.3834  11.1216  -0.7558   O.2       1 RES1   0.0000
    60 O2       5.6366   6.4168   1.2237   O.2       1 RES1   0.0000
    61 O3       7.7676  10.6913   6.1993   O.2       1 RES1   0.0000
    62 O4       5.4064  15.2237   4.4572   O.2       1 RES1   0.0000
    63 Fe1      4.5104  10.7780   2.8876   Fe        1 RES1   1.0000
    64 C33      9.8531  11.8942   1.6221   C.3       2 RES2   0.0000
    65 H21      9.1594  12.3325   1.0674   H         2 RES2   0.0000
    66 H22     10.6411  12.4913   1.6508   H         2 RES2   0.0000
    67 Cl1      9.2375  11.6649   3.2496   Cl        2 RES2   0.0000
    68 Cl2     10.3066  10.3721   0.8862   Cl        2 RES2   0.0000
    69 C34     12.4720  10.7413   4.7823   C.3       3 RES3   0.0000
    70 H23     13.2004  10.1604   5.1189   H         3 RES3   0.0000
    71 Cl3     13.0796  11.7544   3.4717   Cl        3 RES3   0.0000
    72 H23C    11.7436  10.1604   4.4456   H         3 RES3   0.0000
    73 Cl3C    11.8644  11.7544   6.0928   Cl        3 RES3   0.0000
    74 F1       0.6303   8.4076  -1.0286   F         4 RES4   0.0000
    75 F2      -0.8381   8.5327   0.6819   F         4 RES4   0.0000
    76 F3       1.2108   7.6208   1.0213   F         4 RES4   0.0000
    77 P1       0.0000   7.3530   0.0000   P.3       4 RES4  -1.0000
    78 F1D     -0.6303   6.2984   1.0286   F         4 RES4   0.0000
    79 F2D      0.8381   6.1733  -0.6819   F         4 RES4   0.0000
    80 F3D     -1.2108   7.0852  -1.0213   F         4 RES4   0.0000
    81 F4      -0.1315  12.8113   3.6596   F         5 RES5   0.0000
    82 F5       1.5834  13.9213   4.5925   F         5 RES5   0.0000
    83 F6      -0.1267  15.0629   3.6573   F         5 RES5   0.0000
    84 P2       0.0000  13.9432   4.7823   P.3       5 RES5  -1.0000
    85 F4C      0.1315  12.8113   5.9049   F         5 RES5   0.0000
    86 F5C     -1.5834  13.9213   4.9720   F         5 RES5   0.0000
    87 F6C      0.1267  15.0629   5.9072   F         5 RES5   0.0000
@<TRIPOS>BOND
     1     1     2    1
     2     2     3    1
     3     3     4   ar
     4     4     5    1
     5     6     4   ar
     6     7     6    1
     7     8     6   ar
     8     9     8    1
     9    10     8   ar
    10    11    10    1
    11    12     3   ar
    12    13    12    1
    13    14     1    2
    14    15    16    1
    15    17    15    1
    16    18    17   ar
    17    19    18    1
    18    20    18   ar
    19    21    20    1
    20    22    20   ar
    21    23    22    1
    22    24    22   ar
    23    25    24    1
    24    26    27    1
    25    27    28    1
    26    28    29   ar
    27    29    30    1
    28    31    29   ar
    29    32    31    1
    30    33    31   ar
    31    34    33    1
    32    35    33   ar
    33    36    35    1
    34    37    28   ar
    35    38    37    1
    36    39    26    2
    37    40    41    1
    38    42    40    1
    39    43    42   ar
    40    44    43    1
    41    45    43   ar
    42    46    45    1
    43    47    45   ar
    44    48    47    1
    45    49    47   ar
    46    50    49    1
    47    51     1    1
    48    52    51    1
    49    53    14    1
    50    54    17   ar
    51    55    26    1
    52    56    55    1
    53    57    39    1
    54    58    42   ar
    55    59     2    2
    56    60    13    2
    57    61    27    2
    58    62    38    2
    59    63    51    1
    60    10    12   ar
    61    13    14    1
    62    15    53    2
    63    24    54   ar
    64    35    37   ar
    65    38    39    1
    66    40    57    2
    67    49    58   ar
    68    53    63    1
    69    54    63    1
    70    55    63    1
    71    57    63    1
    72    58    63    1
    73    64    65    1
    74    66    64    1
    75    67    64    1
    76    68    64    1
    77    69    70    1
    78    71    69    1
    79    72    69    1
    80    73    69    1
    81    74    77    1
    82    75    77    1
    83    76    77    1
    84    77    78    1
    85    79    77    1
    86    80    77    1
    87    81    84    1
    88    82    84    1
    89    83    84    1
    90    84    85    1
    91    86    84    1
    92    87    84    1
@<TRIPOS>SUBSTRUCTURE
     1 RES1        1 GROUP             0 ****  ****    0  
     2 RES2       64 GROUP             0 ****  ****    0  
     3 RES3       69 GROUP             0 ****  ****    0  
     4 RES4       74 GROUP             0 ****  ****    0  
     5 RES5       81 GROUP             0 ****  ****    0  
@<TRIPOS>CRYSIN
   24.9440   14.7060   19.1290   90.0000   90.0000   90.0000    60     1
