@<TRIPOS>MOLECULE
VUFGAG
    87    90     1     0     0
SMALL
NO_CHARGES
****
Generated from the CSD

@<TRIPOS>ATOM
     1 Fe1      9.8208   3.4905   9.0429   Fe        1 RES1   0.0000
     2 S1       9.7875   5.7537   8.5254   S.3       1 RES1   0.0000
     3 P1       8.5512   4.0520  10.7430   P.3       1 RES1   0.0000
     4 P2      11.7205   3.6311   7.8904   P.3       1 RES1   0.0000
     5 P3       8.3515   3.0299   7.3991   P.3       1 RES1   0.0000
     6 P4      10.1063   1.3921   9.5956   P.3       1 RES1   0.0000
     7 Si1     10.3960   9.0291   8.8139   Si        1 RES1   0.0000
     8 C1       8.6227   5.8699  10.9664   C.ar      1 RES1   0.0000
     9 C2       9.2509   6.5946   9.9436   C.ar      1 RES1   0.0000
    10 C3       9.4253   8.0040  10.0617   C.ar      1 RES1   0.0000
    11 C4       8.9011   8.6157  11.2004   C.ar      1 RES1   0.0000
    12 H1       8.9877   9.5565  11.2935   H         1 RES1   0.0000
    13 C5       8.2587   7.9033  12.2032   C.ar      1 RES1   0.0000
    14 H2       7.9102   8.3545  12.9626   H         1 RES1   0.0000
    15 C6       8.1292   6.5314  12.0878   C.ar      1 RES1   0.0000
    16 H3       7.7007   6.0383  12.7775   H         1 RES1   0.0000
    17 C7       9.4827   9.2169   7.1964   C.3       1 RES1   0.0000
    18 H4       9.3138   8.3304   6.8119   H         1 RES1   0.0000
    19 H5      10.0252   9.7451   6.5738   H         1 RES1   0.0000
    20 H6       8.6302   9.6727   7.3534   H         1 RES1   0.0000
    21 C8      12.1033   8.3407   8.4805   C.3       1 RES1   0.0000
    22 H7      12.4577   7.9334   9.2988   H         1 RES1   0.0000
    23 H8      12.6976   9.0652   8.1923   H         1 RES1   0.0000
    24 H9      12.0506   7.6614   7.7753   H         1 RES1   0.0000
    25 C9      10.6349  10.7393   9.5484   C.3       1 RES1   0.0000
    26 H10      9.7617  11.1664   9.6726   H         1 RES1   0.0000
    27 H11     11.1809  11.2826   8.9423   H         1 RES1   0.0000
    28 H12     11.0869  10.6619  10.4140   H         1 RES1   0.0000
    29 C10      8.9600   3.5559  12.4821   C.ar      1 RES1   0.0000
    30 C11     10.2950   3.4269  12.8540   C.ar      1 RES1   0.0000
    31 H13     10.9724   3.5072  12.1928   H         1 RES1   0.0000
    32 C12     10.6555   3.1848  14.1715   C.ar      1 RES1   0.0000
    33 H14     11.5727   3.0948  14.4010   H         1 RES1   0.0000
    34 C13      9.6896   3.0729  15.1509   C.ar      1 RES1   0.0000
    35 H15      9.9365   2.8952  16.0515   H         1 RES1   0.0000
    36 C14      8.3588   3.2218  14.8062   C.ar      1 RES1   0.0000
    37 H16      7.6884   3.1584  15.4766   H         1 RES1   0.0000
    38 C15      7.9948   3.4616  13.4957   C.ar      1 RES1   0.0000
    39 H17      7.0758   3.5642  13.2772   H         1 RES1   0.0000
    40 C16      6.7363   3.7388  10.6798   C.ar      1 RES1   0.0000
    41 C17      6.1385   2.5706  11.1603   C.ar      1 RES1   0.0000
    42 H18      6.6586   1.9455  11.6525   H         1 RES1   0.0000
    43 C18      4.7964   2.3118  10.9274   C.ar      1 RES1   0.0000
    44 H19      4.4011   1.5178  11.2701   H         1 RES1   0.0000
    45 C19      4.0331   3.1995  10.2007   C.ar      1 RES1   0.0000
    46 H20      3.1161   3.0159  10.0328   H         1 RES1   0.0000
    47 C20      4.6075   4.3591   9.7165   C.ar      1 RES1   0.0000
    48 H21      4.0853   4.9723   9.2137   H         1 RES1   0.0000
    49 C21      5.9467   4.6291   9.9626   C.ar      1 RES1   0.0000
    50 H22      6.3298   5.4351   9.6356   H         1 RES1   0.0000
    51 C22     13.0505   4.4062   8.8698   C.3       1 RES1   0.0000
    52 H23     12.7417   5.2706   9.2125   H         1 RES1   0.0000
    53 H24     13.8377   4.5424   8.3021   H         1 RES1   0.0000
    54 H25     13.2862   3.8230   9.6208   H         1 RES1   0.0000
    55 C23     12.6386   2.1837   7.2068   C.3       1 RES1   0.0000
    56 H26     12.8396   1.5529   7.9295   H         1 RES1   0.0000
    57 H27     13.4761   2.4895   6.7996   H         1 RES1   0.0000
    58 H28     12.0890   1.7393   6.5282   H         1 RES1   0.0000
    59 C24     11.8003   4.6497   6.3669   C.3       1 RES1   0.0000
    60 H29     11.2952   4.2091   5.6523   H         1 RES1   0.0000
    61 H30     12.7347   4.7508   6.0902   H         1 RES1   0.0000
    62 H31     11.4137   5.5317   6.5442   H         1 RES1   0.0000
    63 C25      7.4308   4.4076   6.6345   C.3       1 RES1   0.0000
    64 H32      6.8893   4.8561   7.3164   H         1 RES1   0.0000
    65 H33      6.8456   4.0577   5.9299   H         1 RES1   0.0000
    66 H34      8.0636   5.0469   6.2457   H         1 RES1   0.0000
    67 C26      6.9592   1.8762   7.7092   C.3       1 RES1   0.0000
    68 H35      7.3136   0.9980   7.9579   H         1 RES1   0.0000
    69 H36      6.4175   1.7920   6.8970   H         1 RES1   0.0000
    70 H37      6.4035   2.2241   8.4378   H         1 RES1   0.0000
    71 C27      8.9879   2.2620   5.8531   C.3       1 RES1   0.0000
    72 H38      9.5832   2.8930   5.3970   H         1 RES1   0.0000
    73 H39      8.2355   2.0398   5.2662   H         1 RES1   0.0000
    74 H40      9.4829   1.4454   6.0742   H         1 RES1   0.0000
    75 C28     10.2172   0.0869   8.3037   C.3       1 RES1   0.0000
    76 H41      9.3345  -0.0483   7.8999   H         1 RES1   0.0000
    77 H42     10.5226  -0.7501   8.7104   H         1 RES1   0.0000
    78 H43     10.8537   0.3641   7.6125   H         1 RES1   0.0000
    79 C29     11.6027   0.9842  10.5710   C.3       1 RES1   0.0000
    80 H44     12.3934   1.3577  10.1290   H         1 RES1   0.0000
    81 H45     11.6954   0.0110  10.6360   H         1 RES1   0.0000
    82 H46     11.5203   1.3643  11.4699   H         1 RES1   0.0000
    83 C30      8.8684   0.5453  10.6399   C.3       1 RES1   0.0000
    84 H47      8.8114   0.9958  11.5082   H         1 RES1   0.0000
    85 H48      9.1369  -0.3882  10.7730   H         1 RES1   0.0000
    86 H49      7.9938   0.5747  10.1981   H         1 RES1   0.0000
    87 H50     10.7364   3.8011  10.0908   H         1 RES1   0.0000
@<TRIPOS>BOND
     1     1     2    1
     2     2     9    1
     3     3     1    1
     4     4     1    1
     5     5     1    1
     6     6     1    1
     7     7    10    1
     8     8     3    1
     9     9     8   ar
    10    10     9   ar
    11    11    10   ar
    12    12    11    1
    13    13    11   ar
    14    14    13    1
    15    15     8   ar
    16    16    15    1
    17    17     7    1
    18    18    17    1
    19    19    17    1
    20    20    17    1
    21    21     7    1
    22    22    21    1
    23    23    21    1
    24    24    21    1
    25    25     7    1
    26    26    25    1
    27    27    25    1
    28    28    25    1
    29    29     3    1
    30    30    29   ar
    31    31    30    1
    32    32    30   ar
    33    33    32    1
    34    34    32   ar
    35    35    34    1
    36    36    34   ar
    37    37    36    1
    38    38    29   ar
    39    39    38    1
    40    40     3    1
    41    41    40   ar
    42    42    41    1
    43    43    41   ar
    44    44    43    1
    45    45    43   ar
    46    46    45    1
    47    47    45   ar
    48    48    47    1
    49    49    40   ar
    50    50    49    1
    51    51     4    1
    52    52    51    1
    53    53    51    1
    54    54    51    1
    55    55     4    1
    56    56    55    1
    57    57    55    1
    58    58    55    1
    59    59     4    1
    60    60    59    1
    61    61    59    1
    62    62    59    1
    63    63     5    1
    64    64    63    1
    65    65    63    1
    66    66    63    1
    67    67     5    1
    68    68    67    1
    69    69    67    1
    70    70    67    1
    71    71     5    1
    72    72    71    1
    73    73    71    1
    74    74    71    1
    75    75     6    1
    76    76    75    1
    77    77    75    1
    78    78    75    1
    79    79     6    1
    80    80    79    1
    81    81    79    1
    82    82    79    1
    83    83     6    1
    84    84    83    1
    85    85    83    1
    86    86    83    1
    87    87     1    1
    88    13    15   ar
    89    36    38   ar
    90    47    49   ar
@<TRIPOS>SUBSTRUCTURE
     1 RES1        1 GROUP             0 ****  ****    0  
@<TRIPOS>CRYSIN
   12.4708   21.9336   12.7769   90.0000  105.0970   90.0000   231     1
