@<TRIPOS>MOLECULE
VUFJOX
    78    81     1     0     0
SMALL
NO_CHARGES
****
Generated from the CSD

@<TRIPOS>ATOM
     1 S1       0.4095   3.2563   2.6678   S.3       1 RES1   0.0000
     2 Fe1      2.4902   2.2981   3.1859   Fe        1 RES1   0.0000
     3 P1       1.6418   0.2292   2.9238   P.3       1 RES1   0.0000
     4 P2       1.9675   2.8439   5.2380   P.3       1 RES1   0.0000
     5 P3       4.5560   1.6440   3.5311   P.3       1 RES1   0.0000
     6 P4       2.9076   2.9903   1.0946   P.3       1 RES1   0.0000
     7 C1       1.0269   1.6926   6.3404   C.ar      1 RES1   0.0000
     8 C2       1.6440   0.5414   6.8368   C.ar      1 RES1   0.0000
     9 H1       2.5632   0.3898   6.6520   H         1 RES1   0.0000
    10 C3       0.9385  -0.3878   7.5963   C.ar      1 RES1   0.0000
    11 H2       1.3770  -1.1622   7.9305   H         1 RES1   0.0000
    12 C4      -0.4110  -0.1809   7.8670   C.ar      1 RES1   0.0000
    13 H3      -0.8963  -0.8101   8.3871   H         1 RES1   0.0000
    14 C5      -1.0422   0.9456   7.3753   C.ar      1 RES1   0.0000
    15 H4      -1.9642   1.0885   7.5579   H         1 RES1   0.0000
    16 C6      -0.3339   1.8757   6.6111   C.ar      1 RES1   0.0000
    17 H5      -0.7816   2.6423   6.2721   H         1 RES1   0.0000
    18 C7       3.2392   3.5349   6.3919   C.ar      1 RES1   0.0000
    19 C8       3.9751   4.6333   5.9342   C.ar      1 RES1   0.0000
    20 H6       3.7806   5.0026   5.0812   H         1 RES1   0.0000
    21 C9       4.9870   5.1938   6.7093   C.ar      1 RES1   0.0000
    22 H7       5.4750   5.9403   6.3817   H         1 RES1   0.0000
    23 C10      5.2824   4.6653   7.9554   C.ar      1 RES1   0.0000
    24 H8       5.9897   5.0296   8.4748   H         1 RES1   0.0000
    25 C11      4.5430   3.6060   8.4353   C.ar      1 RES1   0.0000
    26 H9       4.7319   3.2531   9.2967   H         1 RES1   0.0000
    27 C12      3.5182   3.0461   7.6675   C.ar      1 RES1   0.0000
    28 H10      3.0063   2.3262   8.0182   H         1 RES1   0.0000
    29 C13      0.8183   4.2592   5.1707   C.ar      1 RES1   0.0000
    30 C14      0.5633   5.1194   6.2440   C.ar      1 RES1   0.0000
    31 H11      1.0688   5.0278   7.0428   H         1 RES1   0.0000
    32 C15     -0.4137   6.1039   6.1643   C.ar      1 RES1   0.0000
    33 C16     -1.1293   6.2230   4.9669   C.ar      1 RES1   0.0000
    34 H12     -1.7954   6.8959   4.8913   H         1 RES1   0.0000
    35 C17     -0.8872   5.3788   3.8860   C.ar      1 RES1   0.0000
    36 H13     -1.3871   5.4805   3.0867   H         1 RES1   0.0000
    37 C18      0.0960   4.3741   3.9758   C.ar      1 RES1   0.0000
    38 C19     -0.6880   7.0084   7.3442   C.3       1 RES1   0.0000
    39 H14     -0.0899   6.7720   8.0839   H         1 RES1   0.0000
    40 H15     -1.6192   6.8995   7.6310   H         1 RES1   0.0000
    41 H16     -0.5339   7.9414   7.0830   H         1 RES1   0.0000
    42 C20      1.6064  -0.4446   1.2223   C.3       1 RES1   0.0000
    43 H17      1.2183  -1.3454   1.2347   H         1 RES1   0.0000
    44 H18      2.5192  -0.4868   0.8694   H         1 RES1   0.0000
    45 H19      1.0614   0.1365   0.6502   H         1 RES1   0.0000
    46 C21      2.3366  -1.2409   3.7837   C.3       1 RES1   0.0000
    47 H20      1.8238  -2.0370   3.5360   H         1 RES1   0.0000
    48 H21      2.2834  -1.1083   4.7525   H         1 RES1   0.0000
    49 H22      3.2733  -1.3598   3.5214   H         1 RES1   0.0000
    50 C22     -0.1174  -0.0327   3.3651   C.3       1 RES1   0.0000
    51 H23     -0.3587  -0.9700   3.2073   H         1 RES1   0.0000
    52 H24     -0.6825   0.5479   2.8128   H         1 RES1   0.0000
    53 H25     -0.2523   0.1832   4.3105   H         1 RES1   0.0000
    54 C23      5.8337   2.9567   3.4604   C.3       1 RES1   0.0000
    55 H26      6.7154   2.5633   3.6274   H         1 RES1   0.0000
    56 H27      5.6438   3.6339   4.1424   H         1 RES1   0.0000
    57 H28      5.8237   3.3752   2.5753   H         1 RES1   0.0000
    58 C24      5.0540   0.8732   5.1214   C.3       1 RES1   0.0000
    59 H29      6.0071   0.6485   5.0922   H         1 RES1   0.0000
    60 H30      4.5310   0.0575   5.2675   H         1 RES1   0.0000
    61 H31      4.8888   1.5017   5.8556   H         1 RES1   0.0000
    62 C25      5.2934   0.3684   2.4106   C.3       1 RES1   0.0000
    63 H32      6.2136   0.1814   2.6886   H         1 RES1   0.0000
    64 H33      5.2925   0.7023   1.4904   H         1 RES1   0.0000
    65 H34      4.7641  -0.4545   2.4584   H         1 RES1   0.0000
    66 C26      1.7082   2.6610  -0.2663   C.3       1 RES1   0.0000
    67 H35      2.0541   3.0339  -1.1032   H         1 RES1   0.0000
    68 H36      0.8486   3.0806  -0.0511   H         1 RES1   0.0000
    69 H37      1.5843   1.6939  -0.3653   H         1 RES1   0.0000
    70 C27      3.0045   4.8171   1.0232   C.3       1 RES1   0.0000
    71 H38      3.1870   5.0996   0.1023   H         1 RES1   0.0000
    72 H39      3.7256   5.1284   1.6109   H         1 RES1   0.0000
    73 H40      2.1531   5.2020   1.3187   H         1 RES1   0.0000
    74 C28      4.4246   2.6089   0.1081   C.3       1 RES1   0.0000
    75 H41      4.3567   3.0321  -0.7744   H         1 RES1   0.0000
    76 H42      4.5090   1.6382   0.0000   H         1 RES1   0.0000
    77 H43      5.2136   2.9549   0.5772   H         1 RES1   0.0000
    78 H44      2.9907   3.6590   3.3863   H         1 RES1   0.0000
@<TRIPOS>BOND
     1     1     2    1
     2     2     3    1
     3     3    42    1
     4     4     2    1
     5     5     2    1
     6     6     2    1
     7     7     4    1
     8     8     7   ar
     9     9     8    1
    10    10     8   ar
    11    11    10    1
    12    12    10   ar
    13    13    12    1
    14    14    12   ar
    15    15    14    1
    16    16     7   ar
    17    17    16    1
    18    18     4    1
    19    19    18   ar
    20    20    19    1
    21    21    19   ar
    22    22    21    1
    23    23    21   ar
    24    24    23    1
    25    25    23   ar
    26    26    25    1
    27    27    18   ar
    28    28    27    1
    29    29     4    1
    30    30    29   ar
    31    31    30    1
    32    32    30   ar
    33    33    32   ar
    34    34    33    1
    35    35    33   ar
    36    36    35    1
    37    37     1    1
    38    38    32    1
    39    39    38    1
    40    40    38    1
    41    41    38    1
    42    42    43    1
    43    44    42    1
    44    45    42    1
    45    46     3    1
    46    47    46    1
    47    48    46    1
    48    49    46    1
    49    50     3    1
    50    51    50    1
    51    52    50    1
    52    53    50    1
    53    54     5    1
    54    55    54    1
    55    56    54    1
    56    57    54    1
    57    58     5    1
    58    59    58    1
    59    60    58    1
    60    61    58    1
    61    62     5    1
    62    63    62    1
    63    64    62    1
    64    65    62    1
    65    66     6    1
    66    67    66    1
    67    68    66    1
    68    69    66    1
    69    70     6    1
    70    71    70    1
    71    72    70    1
    72    73    70    1
    73    74     6    1
    74    75    74    1
    75    76    74    1
    76    77    74    1
    77    78     2    1
    78    14    16   ar
    79    25    27   ar
    80    29    37   ar
    81    35    37   ar
@<TRIPOS>SUBSTRUCTURE
     1 RES1        1 GROUP             0 ****  ****    0  
@<TRIPOS>CRYSIN
    9.1740   17.9628   36.5293   90.0000   90.0000   90.0000    61     1
