@<TRIPOS>MOLECULE
VUFXIF
    81    89     1     0     0
SMALL
NO_CHARGES
****
Generated from the CSD

@<TRIPOS>ATOM
     1 Fe1      6.4559   6.8265   8.0762   Fe        1 RES1   0.0000
     2 P1       5.0870   6.5435   6.3265   P.3       1 RES1   0.0000
     3 P2       7.4387   7.1247  10.0724   P.3       1 RES1   0.0000
     4 O1       8.1835   8.7053   6.7075   O.2       1 RES1   0.0000
     5 O2       5.2146   8.2031   8.6636   O.3       1 RES1   0.0000
     6 O3       5.2716   5.5855   9.0020   O.3       1 RES1   0.0000
     7 N1       7.5043   5.3076   7.6042   N.1       1 RES1   0.0000
     8 C1       7.4979   7.9680   7.2518   C.1       1 RES1   0.0000
     9 C2       8.0037   4.3190   7.3562   C.1       1 RES1   0.0000
    10 C3       8.6366   3.0430   7.0620   C.3       1 RES1   0.0000
    11 H1       9.4063   3.1875   6.4716   H         1 RES1   0.0000
    12 H2       7.9923   2.4534   6.6182   H         1 RES1   0.0000
    13 H3       8.9395   2.6275   7.8964   H         1 RES1   0.0000
    14 C4       4.3496   7.6855   9.6305   C.3       1 RES1   0.0000
    15 H4       3.4886   8.1913   9.5914   H         1 RES1   0.0000
    16 C5       4.0615   6.2059   9.3193   C.3       1 RES1   0.0000
    17 H5       3.6846   5.7723  10.1376   H         1 RES1   0.0000
    18 C6       3.0454   6.0844   8.1916   C.ar      1 RES1   0.0000
    19 C7       1.7213   5.8019   8.5290   C.ar      1 RES1   0.0000
    20 H6       1.4826   5.7001   9.4438   H         1 RES1   0.0000
    21 C8       0.7602   5.6689   7.5631   C.ar      1 RES1   0.0000
    22 H7      -0.1343   5.4751   7.8141   H         1 RES1   0.0000
    23 C9       1.0775   5.8134   6.2366   C.ar      1 RES1   0.0000
    24 H8       0.4046   5.7296   5.5709   H         1 RES1   0.0000
    25 C10      2.3841   6.0811   5.8791   C.ar      1 RES1   0.0000
    26 H9       2.6086   6.1648   4.9604   H         1 RES1   0.0000
    27 C11      3.3748   6.2272   6.8391   C.ar      1 RES1   0.0000
    28 C12      5.4926   5.1023   5.2877   C.ar      1 RES1   0.0000
    29 C13      6.5318   5.1549   4.3730   C.ar      1 RES1   0.0000
    30 H10      6.9589   5.9858   4.2033   H         1 RES1   0.0000
    31 C14      6.9622   4.0217   3.7012   C.ar      1 RES1   0.0000
    32 H11      7.6653   4.0776   3.0656   H         1 RES1   0.0000
    33 C15      6.3459   2.7983   3.9713   C.ar      1 RES1   0.0000
    34 H12      6.6372   2.0150   3.5205   H         1 RES1   0.0000
    35 C16      5.3323   2.7211   4.8770   C.ar      1 RES1   0.0000
    36 H13      4.9164   1.8852   5.0558   H         1 RES1   0.0000
    37 C17      4.9022   3.8707   5.5428   C.ar      1 RES1   0.0000
    38 H14      4.1984   3.8083   6.1774   H         1 RES1   0.0000
    39 C18      4.9193   7.9647   5.1893   C.ar      1 RES1   0.0000
    40 C19      5.0509   9.2472   5.7094   C.ar      1 RES1   0.0000
    41 H15      5.2221   9.3605   6.6373   H         1 RES1   0.0000
    42 C20      4.9365  10.3524   4.9061   C.ar      1 RES1   0.0000
    43 H16      5.0264  11.2195   5.2817   H         1 RES1   0.0000
    44 C21      4.6925  10.2128   3.5616   C.ar      1 RES1   0.0000
    45 H17      4.6427  10.9781   3.0013   H         1 RES1   0.0000
    46 C22      4.5204   8.9434   3.0294   C.ar      1 RES1   0.0000
    47 H18      4.3144   8.8432   2.1077   H         1 RES1   0.0000
    48 C23      4.6464   7.8284   3.8297   C.ar      1 RES1   0.0000
    49 H19      4.5468   6.9613   3.4522   H         1 RES1   0.0000
    50 C24      4.8885   7.7561  11.0544   C.ar      1 RES1   0.0000
    51 C25      4.0216   8.0353  12.0967   C.ar      1 RES1   0.0000
    52 H20      3.1033   8.1864  11.9019   H         1 RES1   0.0000
    53 C26      4.4409   8.1026  13.4010   C.ar      1 RES1   0.0000
    54 H21      3.8187   8.3095  14.0878   H         1 RES1   0.0000
    55 C27      5.7620   7.8711  13.7193   C.ar      1 RES1   0.0000
    56 H22      6.0543   7.9154  14.6220   H         1 RES1   0.0000
    57 C28      6.6496   7.5771  12.7132   C.ar      1 RES1   0.0000
    58 H23      7.5624   7.4195  12.9251   H         1 RES1   0.0000
    59 C29      6.2232   7.5049  11.3677   C.ar      1 RES1   0.0000
    60 C30      8.6206   8.5197  10.1386   C.ar      1 RES1   0.0000
    61 C31      8.2624   9.7547  10.6809   C.ar      1 RES1   0.0000
    62 H24      7.4271   9.8565  11.1207   H         1 RES1   0.0000
    63 C32      9.1208  10.8254  10.5774   C.ar      1 RES1   0.0000
    64 H25      8.8734  11.6662  10.9449   H         1 RES1   0.0000
    65 C33     10.3425  10.6858   9.9428   C.ar      1 RES1   0.0000
    66 H26     10.9373  11.4248   9.8826   H         1 RES1   0.0000
    67 C34     10.6894   9.4804   9.4026   C.ar      1 RES1   0.0000
    68 H27     11.5290   9.3852   8.9678   H         1 RES1   0.0000
    69 C35      9.8337   8.3982   9.4799   C.ar      1 RES1   0.0000
    70 H28     10.0774   7.5705   9.0813   H         1 RES1   0.0000
    71 C36      8.3151   5.6804  10.7592   C.ar      1 RES1   0.0000
    72 C37      7.6653   4.4438  10.7009   C.ar      1 RES1   0.0000
    73 H29      6.7992   4.3912  10.3144   H         1 RES1   0.0000
    74 C38      8.2567   3.2992  11.1920   C.ar      1 RES1   0.0000
    75 H30      7.8005   2.4666  11.1468   H         1 RES1   0.0000
    76 C39      9.5151   3.3714  11.7482   C.ar      1 RES1   0.0000
    77 H31      9.9315   2.5832  12.0756   H         1 RES1   0.0000
    78 C40     10.1604   4.5538  11.8316   C.ar      1 RES1   0.0000
    79 H32     11.0230   4.5932  12.2272   H         1 RES1   0.0000
    80 C41      9.5648   5.7214  11.3406   C.ar      1 RES1   0.0000
    81 H33     10.0276   6.5491  11.4068   H         1 RES1   0.0000
@<TRIPOS>BOND
     1     1     2    1
     2     2    27    1
     3     3     1    1
     4     4     8    3
     5     5     1    1
     6     6     1    1
     7     7     1    1
     8     8     1    1
     9     9     7    3
    10    10     9    1
    11    11    10    1
    12    12    10    1
    13    13    10    1
    14    14     5    1
    15    15    14    1
    16    16     6    1
    17    17    16    1
    18    18    16    1
    19    19    18   ar
    20    20    19    1
    21    21    19   ar
    22    22    21    1
    23    23    21   ar
    24    24    23    1
    25    25    23   ar
    26    26    25    1
    27    27    18   ar
    28    28     2    1
    29    29    28   ar
    30    30    29    1
    31    31    29   ar
    32    32    31    1
    33    33    31   ar
    34    34    33    1
    35    35    33   ar
    36    36    35    1
    37    37    28   ar
    38    38    37    1
    39    39     2    1
    40    40    39   ar
    41    41    40    1
    42    42    40   ar
    43    43    42    1
    44    44    42   ar
    45    45    44    1
    46    46    44   ar
    47    47    46    1
    48    48    39   ar
    49    49    48    1
    50    50    14    1
    51    51    50   ar
    52    52    51    1
    53    53    51   ar
    54    54    53    1
    55    55    53   ar
    56    56    55    1
    57    57    55   ar
    58    58    57    1
    59    59     3    1
    60    60     3    1
    61    61    60   ar
    62    62    61    1
    63    63    61   ar
    64    64    63    1
    65    65    63   ar
    66    66    65    1
    67    67    65   ar
    68    68    67    1
    69    69    60   ar
    70    70    69    1
    71    71     3    1
    72    72    71   ar
    73    73    72    1
    74    74    72   ar
    75    75    74    1
    76    76    74   ar
    77    77    76    1
    78    78    76   ar
    79    79    78    1
    80    80    71   ar
    81    81    80    1
    82    14    16    1
    83    25    27   ar
    84    35    37   ar
    85    46    48   ar
    86    50    59   ar
    87    57    59   ar
    88    67    69   ar
    89    78    80   ar
@<TRIPOS>SUBSTRUCTURE
     1 RES1        1 GROUP             0 ****  ****    0  
@<TRIPOS>CRYSIN
   10.5050   16.4220   10.7680   90.0000  111.1710   90.0000     4     1
