@<TRIPOS>MOLECULE
VUFXOL
    98   104     3     0     0
SMALL
NO_CHARGES
****
Generated from the CSD

@<TRIPOS>ATOM
     1 Fe1      0.0280   5.4678   7.3549   Fe        1 RES1   0.0000
     2 P1       0.4049   4.7697   5.2559   P.3       1 RES1   0.0000
     3 P2      -0.7587   7.5719   6.9471   P.3       1 RES1   0.0000
     4 P3       0.4460   3.5140   8.4397   P.3       1 RES1   0.0000
     5 O1       2.8268   6.2112   7.3922   O.2       1 RES1   0.0000
     6 O2      -0.3655   6.1144   9.1772   O.3       1 RES1   0.0000
     7 O3      -1.8599   4.9051   7.3587   O.3       1 RES1   0.0000
     8 C1       1.7027   5.9292   7.3916   C.1       1 RES1   0.0000
     9 C2       1.6475   3.4611   5.0051   C.3       1 RES1   0.0000
    10 H1       2.4955   3.7337   5.4144   H         1 RES1   0.0000
    11 H2       1.7789   3.3150   4.0443   H         1 RES1   0.0000
    12 H3       1.3355   2.6313   5.4208   H         1 RES1   0.0000
    13 C3       1.1398   5.9886   4.1059   C.3       1 RES1   0.0000
    14 H4       0.5010   6.7157   3.9484   H         1 RES1   0.0000
    15 H5       1.3509   5.5490   3.2559   H         1 RES1   0.0000
    16 H6       1.9595   6.3534   4.4981   H         1 RES1   0.0000
    17 C4      -1.0106   4.1272   4.3123   C.3       1 RES1   0.0000
    18 H7      -1.4089   3.3715   4.7943   H         1 RES1   0.0000
    19 H8      -0.7072   3.8292   3.4306   H         1 RES1   0.0000
    20 H9      -1.6801   4.8342   4.2041   H         1 RES1   0.0000
    21 C5      -2.5460   5.4432   8.4565   C.3       1 RES1   0.0000
    22 H10     -3.2715   4.8069   8.7171   H         1 RES1   0.0000
    23 C6      -1.5712   5.5959   9.6562   C.3       1 RES1   0.0000
    24 H11     -1.9636   6.2580  10.2939   H         1 RES1   0.0000
    25 C7      -1.4357   4.2775  10.3704   C.ar      1 RES1   0.0000
    26 C8      -2.1775   4.0436  11.5381   C.ar      1 RES1   0.0000
    27 H12     -2.7222   4.7368  11.8920   H         1 RES1   0.0000
    28 C9      -2.1308   2.8277  12.1795   C.ar      1 RES1   0.0000
    29 H13     -2.6410   2.6917  12.9702   H         1 RES1   0.0000
    30 C10     -1.3471   1.8022  11.6815   C.ar      1 RES1   0.0000
    31 H14     -1.3249   0.9583  12.1158   H         1 RES1   0.0000
    32 C11     -0.5992   2.0246  10.5460   C.ar      1 RES1   0.0000
    33 H15     -0.0488   1.3283  10.2066   H         1 RES1   0.0000
    34 C12     -0.6344   3.2544   9.8827   C.ar      1 RES1   0.0000
    35 C13      0.1693   1.9187   7.5829   C.ar      1 RES1   0.0000
    36 C14     -1.0805   1.7633   6.9746   C.ar      1 RES1   0.0000
    37 H16     -1.7246   2.4580   7.0445   H         1 RES1   0.0000
    38 C15     -1.3936   0.6182   6.2774   C.ar      1 RES1   0.0000
    39 H17     -2.2526   0.5181   5.8853   H         1 RES1   0.0000
    40 C16     -0.4415  -0.3971   6.1489   C.ar      1 RES1   0.0000
    41 H18     -0.6372  -1.1745   5.6402   H         1 RES1   0.0000
    42 C17      0.7718  -0.2631   6.7596   C.ar      1 RES1   0.0000
    43 H19      1.4109  -0.9622   6.6886   H         1 RES1   0.0000
    44 C18      1.0884   0.8833   7.4836   C.ar      1 RES1   0.0000
    45 H20      1.9337   0.9563   7.9096   H         1 RES1   0.0000
    46 C19      2.1008   3.4050   9.2104   C.ar      1 RES1   0.0000
    47 C20      3.2433   3.1399   8.4678   C.ar      1 RES1   0.0000
    48 H21      3.1682   2.9761   7.5345   H         1 RES1   0.0000
    49 C21      4.4978   3.1105   9.0702   C.ar      1 RES1   0.0000
    50 H22      5.2671   2.9060   8.5509   H         1 RES1   0.0000
    51 C22      4.6293   3.3754  10.4069   C.ar      1 RES1   0.0000
    52 H23      5.4841   3.3403  10.8202   H         1 RES1   0.0000
    53 C23      3.5124   3.6928  11.1426   C.ar      1 RES1   0.0000
    54 H24      3.6041   3.9051  12.0646   H         1 RES1   0.0000
    55 C24      2.2536   3.7065  10.5618   C.ar      1 RES1   0.0000
    56 H25      1.4929   3.9207  11.0887   H         1 RES1   0.0000
    57 C25     -3.1643   6.7947   8.1991   C.ar      1 RES1   0.0000
    58 C26     -4.4668   7.0528   8.6125   C.ar      1 RES1   0.0000
    59 H26     -4.9771   6.3534   9.0048   H         1 RES1   0.0000
    60 C27     -5.0363   8.3001   8.4659   C.ar      1 RES1   0.0000
    61 H27     -5.9230   8.4589   8.7661   H         1 RES1   0.0000
    62 C28     -4.3110   9.3186   7.8802   C.ar      1 RES1   0.0000
    63 H28     -4.6979  10.1806   7.7796   H         1 RES1   0.0000
    64 C29     -3.0352   9.0874   7.4448   C.ar      1 RES1   0.0000
    65 H29     -2.5480   9.7872   7.0253   H         1 RES1   0.0000
    66 C30     -2.4374   7.8321   7.6083   C.ar      1 RES1   0.0000
    67 C31     -1.0993   8.1782   5.2501   C.ar      1 RES1   0.0000
    68 C32     -2.1014   7.4928   4.5655   C.ar      1 RES1   0.0000
    69 H30     -2.5735   6.7975   5.0095   H         1 RES1   0.0000
    70 C33     -2.4267   7.8005   3.2533   C.ar      1 RES1   0.0000
    71 H31     -3.1093   7.3175   2.8041   H         1 RES1   0.0000
    72 C34     -1.7520   8.8133   2.6060   C.ar      1 RES1   0.0000
    73 H32     -1.9682   9.0295   1.7068   H         1 RES1   0.0000
    74 C35     -0.7698   9.5087   3.2618   C.ar      1 RES1   0.0000
    75 H33     -0.3029  10.2021   2.8084   H         1 RES1   0.0000
    76 C36     -0.4476   9.2113   4.5846   C.ar      1 RES1   0.0000
    77 H34      0.2206   9.7151   5.0330   H         1 RES1   0.0000
    78 C37      0.2397   8.8895   7.7246   C.ar      1 RES1   0.0000
    79 C38     -0.2031   9.5934   8.8401   C.ar      1 RES1   0.0000
    80 H35     -1.0591   9.4074   9.2051   H         1 RES1   0.0000
    81 C39      0.5994  10.5643   9.4224   C.ar      1 RES1   0.0000
    82 H36      0.2880  11.0318  10.1895   H         1 RES1   0.0000
    83 C40      1.8306  10.8584   8.9068   C.ar      1 RES1   0.0000
    84 H37      2.3699  11.5323   9.3010   H         1 RES1   0.0000
    85 C41      2.2835  10.1543   7.7945   C.ar      1 RES1   0.0000
    86 H38      3.1386  10.3520   7.4280   H         1 RES1   0.0000
    87 C42      1.5062   9.1743   7.2181   C.ar      1 RES1   0.0000
    88 H39      1.8362   8.6887   6.4713   H         1 RES1   0.0000
    89 Cl1      2.5755  16.7187  15.7205   Cl        2 RES2   0.0000
    90 Cl2      2.9429  14.0988  16.9203   Cl        2 RES2   0.0000
    91 C43      2.4902  14.9798  15.4673   C.3       2 RES2   0.0000
    92 H40      1.5684  14.7305  15.2054   H         2 RES2   0.0000
    93 H41      3.0968  14.7246  14.7260   H         2 RES2   0.0000
    94 Cl3      3.0685   7.2875  11.2415   Cl        3 RES3   0.0000
    95 Cl4      0.5946   6.7392  12.6455   Cl        3 RES3   0.0000
    96 C44      1.3231   7.4909  11.2541   C.3       3 RES3   0.0000
    97 H42      1.1068   8.4569  11.2549   H         3 RES3   0.0000
    98 H43      0.9421   7.0935  10.4303   H         3 RES3   0.0000
@<TRIPOS>BOND
     1     1     2    1
     2     2     9    1
     3     3     1    1
     4     4     1    1
     5     5     8    3
     6     6     1    1
     7     7     1    1
     8     8     1    1
     9     9    10    1
    10    11     9    1
    11    12     9    1
    12    13     2    1
    13    14    13    1
    14    15    13    1
    15    16    13    1
    16    17     2    1
    17    18    17    1
    18    19    17    1
    19    20    17    1
    20    21     7    1
    21    22    21    1
    22    23     6    1
    23    24    23    1
    24    25    23    1
    25    26    25   ar
    26    27    26    1
    27    28    26   ar
    28    29    28    1
    29    30    28   ar
    30    31    30    1
    31    32    30   ar
    32    33    32    1
    33    34     4    1
    34    35     4    1
    35    36    35   ar
    36    37    36    1
    37    38    36   ar
    38    39    38    1
    39    40    38   ar
    40    41    40    1
    41    42    40   ar
    42    43    42    1
    43    44    35   ar
    44    45    44    1
    45    46     4    1
    46    47    46   ar
    47    48    47    1
    48    49    47   ar
    49    50    49    1
    50    51    49   ar
    51    52    51    1
    52    53    51   ar
    53    54    53    1
    54    55    46   ar
    55    56    55    1
    56    57    21    1
    57    58    57   ar
    58    59    58    1
    59    60    58   ar
    60    61    60    1
    61    62    60   ar
    62    63    62    1
    63    64    62   ar
    64    65    64    1
    65    66     3    1
    66    67     3    1
    67    68    67   ar
    68    69    68    1
    69    70    68   ar
    70    71    70    1
    71    72    70   ar
    72    73    72    1
    73    74    72   ar
    74    75    74    1
    75    76    67   ar
    76    77    76    1
    77    78     3    1
    78    79    78   ar
    79    80    79    1
    80    81    79   ar
    81    82    81    1
    82    83    81   ar
    83    84    83    1
    84    85    83   ar
    85    86    85    1
    86    87    78   ar
    87    88    87    1
    88    21    23    1
    89    25    34   ar
    90    32    34   ar
    91    42    44   ar
    92    53    55   ar
    93    57    66   ar
    94    64    66   ar
    95    74    76   ar
    96    85    87   ar
    97    89    91    1
    98    90    91    1
    99    91    92    1
   100    93    91    1
   101    94    96    1
   102    95    96    1
   103    96    97    1
   104    98    96    1
@<TRIPOS>SUBSTRUCTURE
     1 RES1        1 GROUP             0 ****  ****    0  
     2 RES2       89 GROUP             0 ****  ****    0  
     3 RES3       94 GROUP             0 ****  ****    0  
@<TRIPOS>CRYSIN
   10.3420   19.4770   21.4170   90.0000   95.7810   90.0000   231     1
