@<TRIPOS>MOLECULE
VUJRIC
   100   109     2     0     0
SMALL
USER_CHARGES
****
Generated from the CSD

@<TRIPOS>ATOM
     1 Fe1      2.4717   2.2905   6.0852   Fe        1 RES1   2.0000
     2 N1       2.3841   2.3272   3.2097   N.pl3     1 RES1   0.0000
     3 N2       3.7644   3.6470   5.4002   N.2       1 RES1   0.0000
     4 N3       4.1936   1.1325   4.0917   N.pl3     1 RES1   0.0000
     5 N4       3.6756   0.8957   5.3542   N.2       1 RES1   0.0000
     6 N5       1.5607   2.3382   4.3153   N.2       1 RES1   0.0000
     7 C1       0.3191   2.3869   3.8446   C.2       1 RES1   0.0000
     8 C2       3.8257   2.3030   3.3261   C.cat     1 RES1  -1.0000
     9 C3       4.2032  -0.2590   5.7541   C.2       1 RES1   0.0000
    10 N6       4.1945   3.4624   4.1060   N.pl3     1 RES1   0.0000
    11 C4       5.0635  -0.7617   4.7647   C.2       1 RES1   0.0000
    12 H1       5.5621  -1.5694   4.8000   H         1 RES1   0.0000
    13 C5      -0.8838   2.4188   4.7245   C.3       1 RES1   0.0000
    14 H2      -0.6075   2.3164   5.6592   H         1 RES1   0.0000
    15 H3      -1.4871   1.6863   4.4799   H         1 RES1   0.0000
    16 H4      -1.3472   3.2751   4.6138   H         1 RES1   0.0000
    17 C6       0.3325   2.4174   2.4487   C.2       1 RES1   0.0000
    18 H5      -0.4218   2.4511   1.8718   H         1 RES1   0.0000
    19 C7       4.3262   4.7737   5.8308   C.2       1 RES1   0.0000
    20 C8       1.6557   2.3869   2.0775   C.2       1 RES1   0.0000
    21 C9       5.0403   0.1469   3.7326   C.2       1 RES1   0.0000
    22 C10      5.1048   5.3202   4.8036   C.2       1 RES1   0.0000
    23 H6       5.6135   6.1216   4.8450   H         1 RES1   0.0000
    24 C11      4.9947   4.4814   3.7290   C.2       1 RES1   0.0000
    25 C12      2.2808   2.4329   0.7254   C.3       1 RES1   0.0000
    26 H7       2.7410   1.5854   0.5489   H         1 RES1   0.0000
    27 H8       2.9276   3.1689   0.6888   H         1 RES1   0.0000
    28 H9       1.5863   2.5749   0.0475   H         1 RES1   0.0000
    29 C13      5.7648   0.1447   2.4316   C.3       1 RES1   0.0000
    30 H10      6.1355   1.0360   2.2625   H         1 RES1   0.0000
    31 H11      5.1431  -0.0928   1.7124   H         1 RES1   0.0000
    32 H12      6.4917  -0.5119   2.4645   H         1 RES1   0.0000
    33 C14      5.5817   4.5575   2.3659   C.3       1 RES1   0.0000
    34 H13      6.1659   3.7846   2.2186   H         1 RES1   0.0000
    35 H14      6.1040   5.3820   2.2819   H         1 RES1   0.0000
    36 H15      4.8627   4.5558   1.7002   H         1 RES1   0.0000
    37 C15      3.9098  -0.8607   7.0892   C.3       1 RES1   0.0000
    38 H16      3.2171  -0.3339   7.5395   H         1 RES1   0.0000
    39 H17      4.7252  -0.8611   7.6332   H         1 RES1   0.0000
    40 H18      3.5959  -1.7807   6.9699   H         1 RES1   0.0000
    41 C16      4.1401   5.3084   7.2085   C.3       1 RES1   0.0000
    42 H19      3.2959   4.9750   7.5772   H         1 RES1   0.0000
    43 H20      4.1189   6.2881   7.1780   H         1 RES1   0.0000
    44 H21      4.8832   5.0154   7.7756   H         1 RES1   0.0000
    45 N1A      2.5593   2.2538   8.9606   N.pl3     1 RES1   0.0000
    46 N2A      1.1790   0.9341   6.7701   N.2       1 RES1   0.0000
    47 N3A      0.7498   3.4486   8.0786   N.pl3     1 RES1   0.0000
    48 N4A      1.2678   3.6854   6.8161   N.2       1 RES1   0.0000
    49 N5A      3.3827   2.2429   7.8550   N.2       1 RES1   0.0000
    50 C1A      4.6243   2.1941   8.3257   C.2       1 RES1   0.0000
    51 C2A      1.1177   2.2781   8.8442   C.cat     1 RES1  -1.0000
    52 C3A      0.7402   4.8401   6.4162   C.2       1 RES1   0.0000
    53 N6A      0.7489   1.1187   8.0643   N.pl3     1 RES1   0.0000
    54 C4A     -0.1201   5.3427   7.4056   C.2       1 RES1   0.0000
    55 H1A     -0.6187   6.1504   7.3703   H         1 RES1   0.0000
    56 C5A      5.8272   2.1623   7.4458   C.3       1 RES1   0.0000
    57 H2A      5.5509   2.2646   6.5111   H         1 RES1   0.0000
    58 H3A      6.4305   2.8948   7.6904   H         1 RES1   0.0000
    59 H4A      6.2906   1.3060   7.5565   H         1 RES1   0.0000
    60 C6A      4.6109   2.1637   9.7216   C.2       1 RES1   0.0000
    61 H5A      5.3652   2.1300  10.2985   H         1 RES1   0.0000
    62 C7A      0.6172  -0.1926   6.3395   C.2       1 RES1   0.0000
    63 C8A      3.2877   2.1942  10.0928   C.2       1 RES1   0.0000
    64 C9A     -0.0969   4.4342   8.4377   C.2       1 RES1   0.0000
    65 C10A    -0.1614  -0.7391   7.3667   C.2       1 RES1   0.0000
    66 H6A     -0.6701  -1.5405   7.3253   H         1 RES1   0.0000
    67 C11A    -0.0513   0.0997   8.4413   C.2       1 RES1   0.0000
    68 C12A     2.6626   2.1482  11.4450   C.3       1 RES1   0.0000
    69 H7A      2.2024   2.9957  11.6214   H         1 RES1   0.0000
    70 H8A      2.0158   1.4122  11.4815   H         1 RES1   0.0000
    71 H9A      3.3571   2.0062  12.1228   H         1 RES1   0.0000
    72 C13A    -0.8214   4.4364   9.7387   C.3       1 RES1   0.0000
    73 H10A    -1.1921   3.5451   9.9078   H         1 RES1   0.0000
    74 H11A    -0.1997   4.6739  10.4579   H         1 RES1   0.0000
    75 H12A    -1.5483   5.0930   9.7058   H         1 RES1   0.0000
    76 C14A    -0.6383   0.0236   9.8044   C.3       1 RES1   0.0000
    77 H13A    -1.2225   0.7965   9.9517   H         1 RES1   0.0000
    78 H14A    -1.1606  -0.8009   9.8884   H         1 RES1   0.0000
    79 H15A     0.0807   0.0252  10.4701   H         1 RES1   0.0000
    80 C15A     1.0336   5.4417   5.0811   C.3       1 RES1   0.0000
    81 H16A     1.7263   4.9149   4.6308   H         1 RES1   0.0000
    82 H17A     0.2182   5.4422   4.5371   H         1 RES1   0.0000
    83 H18A     1.3475   6.3618   5.2004   H         1 RES1   0.0000
    84 C16A     0.8033  -0.7274   4.9618   C.3       1 RES1   0.0000
    85 H19A     1.6475  -0.3939   4.5931   H         1 RES1   0.0000
    86 H20A     0.8245  -1.7070   4.9923   H         1 RES1   0.0000
    87 H21A     0.0602  -0.4344   4.3947   H         1 RES1   0.0000
    88 O1      -0.9635   2.8062  -0.6913   O.3       2 RES2   0.0000
    89 C17     -1.9923   3.5999  -1.1854   C.3       2 RES2   0.0000
    90 H22     -1.7222   4.0242  -2.0373   H         2 RES2   0.0000
    91 H23     -2.2211   4.3110  -0.5355   H         2 RES2   0.0000
    92 C18     -1.1460   1.4712  -1.1428   C.3       2 RES2   0.0000
    93 H24     -0.8997   0.8294  -0.4296   H         2 RES2   0.0000
    94 H25     -0.5794   1.2946  -1.9351   H         2 RES2   0.0000
    95 C19     -3.1585   2.7016  -1.4008   C.3       2 RES2   0.0000
    96 H26     -3.7927   2.7665  -0.6426   H         2 RES2   0.0000
    97 H27     -3.6346   2.9427  -2.2345   H         2 RES2   0.0000
    98 C20     -2.5992   1.3294  -1.4969   C.3       2 RES2   0.0000
    99 H28     -2.7035   0.9726  -2.4146   H         2 RES2   0.0000
   100 H29     -3.0560   0.7200  -0.8641   H         2 RES2   0.0000
@<TRIPOS>BOND
     1     1     3    1
     2     2     6    1
     3     3    10    1
     4     4     5    1
     5     5     1    1
     6     6     1    1
     7     7     6    2
     8     8     2    1
     9     9     5    2
    10    10     8    1
    11    11     9    1
    12    12    11    1
    13    13     7    1
    14    14    13    1
    15    15    13    1
    16    16    13    1
    17    17     7    1
    18    18    17    1
    19    19     3    2
    20    20     2    1
    21    21     4    1
    22    22    19    1
    23    23    22    1
    24    24    10    1
    25    25    20    1
    26    26    25    1
    27    27    25    1
    28    28    25    1
    29    29    21    1
    30    30    29    1
    31    31    29    1
    32    32    29    1
    33    33    24    1
    34    34    33    1
    35    35    33    1
    36    36    33    1
    37    37     9    1
    38    38    37    1
    39    39    37    1
    40    40    37    1
    41    41    19    1
    42    42    41    1
    43    43    41    1
    44    44    41    1
    45    45    49    1
    46    46     1    1
    47    47    48    1
    48    48     1    1
    49    49     1    1
    50    50    49    2
    51    51    45    1
    52    52    48    2
    53    53    46    1
    54    54    52    1
    55    55    54    1
    56    56    50    1
    57    57    56    1
    58    58    56    1
    59    59    56    1
    60    60    50    1
    61    61    60    1
    62    62    46    2
    63    63    45    1
    64    64    47    1
    65    65    62    1
    66    66    65    1
    67    67    53    1
    68    68    63    1
    69    69    68    1
    70    70    68    1
    71    71    68    1
    72    72    64    1
    73    73    72    1
    74    74    72    1
    75    75    72    1
    76    76    67    1
    77    77    76    1
    78    78    76    1
    79    79    76    1
    80    80    52    1
    81    81    80    1
    82    82    80    1
    83    83    80    1
    84    84    62    1
    85    85    84    1
    86    86    84    1
    87    87    84    1
    88     4     8    1
    89    11    21    2
    90    17    20    2
    91    22    24    2
    92    47    51    1
    93    51    53    1
    94    54    64    2
    95    60    63    2
    96    65    67    2
    97    88    89    1
    98    89    90    1
    99    91    89    1
   100    92    88    1
   101    93    92    1
   102    94    92    1
   103    95    89    1
   104    96    95    1
   105    97    95    1
   106    98    92    1
   107    99    98    1
   108   100    98    1
   109    95    98    1
@<TRIPOS>SUBSTRUCTURE
     1 RES1        1 GROUP             0 ****  ****    0  
     2 RES2       88 GROUP             0 ****  ****    0  
@<TRIPOS>CRYSIN
    8.7572    9.6739   13.2790  109.6200   98.6600  100.8100     2     1
