@<TRIPOS>MOLECULE
VUJSAX
    78    83     3     0     0
SMALL
USER_CHARGES
****
Generated from the CSD

@<TRIPOS>ATOM
     1 C1       8.4063   2.8512   5.6673   C.ar      1 RES1   0.0000
     2 H1       9.2024   2.3379   5.5953   H         1 RES1   0.0000
     3 C2       8.0088   3.2835   6.9147   C.ar      1 RES1   0.0000
     4 H2       8.5175   3.0588   7.6848   H         1 RES1   0.0000
     5 C3       6.8660   4.0448   7.0332   C.ar      1 RES1   0.0000
     6 H3       6.5677   4.3363   7.8868   H         1 RES1   0.0000
     7 C4       6.1587   4.3791   5.8904   C.ar      1 RES1   0.0000
     8 H4       5.3862   4.9294   5.9428   H         1 RES1   0.0000
     9 C5       6.5988   3.8960   4.6707   C.ar      1 RES1   0.0000
    10 C6       5.9084   4.1279   3.3864   C.2       1 RES1   0.0000
    11 C7       4.6285   4.8967   3.3892   C.3       1 RES1   0.0000
    12 H5       4.2344   4.8782   2.4921   H         1 RES1   0.0000
    13 H6       4.8056   5.8248   3.6492   H         1 RES1   0.0000
    14 H7       4.0056   4.4916   4.0281   H         1 RES1   0.0000
    15 C8       5.9702   3.7671   1.0145   C.3       1 RES1   0.0000
    16 H8       4.9919   3.9083   1.0711   H         1 RES1   0.0000
    17 H9       6.1296   2.9308   0.5093   H         1 RES1   0.0000
    18 C9       6.6120   4.9445   0.2657   C.3       1 RES1   0.0000
    19 H10      6.1938   5.0093  -0.6293   H         1 RES1   0.0000
    20 H11      6.3971   5.7783   0.7543   H         1 RES1   0.0000
    21 C10      9.9132   0.3232   3.4459   C.ar      1 RES1   0.0000
    22 H12      9.1435  -0.2311   3.3920   H         1 RES1   0.0000
    23 C11     11.1223  -0.2579   3.7698   C.ar      1 RES1   0.0000
    24 H13     11.1809  -1.1904   3.9417   H         1 RES1   0.0000
    25 C12     12.2484   0.5446   3.8392   C.ar      1 RES1   0.0000
    26 H14     13.0899   0.1731   4.0761   H         1 RES1   0.0000
    27 C13     12.1328   1.8909   3.5600   C.ar      1 RES1   0.0000
    28 H15     12.9001   2.4509   3.5779   H         1 RES1   0.0000
    29 C14     10.8874   2.4210   3.2530   C.ar      1 RES1   0.0000
    30 C15     10.6288   3.8434   2.9800   C.2       1 RES1   0.0000
    31 C16     11.7514   4.8216   3.0636   C.3       1 RES1   0.0000
    32 H16     11.4333   5.7079   2.7924   H         1 RES1   0.0000
    33 H17     12.4764   4.5383   2.4683   H         1 RES1   0.0000
    34 H18     12.0822   4.8611   3.9853   H         1 RES1   0.0000
    35 C17      8.9771   5.4722   2.3704   C.3       1 RES1   0.0000
    36 H19      9.6186   6.1057   2.7796   H         1 RES1   0.0000
    37 H20      8.0883   5.6362   2.7743   H         1 RES1   0.0000
    38 C18      8.9011   5.7374   0.8591   C.3       1 RES1   0.0000
    39 H21      8.6012   6.6712   0.7249   H         1 RES1   0.0000
    40 H22      9.8157   5.6653   0.4873   H         1 RES1   0.0000
    41 C19      6.2235   0.5630   3.6971   C.ar      1 RES1   0.0000
    42 H23      6.1412   1.0936   4.4808   H         1 RES1   0.0000
    43 C20      5.5163  -0.6198   3.6237   C.ar      1 RES1   0.0000
    44 H24      4.9590  -0.8940   4.3425   H         1 RES1   0.0000
    45 C21      5.6315  -1.3996   2.4874   C.ar      1 RES1   0.0000
    46 H25      5.1728  -2.2291   2.4232   H         1 RES1   0.0000
    47 C22      6.4238  -0.9543   1.4470   C.ar      1 RES1   0.0000
    48 H26      6.5049  -1.4682   0.6522   H         1 RES1   0.0000
    49 C23      7.1005   0.2517   1.5736   C.ar      1 RES1   0.0000
    50 C24      7.9630   0.8456   0.5466   C.2       1 RES1   0.0000
    51 C25      8.1966   0.1430  -0.7523   C.3       1 RES1   0.0000
    52 H27      8.2405   0.8015  -1.4767   H         1 RES1   0.0000
    53 H28      7.4612  -0.4818  -0.9227   H         1 RES1   0.0000
    54 H29      9.0418  -0.3514  -0.7088   H         1 RES1   0.0000
    55 C26      9.3471   2.7140  -0.0447   C.3       1 RES1   0.0000
    56 H30      9.6941   2.0846  -0.7255   H         1 RES1   0.0000
    57 H31     10.1200   3.0786   0.4551   H         1 RES1   0.0000
    58 C27      8.6115   3.8632  -0.7469   C.3       1 RES1   0.0000
    59 H32      9.2471   4.3022  -1.3661   H         1 RES1   0.0000
    60 H33      7.8865   3.4734  -1.2971   H         1 RES1   0.0000
    61 N1       7.7138   3.1263   4.5497   N.ar      1 RES1   0.0000
    62 N2       9.7760   1.6373   3.2033   N.ar      1 RES1   0.0000
    63 N3       7.0223   0.9960   2.7100   N.ar      1 RES1   0.0000
    64 N4       6.5215   3.6301   2.3691   N.2       1 RES1   0.0000
    65 N5       9.3984   4.0958   2.6725   N.2       1 RES1   0.0000
    66 N6       8.4690   1.9870   0.8842   N.2       1 RES1   0.0000
    67 N7       8.0375   4.8754   0.0946   N.3       1 RES1   0.0000
    68 Fe1      8.1397   2.5959   2.7133   Fe        1 RES1   2.0000
    69 B1      13.0842   3.5922  -0.4578   B         2 RES2  -1.0000
    70 F1      12.1057   4.5585  -0.2823   F         2 RES2   0.0000
    71 F2      12.5463   2.5128  -1.1605   F         2 RES2   0.0000
    72 F3      14.1529   4.1223  -1.1695   F         2 RES2   0.0000
    73 F4      13.5343   3.1485   0.7859   F         2 RES2   0.0000
    74 B2       2.8136   3.0599   6.6448   B         3 RES3  -1.0000
    75 F5       3.5868   2.5355   5.6057   F         3 RES3   0.0000
    76 F6       1.4735   3.1224   6.2458   F         3 RES3   0.0000
    77 F7       3.2576   4.3318   6.9724   F         3 RES3   0.0000
    78 F8       2.9117   2.2208   7.7479   F         3 RES3   0.0000
@<TRIPOS>BOND
     1     1     2    1
     2     3     1   ar
     3     4     3    1
     4     5     3   ar
     5     6     5    1
     6     7     5   ar
     7     8     7    1
     8     9     7   ar
     9    10     9    1
    10    11    10    1
    11    12    11    1
    12    13    11    1
    13    14    11    1
    14    15    16    1
    15    17    15    1
    16    18    15    1
    17    19    18    1
    18    20    18    1
    19    21    22    1
    20    23    21   ar
    21    24    23    1
    22    25    23   ar
    23    26    25    1
    24    27    25   ar
    25    28    27    1
    26    29    27   ar
    27    30    29    1
    28    31    30    1
    29    32    31    1
    30    33    31    1
    31    34    31    1
    32    35    36    1
    33    37    35    1
    34    38    35    1
    35    39    38    1
    36    40    38    1
    37    41    42    1
    38    43    41   ar
    39    44    43    1
    40    45    43   ar
    41    46    45    1
    42    47    45   ar
    43    48    47    1
    44    49    47   ar
    45    50    49    1
    46    51    50    1
    47    52    51    1
    48    53    51    1
    49    54    51    1
    50    55    56    1
    51    57    55    1
    52    58    55    1
    53    59    58    1
    54    60    58    1
    55    61     1   ar
    56    62    21   ar
    57    63    41   ar
    58    64    10    2
    59    65    30    2
    60    66    50    2
    61    67    18    1
    62    68    61    1
    63     9    61   ar
    64    15    64    1
    65    29    62   ar
    66    35    65    1
    67    38    67    1
    68    49    63   ar
    69    55    66    1
    70    58    67    1
    71    62    68    1
    72    63    68    1
    73    64    68    1
    74    65    68    1
    75    66    68    1
    76    69    70    1
    77    71    69    1
    78    72    69    1
    79    73    69    1
    80    74    75    1
    81    76    74    1
    82    77    74    1
    83    78    74    1
@<TRIPOS>SUBSTRUCTURE
     1 RES1        1 GROUP             0 ****  ****    0  
     2 RES2       69 GROUP             0 ****  ****    0  
     3 RES3       74 GROUP             0 ****  ****    0  
@<TRIPOS>CRYSIN
   10.8414   24.1525   12.3110   90.0000  115.1970   90.0000   231     1
