@<TRIPOS>MOLECULE
VUJYOO
   101   110     1     0     0
SMALL
USER_CHARGES
****
Generated from the CSD

@<TRIPOS>ATOM
     1 Fe1      2.2020   3.7121   5.0386   Fe        1 RES1   1.0000
     2 P1       4.2499   3.6321   4.0864   P.3       1 RES1   0.0000
     3 P2       0.0727   4.4307   5.5128   P.3       1 RES1   0.0000
     4 P3       1.8504   1.5171   5.1219   P.3       1 RES1   0.0000
     5 P4       1.4218   3.5854   3.0398   P.3       1 RES1   0.0000
     6 O1       3.0266   4.2744   6.8651   O.co2     1 RES1   0.0000
     7 O2       2.4864   5.7263   5.3405   O.co2     1 RES1   0.0000
     8 C1       4.0662   3.2298   2.3063   C.3       1 RES1   0.0000
     9 C2       2.7353   3.7564   1.7765   C.3       1 RES1   0.0000
    10 C3      -0.3028   5.4925   4.0901   C.3       1 RES1   0.0000
    11 C4       0.1696   4.8982   2.7490   C.3       1 RES1   0.0000
    12 C5       0.4899   1.0914   3.9660   C.3       1 RES1   0.0000
    13 C6       0.5969   1.9686   2.6897   C.3       1 RES1   0.0000
    14 C7       2.9564   5.4851   6.4927   C.2       1 RES1   0.0000
    15 C8       3.4151   6.5913   7.4208   C.3       1 RES1   0.0000
    16 C9       3.2366   7.9631   6.9206   C.3       1 RES1   0.0000
    17 C10      3.7186   8.9118   7.9043   C.1       1 RES1   0.0000
    18 C11      4.1168   9.5910   8.6804   C.1       1 RES1   0.0000
    19 C12      5.5636   2.5469   4.7200   C.ar      1 RES1   0.0000
    20 C13      5.7119   2.4399   6.1037   C.ar      1 RES1   0.0000
    21 C14      6.8106   1.7644   6.6372   C.ar      1 RES1   0.0000
    22 C15      7.7609   1.1972   5.7870   C.ar      1 RES1   0.0000
    23 C16      7.6122   1.3055   4.4051   C.ar      1 RES1   0.0000
    24 C17      6.5161   1.9797   3.8716   C.ar      1 RES1   0.0000
    25 C18      5.1350   5.2378   4.1235   C.ar      1 RES1   0.0000
    26 C19      4.9725   6.1385   3.0695   C.ar      1 RES1   0.0000
    27 C20      5.6319   7.3664   3.0935   C.ar      1 RES1   0.0000
    28 C21      6.4543   7.6962   4.1698   C.ar      1 RES1   0.0000
    29 C22      6.6195   6.7955   5.2238   C.ar      1 RES1   0.0000
    30 C23      5.9574   5.5676   5.1997   C.ar      1 RES1   0.0000
    31 C24     -0.1612   5.5306   6.9762   C.ar      1 RES1   0.0000
    32 C25     -0.8560   6.7340   6.8595   C.ar      1 RES1   0.0000
    33 C26     -1.0796   7.5227   7.9876   C.ar      1 RES1   0.0000
    34 C27     -0.6083   7.1093   9.2325   C.ar      1 RES1   0.0000
    35 C28      0.0891   5.9059   9.3492   C.ar      1 RES1   0.0000
    36 C29      0.3101   5.1160   8.2210   C.ar      1 RES1   0.0000
    37 C30     -1.3926   3.3467   5.6999   C.ar      1 RES1   0.0000
    38 C31     -2.2880   3.1264   4.6533   C.ar      1 RES1   0.0000
    39 C32     -3.3632   2.2566   4.8256   C.ar      1 RES1   0.0000
    40 C33     -3.5435   1.6044   6.0463   C.ar      1 RES1   0.0000
    41 C34     -2.6508   1.8235   7.0929   C.ar      1 RES1   0.0000
    42 C35     -1.5729   2.6946   6.9206   C.ar      1 RES1   0.0000
    43 C36      1.3725   0.8305   6.7243   C.ar      1 RES1   0.0000
    44 C37      0.6466  -0.3580   6.8225   C.ar      1 RES1   0.0000
    45 C38      0.3982  -0.9216   8.0747   C.ar      1 RES1   0.0000
    46 C39      0.8708  -0.2953   9.2269   C.ar      1 RES1   0.0000
    47 C40      1.5941   0.8933   9.1287   C.ar      1 RES1   0.0000
    48 C41      1.8447   1.4556   7.8783   C.ar      1 RES1   0.0000
    49 C42      3.1366   0.2978   4.6218   C.ar      1 RES1   0.0000
    50 C43      3.9961  -0.2584   5.5776   C.ar      1 RES1   0.0000
    51 C44      5.0468  -1.0729   5.1812   C.ar      1 RES1   0.0000
    52 C45      5.2410  -1.3534   3.8271   C.ar      1 RES1   0.0000
    53 C46      4.3842  -0.8084   2.8713   C.ar      1 RES1   0.0000
    54 C47      3.3304   0.0172   3.2695   C.ar      1 RES1   0.0000
    55 H1       4.0958   2.2861   2.1951   H         1 RES1   0.0000
    56 H2       4.7782   3.6284   1.8209   H         1 RES1   0.0000
    57 H3       2.8326   4.6743   1.5486   H         1 RES1   0.0000
    58 H4       2.4918   3.2630   1.0022   H         1 RES1   0.0000
    59 H5       0.1264   6.3304   4.2180   H         1 RES1   0.0000
    60 H6      -1.2427   5.6217   4.0512   H         1 RES1   0.0000
    61 H7      -0.5740   4.5254   2.2914   H         1 RES1   0.0000
    62 H8       0.5558   5.5860   2.2192   H         1 RES1   0.0000
    63 H9      -0.3462   1.2501   4.3884   H         1 RES1   0.0000
    64 H10      0.5557   0.1747   3.7271   H         1 RES1   0.0000
    65 H11      1.1025   1.4999   2.0358   H         1 RES1   0.0000
    66 H12     -0.2768   2.1335   2.3563   H         1 RES1   0.0000
    67 H13      4.3410   6.4645   7.5931   H         1 RES1   0.0000
    68 H14      2.9265   6.5125   8.2322   H         1 RES1   0.0000
    69 H15      2.3141   8.1206   6.7558   H         1 RES1   0.0000
    70 H16      3.7243   8.0702   6.1130   H         1 RES1   0.0000
    71 H17      4.4141  10.2874   9.2547   H         1 RES1   0.0000
    72 H18      5.0643   2.8262   6.6817   H         1 RES1   0.0000
    73 H19      6.9111   1.6918   7.5782   H         1 RES1   0.0000
    74 H20      8.5087   0.7382   6.1519   H         1 RES1   0.0000
    75 H21      8.2598   0.9191   3.8271   H         1 RES1   0.0000
    76 H22      6.4161   2.0535   2.9287   H         1 RES1   0.0000
    77 H23      4.4110   5.9145   2.3378   H         1 RES1   0.0000
    78 H24      5.5191   7.9791   2.3767   H         1 RES1   0.0000
    79 H25      6.9052   8.5328   4.1865   H         1 RES1   0.0000
    80 H26      7.1805   7.0194   5.9574   H         1 RES1   0.0000
    81 H27      6.0702   4.9548   5.9166   H         1 RES1   0.0000
    82 H28     -1.1788   7.0157   6.0111   H         1 RES1   0.0000
    83 H29     -1.5546   8.3421   7.9080   H         1 RES1   0.0000
    84 H30     -0.7606   7.6457  10.0012   H         1 RES1   0.0000
    85 H31      0.4093   5.6229  10.1976   H         1 RES1   0.0000
    86 H32      0.7851   4.2966   8.3007   H         1 RES1   0.0000
    87 H33     -2.1626   3.5706   3.8215   H         1 RES1   0.0000
    88 H34     -3.9712   2.1064   4.1124   H         1 RES1   0.0000
    89 H35     -4.2765   1.0114   6.1630   H         1 RES1   0.0000
    90 H36     -2.7731   1.3805   7.9228   H         1 RES1   0.0000
    91 H37     -0.9649   2.8447   7.6338   H         1 RES1   0.0000
    92 H38      0.3269  -0.7850   6.0370   H         1 RES1   0.0000
    93 H39     -0.0940  -1.7312   8.1414   H         1 RES1   0.0000
    94 H40      0.7010  -0.6792  10.0790   H         1 RES1   0.0000
    95 H41      1.9160   1.3190   9.9160   H         1 RES1   0.0000
    96 H42      2.3369   2.2652   7.8117   H         1 RES1   0.0000
    97 H43      3.8623  -0.0566   6.4983   H         1 RES1   0.0000
    98 H44      5.6307  -1.4433   5.8314   H         1 RES1   0.0000
    99 H45      5.9588  -1.9157   3.5566   H         1 RES1   0.0000
   100 H46      4.5180  -1.0003   1.9506   H         1 RES1   0.0000
   101 H47      2.7470   0.3876   2.6175   H         1 RES1   0.0000
@<TRIPOS>BOND
     1     1     2    1
     2     2     8    1
     3     3     1    1
     4     4     1    1
     5     5     1    1
     6     6     1    1
     7     7     1    1
     8     8     9    1
     9     9     5    1
    10    10     3    1
    11    11     5    1
    12    12     4    1
    13    13     5    1
    14    14     6   un
    15    15    14    1
    16    16    15    1
    17    17    16    1
    18    18    17    3
    19    19     2    1
    20    20    19   ar
    21    21    20   ar
    22    22    21   ar
    23    23    22   ar
    24    24    19   ar
    25    25     2    1
    26    26    25   ar
    27    27    26   ar
    28    28    27   ar
    29    29    28   ar
    30    30    25   ar
    31    31     3    1
    32    32    31   ar
    33    33    32   ar
    34    34    33   ar
    35    35    34   ar
    36    36    31   ar
    37    37     3    1
    38    38    37   ar
    39    39    38   ar
    40    40    39   ar
    41    41    40   ar
    42    42    37   ar
    43    43     4    1
    44    44    43   ar
    45    45    44   ar
    46    46    45   ar
    47    47    46   ar
    48    48    43   ar
    49    49     4    1
    50    50    49   ar
    51    51    50   ar
    52    52    51   ar
    53    53    52   ar
    54    54    49   ar
    55    55     8    1
    56    56     8    1
    57    57     9    1
    58    58     9    1
    59    59    10    1
    60    60    10    1
    61    61    11    1
    62    62    11    1
    63    63    12    1
    64    64    12    1
    65    65    13    1
    66    66    13    1
    67    67    15    1
    68    68    15    1
    69    69    16    1
    70    70    16    1
    71    71    18    1
    72    72    20    1
    73    73    21    1
    74    74    22    1
    75    75    23    1
    76    76    24    1
    77    77    26    1
    78    78    27    1
    79    79    28    1
    80    80    29    1
    81    81    30    1
    82    82    32    1
    83    83    33    1
    84    84    34    1
    85    85    35    1
    86    86    36    1
    87    87    38    1
    88    88    39    1
    89    89    40    1
    90    90    41    1
    91    91    42    1
    92    92    44    1
    93    93    45    1
    94    94    46    1
    95    95    47    1
    96    96    48    1
    97    97    50    1
    98    98    51    1
    99    99    52    1
   100   100    53    1
   101   101    54    1
   102     7    14   un
   103    10    11    1
   104    12    13    1
   105    23    24   ar
   106    29    30   ar
   107    35    36   ar
   108    41    42   ar
   109    47    48   ar
   110    53    54   ar
@<TRIPOS>SUBSTRUCTURE
     1 RES1        1 GROUP             0 ****  ****    0  
@<TRIPOS>CRYSIN
   26.2960   12.3040   19.0610   90.0000  103.6300   90.0000    14     2
