@<TRIPOS>MOLECULE
VURLAY
   123   126     6     0     0
SMALL
USER_CHARGES
****
Generated from the CSD

@<TRIPOS>ATOM
     1 Fe1      3.2961   0.3761   2.2077   Fe        1 RES1   2.0000
     2 N1       2.7739   0.9925   0.3976   N.2       1 RES1   0.0000
     3 N2       1.5943   0.8977   3.0628   N.2       1 RES1   0.0000
     4 N3       5.0103  -0.3158   1.5315   N.ar      1 RES1   0.0000
     5 N4       3.9484   2.2421   2.3254   N.ar      1 RES1   0.0000
     6 C1       3.7113   2.9771   1.2053   C.ar      1 RES1   0.0000
     7 N5       2.7562  -1.4984   1.8793   N.2       1 RES1   0.0000
     8 N6       3.7662  -0.0459   4.0821   N.ar      1 RES1   0.0000
     9 C2       0.4245   1.5201   2.3929   C.3       1 RES1   0.0000
    10 H1       0.3718   1.1375   1.4705   H         1 RES1   0.0000
    11 C3       6.0705  -2.3113   0.6672   C.ar      1 RES1   0.0000
    12 H2       5.9999  -3.2230   0.4095   H         1 RES1   0.0000
    13 C4       4.9659  -1.6216   1.1632   C.ar      1 RES1   0.0000
    14 C5       4.4157  -0.1015  -1.7929   C.ar      1 RES1   0.0000
    15 H3       4.6486   0.7776  -1.5172   H         1 RES1   0.0000
    16 C6       0.6517   3.0199   2.2483   C.ar      1 RES1   0.0000
    17 C7       3.0569   2.2260   0.1473   C.2       1 RES1   0.0000
    18 H4       2.8469   2.6246  -0.6892   H         1 RES1   0.0000
    19 C8       6.1814   0.3188   1.4343   C.ar      1 RES1   0.0000
    20 H5       6.2311   1.2286   1.7031   H         1 RES1   0.0000
    21 C9       1.4196  -2.4826   3.6966   C.ar      1 RES1   0.0000
    22 C10      1.3804   5.1742   3.0855   C.ar      1 RES1   0.0000
    23 H6       1.7716   5.6940   3.7780   H         1 RES1   0.0000
    24 C11      4.6523   4.9479   2.1748   C.ar      1 RES1   0.0000
    25 H7       4.8911   5.8664   2.1317   H         1 RES1   0.0000
    26 C12      4.9010  -0.5669   4.5757   C.ar      1 RES1   0.0000
    27 H8       5.6221  -0.7384   3.9812   H         1 RES1   0.0000
    28 C13      3.1853  -0.6381  -1.4278   C.ar      1 RES1   0.0000
    29 C14      1.4494  -2.1153   2.2195   C.3       1 RES1   0.0000
    30 H9       0.7395  -1.4285   2.0632   H         1 RES1   0.0000
    31 C15      4.9024   4.2075   3.3150   C.ar      1 RES1   0.0000
    32 H10      5.3256   4.6120   4.0632   H         1 RES1   0.0000
    33 C16     -0.9180   1.2494   3.0725   C.3       1 RES1   0.0000
    34 H11     -1.6330   1.6926   2.5707   H         1 RES1   0.0000
    35 H12     -1.0835   0.2838   3.0944   H         1 RES1   0.0000
    36 H13     -0.8959   1.5981   3.9880   H         1 RES1   0.0000
    37 C17      2.1429   0.1620  -0.6655   C.3       1 RES1   0.0000
    38 H14      1.5398  -0.4938  -0.2108   H         1 RES1   0.0000
    39 C18      4.0222  -0.6247   6.8049   C.ar      1 RES1   0.0000
    40 H15      4.1139  -0.8262   7.7288   H         1 RES1   0.0000
    41 C19      3.6734  -2.2427   1.3637   C.2       1 RES1   0.0000
    42 H16      3.5111  -3.1487   1.1285   H         1 RES1   0.0000
    43 C20      2.5188  -3.0549   4.3280   C.ar      1 RES1   0.0000
    44 H17      3.3244  -3.1900   3.8436   H         1 RES1   0.0000
    45 C21      0.9775   5.7817   1.9071   C.ar      1 RES1   0.0000
    46 H18      1.0981   6.7166   1.7850   H         1 RES1   0.0000
    47 C22      7.3333  -0.2999   0.9547   C.ar      1 RES1   0.0000
    48 H19      8.1487   0.1840   0.8977   H         1 RES1   0.0000
    49 C23      4.5319   2.8659   3.3619   C.ar      1 RES1   0.0000
    50 H20      4.6990   2.3725   4.1567   H         1 RES1   0.0000
    51 C24      1.5575   0.7194   4.3331   C.2       1 RES1   0.0000
    52 H21      0.7824   0.9286   4.8417   H         1 RES1   0.0000
    53 C25      2.8392  -0.0812   6.3110   C.ar      1 RES1   0.0000
    54 H22      2.1103   0.1016   6.8912   H         1 RES1   0.0000
    55 C26      7.2765  -1.6336   0.5594   C.ar      1 RES1   0.0000
    56 H23      8.0491  -2.0716   0.2222   H         1 RES1   0.0000
    57 C27      1.2114   3.7983   3.2558   C.ar      1 RES1   0.0000
    58 H24      1.4815   3.3890   4.0694   H         1 RES1   0.0000
    59 C28      3.7370  -2.6535  -2.6359   C.ar      1 RES1   0.0000
    60 H25      3.4932  -3.5229  -2.9303   H         1 RES1   0.0000
    61 C29      1.2804   0.9667  -1.6486   C.3       1 RES1   0.0000
    62 H26      0.8974   0.3629  -2.3179   H         1 RES1   0.0000
    63 H27      0.5581   1.4137  -1.1596   H         1 RES1   0.0000
    64 H28      1.8365   1.6394  -2.0954   H         1 RES1   0.0000
    65 C30      0.1568  -2.7206   5.7420   C.ar      1 RES1   0.0000
    66 H29     -0.6578  -2.6200   6.2214   H         1 RES1   0.0000
    67 C31      0.3975   5.0196   0.9110   C.ar      1 RES1   0.0000
    68 H30      0.1044   5.4344   0.1079   H         1 RES1   0.0000
    69 C32      0.2380  -2.3318   4.4117   C.ar      1 RES1   0.0000
    70 H31     -0.5244  -1.9566   3.9852   H         1 RES1   0.0000
    71 C33      1.0924  -3.3485   1.3910   C.3       1 RES1   0.0000
    72 H32      0.2201  -3.6926   1.6765   H         1 RES1   0.0000
    73 H33      1.0525  -3.1048   0.4426   H         1 RES1   0.0000
    74 H34      1.7748  -4.0393   1.5224   H         1 RES1   0.0000
    75 C34      1.2736  -3.2610   6.3671   C.ar      1 RES1   0.0000
    76 H35      1.2284  -3.5136   7.2816   H         1 RES1   0.0000
    77 C35      2.7500   0.1846   4.9553   C.ar      1 RES1   0.0000
    78 C36      0.2434   3.6515   1.0795   C.ar      1 RES1   0.0000
    79 H36     -0.1488   3.1375   0.3839   H         1 RES1   0.0000
    80 C37      5.0606  -0.8652   5.9265   C.ar      1 RES1   0.0000
    81 H37      5.8781  -1.2314   6.2418   H         1 RES1   0.0000
    82 C38      4.0439   4.3224   1.0921   C.ar      1 RES1   0.0000
    83 H38      3.8589   4.8031   0.2938   H         1 RES1   0.0000
    84 C39      2.4444  -3.4281   5.6651   C.ar      1 RES1   0.0000
    85 H39      3.2049  -3.8019   6.0953   H         1 RES1   0.0000
    86 C40      5.3080  -0.8465  -2.5619   C.ar      1 RES1   0.0000
    87 H40      6.1491  -0.4746  -2.7996   H         1 RES1   0.0000
    88 C41      2.8568  -1.9194  -1.8684   C.ar      1 RES1   0.0000
    89 H41      2.0147  -2.2926  -1.6363   H         1 RES1   0.0000
    90 C42      4.9808  -2.1287  -2.9835   C.ar      1 RES1   0.0000
    91 H42      5.5935  -2.6383  -3.4998   H         1 RES1   0.0000
    92 P1       1.9665   4.8700  -3.3189   P.3       2 RES2  -1.0000
    93 F1       0.9793   4.2442  -2.2282   F         2 RES2   0.0000
    94 F2       2.9498   5.5166  -4.4020   F         2 RES2   0.0000
    95 F3       2.5349   5.8769  -2.2142   F         2 RES2   0.0000
    96 F4       1.3947   3.8618  -4.4238   F         2 RES2   0.0000
    97 F5       3.0896   3.8033  -2.9315   F         2 RES2   0.0000
    98 F6       0.8351   5.9421  -3.7133   F         2 RES2   0.0000
    99 P2      -2.0660  -1.2994  -0.7567   P.3       3 RES3  -1.0000
   100 F7      -1.7183  -0.4398  -2.0563   F         3 RES3   0.0000
   101 F8      -0.7003  -2.0803  -1.0060   F         3 RES3   0.0000
   102 F9      -2.7960  -2.3583  -1.6531   F         3 RES3   0.0000
   103 F10     -1.2060  -0.3108   0.1050   F         3 RES3   0.0000
   104 F11     -3.3760  -0.5404  -0.5756   F         3 RES3   0.0000
   105 F12     -2.3674  -2.2583   0.4701   F         3 RES3   0.0000
   106 N7      -6.0827  -0.7762  -5.2656   N.1       4 RES4   0.0000
   107 C43     -3.5801  -0.9402  -4.6528   C.3       4 RES4   0.0000
   108 H43     -3.0790  -1.2749  -5.4261   H         4 RES4   0.0000
   109 H44     -3.4594  -1.5495  -3.8961   H         4 RES4   0.0000
   110 H45     -3.2521  -0.0489  -4.4122   H         4 RES4   0.0000
   111 C44     -4.9916  -0.8605  -4.9902   C.1       4 RES4   0.0000
   112 C45      0.0352  -3.6124  -4.3191   C.1       5 RES5   0.0000
   113 C46      0.0865  -2.2833  -4.7882   C.3       5 RES5   0.0000
   114 H46     -0.4365  -1.7072  -4.1920   H         5 RES5   0.0000
   115 H47     -0.2875  -2.2423  -5.6928   H         5 RES5   0.0000
   116 H48      1.0170  -1.9785  -4.8041   H         5 RES5   0.0000
   117 N8       0.0392  -4.6947  -3.9370   N.1       5 RES5   0.0000
   118 C47     -3.1542   1.8226  -7.2549   C.1       6 RES6   0.0000
   119 C48     -2.8284   1.1667  -8.4689   C.3       6 RES6   0.0000
   120 H49     -3.5025   1.3798  -9.1462   H         6 RES6   0.0000
   121 H50     -2.8093   0.1974  -8.3202   H         6 RES6   0.0000
   122 H51     -1.9480   1.4668  -8.7760   H         6 RES6   0.0000
   123 N9      -3.4138   2.3536  -6.2876   N.1       6 RES6   0.0000
@<TRIPOS>BOND
     1     1     2    1
     2     2    17    2
     3     3     1    1
     4     4     1    1
     5     5     1    1
     6     6     5   ar
     7     7     1    1
     8     8     1    1
     9     9     3    1
    10    10     9    1
    11    11    12    1
    12    13     4   ar
    13    14    15    1
    14    16     9    1
    15    17     6    1
    16    18    17    1
    17    19     4   ar
    18    20    19    1
    19    21    29    1
    20    22    23    1
    21    24    25    1
    22    26     8   ar
    23    27    26    1
    24    28    14   ar
    25    29     7    1
    26    30    29    1
    27    31    24   ar
    28    32    31    1
    29    33     9    1
    30    34    33    1
    31    35    33    1
    32    36    33    1
    33    37     2    1
    34    38    37    1
    35    39    40    1
    36    41     7    2
    37    42    41    1
    38    43    21   ar
    39    44    43    1
    40    45    22   ar
    41    46    45    1
    42    47    19   ar
    43    48    47    1
    44    49     5   ar
    45    50    49    1
    46    51     3    2
    47    52    51    1
    48    53    39   ar
    49    54    53    1
    50    55    11   ar
    51    56    55    1
    52    57    16   ar
    53    58    57    1
    54    59    60    1
    55    61    37    1
    56    62    61    1
    57    63    61    1
    58    64    61    1
    59    65    66    1
    60    67    45   ar
    61    68    67    1
    62    69    21   ar
    63    70    69    1
    64    71    29    1
    65    72    71    1
    66    73    71    1
    67    74    71    1
    68    75    65   ar
    69    76    75    1
    70    77     8   ar
    71    78    16   ar
    72    79    78    1
    73    80    26   ar
    74    81    80    1
    75    82     6   ar
    76    83    82    1
    77    84    43   ar
    78    85    84    1
    79    86    14   ar
    80    87    86    1
    81    88    28   ar
    82    89    88    1
    83    90    59   ar
    84    91    90    1
    85    11    13   ar
    86    13    41    1
    87    22    57   ar
    88    24    82   ar
    89    28    37    1
    90    31    49   ar
    91    39    80   ar
    92    47    55   ar
    93    51    77    1
    94    53    77   ar
    95    59    88   ar
    96    65    69   ar
    97    67    78   ar
    98    75    84   ar
    99    86    90   ar
   100    92    93    1
   101    94    92    1
   102    95    92    1
   103    96    92    1
   104    97    92    1
   105    98    92    1
   106    99   100    1
   107   101    99    1
   108   102    99    1
   109   103    99    1
   110   104    99    1
   111   105    99    1
   112   106   111    3
   113   107   108    1
   114   109   107    1
   115   110   107    1
   116   111   107    1
   117   112   113    1
   118   113   114    1
   119   115   113    1
   120   116   113    1
   121   117   112    3
   122   118   119    1
   123   119   120    1
   124   121   119    1
   125   122   119    1
   126   123   118    3
@<TRIPOS>SUBSTRUCTURE
     1 RES1        1 GROUP             0 ****  ****    0  
     2 RES2       92 GROUP             0 ****  ****    0  
     3 RES3       99 GROUP             0 ****  ****    0  
     4 RES4      106 GROUP             0 ****  ****    0  
     5 RES5      112 GROUP             0 ****  ****    0  
     6 RES6      118 GROUP             0 ****  ****    0  
@<TRIPOS>CRYSIN
   13.5201   15.6179   24.1830   90.0000   90.0000   90.0000    19     1
