@<TRIPOS>MOLECULE
VURXUB01
    80    87     2     0     0
SMALL
USER_CHARGES
****
Generated from the CSD

@<TRIPOS>ATOM
     1 Fe1     -0.5923   2.4305   4.2254   Fe        1 RES1   2.0000
     2 N1      -0.5923  -0.8358   4.2254   N.pl3     1 RES1   0.0000
     3 C1      -0.5923  -2.2767   4.2254   C.2       1 RES1   0.0000
     4 C2       0.5433  -2.6187   4.9083   C.2       1 RES1   0.0000
     5 C3       1.2659  -1.5036   5.3207   C.2       1 RES1   0.0000
     6 C4       0.8966  -4.0251   5.1009   C.1       1 RES1   0.0000
     7 C5       2.5054  -1.4672   6.0052   C.1       1 RES1   0.0000
     8 C6       0.4838  -0.2955   4.8643   C.2       1 RES1   0.0000
     9 N2       0.7227   0.9694   4.9539   N.2       1 RES1   0.0000
    10 N3       1.2681  -5.0532   5.3494   N.1       1 RES1   0.0000
    11 N4       3.5046  -1.3802   6.5477   N.1       1 RES1   0.0000
    12 N5      -0.5923   5.7028   4.2254   N.pl3     1 RES1   0.0000
    13 C7       0.4822   5.1867   4.9201   C.2       1 RES1   0.0000
    14 C8       1.1470   6.3382   5.3562   C.2       1 RES1  -1.0000
    15 C9       0.4594   7.4594   4.9590   C.2       1 RES1   0.0000
    16 C10     -0.5923   7.0870   4.2254   C.2       1 RES1   0.0000
    17 N6       0.7049   3.9118   4.9928   N.2       1 RES1   0.0000
    18 C11      2.4227   6.2998   6.1708   C.1       1 RES1   0.0000
    19 C12      0.8808   8.7545   5.3460   C.1       1 RES1   0.0000
    20 N7       3.3265   6.2735   6.7844   N.1       1 RES1   0.0000
    21 N8       1.1673   9.8332   5.5471   N.1       1 RES1   0.0000
    22 O1       0.4625   2.4183   2.2682   O.3       1 RES1   0.0000
    23 C13     -0.0849   2.8595   1.0124   C.3       1 RES1   0.0000
    24 C14      0.8945   2.1370   0.0169   C.3       1 RES1   0.0000
    25 C15      2.0660   2.6106   0.6118   C.3       1 RES1   0.0000
    26 C16      1.8290   2.3009   2.0992   C.3       1 RES1   0.0000
    27 H1       1.4878   1.2365   5.3460   H         1 RES1   0.0000
    28 H2       1.4622   3.6386   5.3967   H         1 RES1   0.0000
    29 H3      -0.0427   3.8147   0.9228   H         1 RES1   0.0000
    30 H4      -0.9917   2.5661   0.8975   H         1 RES1   0.0000
    31 H5       0.7896   2.4406  -0.8873   H         1 RES1   0.0000
    32 H6       0.8212   1.1798   0.0541   H         1 RES1   0.0000
    33 H7       2.1746   3.5516   0.4648   H         1 RES1   0.0000
    34 H8       2.8376   2.1471   0.2772   H         1 RES1   0.0000
    35 H9       2.1260   1.4146   2.3138   H         1 RES1   0.0000
    36 H10      2.2974   2.9283   2.6553   H         1 RES1   0.0000
    37 C2A     -1.7280  -2.6187   3.5426   C.2       1 RES1   0.0000
    38 C3A     -2.4506  -1.5036   3.1302   C.2       1 RES1  -1.0000
    39 C5A     -3.6901  -1.4672   2.4457   C.1       1 RES1   0.0000
    40 N4A     -4.6893  -1.3802   1.9031   N.1       1 RES1   0.0000
    41 C6A     -1.6685  -0.2955   3.5865   C.2       1 RES1   0.0000
    42 N2A     -1.9074   0.9694   3.4970   N.2       1 RES1   0.0000
    43 C7A     -1.6669   5.1867   3.5308   C.2       1 RES1   0.0000
    44 C8A     -2.3317   6.3382   3.0947   C.2       1 RES1   0.0000
    45 C9A     -1.6441   7.4594   3.4919   C.2       1 RES1   0.0000
    46 C12A    -2.0655   8.7545   3.1048   C.1       1 RES1   0.0000
    47 N8A     -2.3520   9.8332   2.9037   N.1       1 RES1   0.0000
    48 C11A    -3.6074   6.2998   2.2800   C.1       1 RES1   0.0000
    49 N7A     -4.5112   6.2735   1.6665   N.1       1 RES1   0.0000
    50 N6A     -1.8896   3.9118   3.4581   N.2       1 RES1   0.0000
    51 O1A     -1.6472   2.4183   6.1827   O.3       1 RES1   0.0000
    52 C13A    -1.0997   2.8595   7.4385   C.3       1 RES1   0.0000
    53 C14A    -2.0792   2.1370   8.4340   C.3       1 RES1   0.0000
    54 C15A    -3.2507   2.6106   7.8390   C.3       1 RES1   0.0000
    55 C16A    -3.0137   2.3009   6.3517   C.3       1 RES1   0.0000
    56 H9A     -3.3107   1.4146   6.1370   H         1 RES1   0.0000
    57 H10A    -3.4821   2.9283   5.7956   H         1 RES1   0.0000
    58 H7A     -3.3593   3.5516   7.9861   H         1 RES1   0.0000
    59 H8A     -4.0223   2.1471   8.1737   H         1 RES1   0.0000
    60 H5A     -1.9743   2.4406   9.3382   H         1 RES1   0.0000
    61 H6A     -2.0059   1.1798   8.3968   H         1 RES1   0.0000
    62 H3A     -1.1420   3.8147   7.5280   H         1 RES1   0.0000
    63 H4A     -0.1929   2.5661   7.5534   H         1 RES1   0.0000
    64 H2A     -2.6468   3.6386   3.0541   H         1 RES1   0.0000
    65 H1A     -2.6725   1.2365   3.1048   H         1 RES1   0.0000
    66 C4A     -2.0813  -4.0251   3.3499   C.1       1 RES1   0.0000
    67 N3A     -2.4528  -5.0532   3.1015   N.1       1 RES1   0.0000
    68 O2       2.9423   2.3374   6.2908   O.3       2 RES2   0.0000
    69 C17      2.9857   2.3799   7.7309   C.3       2 RES2   0.0000
    70 C18      4.3811   2.8393   8.0452   C.3       2 RES2   0.0000
    71 C19      5.1544   2.7401   6.9213   C.3       2 RES2   0.0000
    72 C20      4.2448   2.3698   5.7212   C.3       2 RES2   0.0000
    73 H11      2.8194   1.5117   8.1044   H         2 RES2   0.0000
    74 H12      2.3353   2.9971   8.0756   H         2 RES2   0.0000
    75 H13      4.7525   2.2989   8.7450   H         2 RES2   0.0000
    76 H14      4.3623   3.7519   8.3478   H         2 RES2   0.0000
    77 H15      5.8246   2.0642   7.0446   H         2 RES2   0.0000
    78 H16      5.5968   3.5759   6.7522   H         2 RES2   0.0000
    79 H17      4.3011   3.0315   5.0283   H         2 RES2   0.0000
    80 H18      4.4831   1.5137   5.3562   H         2 RES2   0.0000
@<TRIPOS>BOND
     1     1     9    1
     2     2     3    1
     3     3     4    1
     4     4     5    2
     5     5     7    1
     6     6     4    1
     7     7    11    3
     8     8     2    1
     9     9     8    2
    10    10     6    3
    11    12    13    1
    12    13    14    1
    13    14    15    1
    14    15    16    2
    15    16    12    1
    16    17     1    1
    17    18    14    1
    18    19    15    1
    19    20    18    3
    20    21    19    3
    21    22     1    1
    22    23    22    1
    23    24    23    1
    24    25    24    1
    25    26    22    1
    26    27     9    1
    27    28    17    1
    28    29    23    1
    29    30    23    1
    30    31    24    1
    31    32    24    1
    32    33    25    1
    33    34    25    1
    34    35    26    1
    35    36    26    1
    36    37     3    2
    37    38    37    1
    38    39    38    1
    39    40    39    3
    40    41     2    1
    41    42     1    1
    42    43    12    1
    43    44    43    1
    44    45    16    1
    45    46    45    1
    46    47    46    3
    47    48    44    1
    48    49    48    3
    49    50     1    1
    50    51     1    1
    51    52    51    1
    52    53    52    1
    53    54    53    1
    54    55    51    1
    55    56    55    1
    56    57    55    1
    57    58    54    1
    58    59    54    1
    59    60    53    1
    60    61    53    1
    61    62    52    1
    62    63    52    1
    63    64    50    1
    64    65    42    1
    65    66    37    1
    66    67    66    3
    67     5     8    1
    68    13    17    2
    69    25    26    1
    70    38    41    1
    71    41    42    2
    72    43    50    2
    73    44    45    2
    74    54    55    1
    75    68    69    1
    76    69    70    1
    77    70    71    1
    78    71    72    1
    79    72    68    1
    80    73    69    1
    81    74    69    1
    82    75    70    1
    83    76    70    1
    84    77    71    1
    85    78    71    1
    86    79    72    1
    87    80    72    1
@<TRIPOS>SUBSTRUCTURE
     1 RES1        1 GROUP             0 ****  ****    0  
     2 RES2       68 GROUP             0 ****  ****    0  
@<TRIPOS>CRYSIN
   12.3880   20.2370   17.0670   90.0000   97.9800   90.0000    15     1
