@<TRIPOS>MOLECULE
VUTHOK
    80    96     5     0     0
SMALL
USER_CHARGES
****
Generated from the CSD

@<TRIPOS>ATOM
     1 Fe1      2.4938   9.4614   3.4888   Fe        1 RES1   2.0000
     2 O1       0.9824   8.0311   3.8926   O.3       1 RES1   0.0000
     3 O2       3.8496   7.7644   3.5778   O.3       1 RES1   0.0000
     4 N1       0.9793  11.0415   3.3481   N.ar      1 RES1   0.0000
     5 N2       2.0999   9.3286   1.3625   N.ar      1 RES1   0.0000
     6 N3       1.7058  11.6567   1.2001   N.pl3     1 RES1   0.0000
     7 H1       1.7349  12.3061   0.6268   H         1 RES1   0.0000
     8 N4       4.0758  10.8831   3.1660   N.ar      1 RES1   0.0000
     9 N5       2.8678   9.9952   5.5416   N.ar      1 RES1   0.0000
    10 N6       3.4537  12.2186   5.0008   N.pl3     1 RES1   0.0000
    11 H2       3.3917  12.9410   5.2643   H         1 RES1   0.0000
    12 C1       0.3102  11.3923   4.4776   C.ar      1 RES1   0.0000
    13 H3       0.1145  10.7127   5.1118   H         1 RES1   0.0000
    14 C2      -0.0974  12.6688   4.7533   C.ar      1 RES1   0.0000
    15 H4      -0.5578  12.8708   5.5594   H         1 RES1   0.0000
    16 C3       0.1822  13.6675   3.8162   C.ar      1 RES1   0.0000
    17 H5      -0.0437  14.5721   3.9981   H         1 RES1   0.0000
    18 C4       0.7847  13.3307   2.6337   C.ar      1 RES1   0.0000
    19 H6       0.9517  13.9902   1.9707   H         1 RES1   0.0000
    20 C5       1.1521  11.9884   2.4186   C.ar      1 RES1   0.0000
    21 C6       1.8429  10.4078   0.6021   C.ar      1 RES1   0.0000
    22 C7       1.7617  10.3386  -0.7962   C.ar      1 RES1   0.0000
    23 H7       1.5963  11.1205  -1.3099   H         1 RES1   0.0000
    24 C8       1.9258   9.1186  -1.4115   C.ar      1 RES1   0.0000
    25 H8       1.8927   9.0517  -2.3586   H         1 RES1   0.0000
    26 C9       2.1407   7.9825  -0.6342   C.ar      1 RES1   0.0000
    27 H9       2.2300   7.1262  -1.0356   H         1 RES1   0.0000
    28 C10      2.2197   8.1350   0.7258   C.ar      1 RES1   0.0000
    29 H10      2.3672   7.3595   1.2543   H         1 RES1   0.0000
    30 C11      4.8172  10.7608   2.0399   C.ar      1 RES1   0.0000
    31 H11      4.8524   9.9104   1.6180   H         1 RES1   0.0000
    32 C12      5.5184  11.7901   1.4738   C.ar      1 RES1   0.0000
    33 H12      6.0172  11.6593   0.6758   H         1 RES1   0.0000
    34 C13      5.4821  13.0360   2.0986   C.ar      1 RES1   0.0000
    35 H13      5.9230  13.7816   1.7085   H         1 RES1   0.0000
    36 C14      4.8030  13.1742   3.2821   C.ar      1 RES1   0.0000
    37 H14      4.7986  14.0049   3.7432   H         1 RES1   0.0000
    38 C15      4.1125  12.0621   3.8012   C.ar      1 RES1   0.0000
    39 C16      3.0538  11.2719   5.9268   C.ar      1 RES1   0.0000
    40 C17      2.8113  11.6877   7.2461   C.ar      1 RES1   0.0000
    41 H15      2.9283  12.5978   7.4922   H         1 RES1   0.0000
    42 C18      2.4027  10.7633   8.1764   C.ar      1 RES1   0.0000
    43 H16      2.2146  11.0309   9.0684   H         1 RES1   0.0000
    44 C19      2.2664   9.4225   7.7961   C.ar      1 RES1   0.0000
    45 H17      2.0111   8.7595   8.4268   H         1 RES1   0.0000
    46 C20      2.5119   9.0936   6.4883   C.ar      1 RES1   0.0000
    47 H18      2.4278   8.1828   6.2314   H         1 RES1   0.0000
    48 H19      1.1542   7.2159   3.8470   H         1 RES1   0.0000
    49 H20      0.1582   8.1227   3.6755   H         1 RES1   0.0000
    50 H21      3.5822   7.0396   3.7141   H         1 RES1   0.0000
    51 H22      4.5344   7.6342   3.2499   H         1 RES1   0.0000
    52 B1       1.1861   5.5928   7.0891   B         2 RES2   0.0000
    53 B2       1.5543   5.6425   8.7500   B         2 RES2   0.0000
    54 B3       0.4193   4.3903   8.0098   B         2 RES2   0.0000
    55 B4       1.6801   4.0055   6.7432   B         2 RES2   0.0000
    56 B5       2.8084   5.2471   7.4699   B         2 RES2  -1.0000
    57 B6       1.2993   4.0310   9.5513   B         2 RES2   0.0000
    58 B7       1.3978   2.8683   8.1328   B         2 RES2  -1.0000
    59 B8       3.0925   3.4790   7.7559   B         2 RES2   0.0000
    60 B9       3.0021   4.6313   9.1689   B         2 RES2   0.0000
    61 B10      2.6123   2.9764   9.3095   B         2 RES2   0.0000
    62 H23      0.7780   6.3176   6.4069   H         2 RES2   0.0000
    63 H24      1.4192   6.5640   9.3537   H         2 RES2   0.0000
    64 H25     -0.6603   4.3151   7.9519   H         2 RES2   0.0000
    65 H26      1.5890   3.6356   5.7389   H         2 RES2   0.0000
    66 H27      3.5399   5.8611   7.0156   H         2 RES2   0.0000
    67 H28      0.7161   4.0135  10.5556   H         2 RES2   0.0000
    68 H29      0.8910   1.9155   7.9609   H         2 RES2   0.0000
    69 H30      3.9575   3.0303   7.2684   H         2 RES2   0.0000
    70 H31      3.8173   5.0690   9.8064   H         2 RES2   0.0000
    71 H32      3.0494   2.2170   9.9392   H         2 RES2   0.0000
    72 O3       3.0793  15.1498   5.2854   O.3       3 RES3   0.0000
    73 H33      2.3001  15.2515   5.8498   H         3 RES3   0.0000
    74 H34      3.7027  15.5254   5.6228   H         3 RES3   0.0000
    75 O4       2.1770   5.5899   3.7572   O.3       4 RES4   0.0000
    76 H35      1.9927   5.2282   3.1209   H         4 RES4   0.0000
    77 H36      1.9853   5.1709   4.3719   H         4 RES4   0.0000
    78 O5       0.9028  15.5694   6.8228   O.3       5 RES5   0.0000
    79 H37      0.8562  15.2409   7.5572   H         5 RES5   0.0000
    80 H38      0.1516  15.6741   6.5255   H         5 RES5   0.0000
@<TRIPOS>BOND
     1     1     2    1
     2     2    48    1
     3     3     1    1
     4     4     1    1
     5     5     1    1
     6     6     7    1
     7     8     1    1
     8     9     1    1
     9    10    11    1
    10    12     4   ar
    11    13    12    1
    12    14    12   ar
    13    15    14    1
    14    16    14   ar
    15    17    16    1
    16    18    16   ar
    17    19    18    1
    18    20     4   ar
    19    21     5   ar
    20    22    21   ar
    21    23    22    1
    22    24    22   ar
    23    25    24    1
    24    26    24   ar
    25    27    26    1
    26    28     5   ar
    27    29    28    1
    28    30     8   ar
    29    31    30    1
    30    32    30   ar
    31    33    32    1
    32    34    32   ar
    33    35    34    1
    34    36    34   ar
    35    37    36    1
    36    38     8   ar
    37    39     9   ar
    38    40    39   ar
    39    41    40    1
    40    42    40   ar
    41    43    42    1
    42    44    42   ar
    43    45    44    1
    44    46     9   ar
    45    47    46    1
    46    49     2    1
    47    50     3    1
    48    51     3    1
    49     6    20    1
    50     6    21    1
    51    10    38    1
    52    10    39    1
    53    18    20   ar
    54    26    28   ar
    55    36    38   ar
    56    44    46   ar
    57    52    53    1
    58    53    54    1
    59    54    52    1
    60    55    52    1
    61    56    52    1
    62    57    53    1
    63    58    54    1
    64    59    55    1
    65    60    53    1
    66    61    57    1
    67    62    52    1
    68    63    53    1
    69    64    54    1
    70    65    55    1
    71    66    56    1
    72    67    57    1
    73    68    58    1
    74    69    59    1
    75    70    60    1
    76    71    61    1
    77    53    56    1
    78    54    55    1
    79    54    57    1
    80    55    56    1
    81    55    58    1
    82    56    59    1
    83    56    60    1
    84    57    58    1
    85    57    60    1
    86    58    59    1
    87    58    61    1
    88    59    60    1
    89    59    61    1
    90    60    61    1
    91    72    73    1
    92    74    72    1
    93    75    76    1
    94    77    75    1
    95    78    79    1
    96    80    78    1
@<TRIPOS>SUBSTRUCTURE
     1 RES1        1 GROUP             0 ****  ****    0  
     2 RES2       52 GROUP             0 ****  ****    0  
     3 RES3       72 GROUP             0 ****  ****    0  
     4 RES4       75 GROUP             0 ****  ****    0  
     5 RES5       78 GROUP             0 ****  ****    0  
@<TRIPOS>CRYSIN
   10.7795   21.2357   12.9615   90.0000   95.7480   90.0000   231     1
