@<TRIPOS>MOLECULE
VUTZOB
    88    95     2     0     0
SMALL
NO_CHARGES
****
Generated from the CSD

@<TRIPOS>ATOM
     1 Fe1      4.4298   7.2174  15.9370   Fe        1 RES1   0.0000
     2 P1       4.5858   5.7087  17.4803   P.3       1 RES1   0.0000
     3 P2       2.6800   6.1103  15.1329   P.3       1 RES1   0.0000
     4 P3       3.4236   8.4832  17.6242   P.3       1 RES1   0.0000
     5 Cl1      4.1914   8.8155  14.2571   Cl        1 RES1   0.0000
     6 Cl2      6.4051   8.1923  16.7554   Cl        1 RES1   0.0000
     7 O1       6.2755   5.7560  14.1980   O.2       1 RES1   0.0000
     8 C1       5.5176   6.2987  14.8520   C.1       1 RES1   0.0000
     9 C2       6.0432   4.6127  17.5537   C.ar      1 RES1   0.0000
    10 C3       7.2113   5.0629  18.1581   C.ar      1 RES1   0.0000
    11 H1       7.2442   5.9317  18.5408   H         1 RES1   0.0000
    12 C4       8.3382   4.2383  18.2018   C.ar      1 RES1   0.0000
    13 H2       9.1358   4.5461  18.6176   H         1 RES1   0.0000
    14 C5       8.2950   2.9821  17.6447   C.ar      1 RES1   0.0000
    15 H3       9.0571   2.4177  17.6928   H         1 RES1   0.0000
    16 C6       7.1452   2.5332  17.0142   C.ar      1 RES1   0.0000
    17 H4       7.1277   1.6731  16.6125   H         1 RES1   0.0000
    18 C7       6.0203   3.3433  16.9708   C.ar      1 RES1   0.0000
    19 H5       5.2314   3.0337  16.5420   H         1 RES1   0.0000
    20 C8       3.1999   4.5379  17.3345   C.ar      1 RES1   0.0000
    21 C9       2.4208   4.6352  16.1800   C.ar      1 RES1   0.0000
    22 C10      1.4773   3.6364  15.8937   C.ar      1 RES1   0.0000
    23 H6       0.9835   3.6658  15.0823   H         1 RES1   0.0000
    24 C11      1.2668   2.6079  16.7956   C.ar      1 RES1   0.0000
    25 H7       0.6266   1.9338  16.6022   H         1 RES1   0.0000
    26 C12      1.9855   2.5570  17.9814   C.ar      1 RES1   0.0000
    27 H8       1.8053   1.8713  18.6134   H         1 RES1   0.0000
    28 C13      2.9652   3.4989  18.2479   C.ar      1 RES1   0.0000
    29 H9       3.4771   3.4408  19.0468   H         1 RES1   0.0000
    30 C14      4.5145   6.4508  19.1341   C.ar      1 RES1   0.0000
    31 C15      4.0842   7.7832  19.1902   C.ar      1 RES1   0.0000
    32 C16      4.0684   8.4335  20.4227   C.ar      1 RES1   0.0000
    33 H10      3.7970   9.3422  20.4733   H         1 RES1   0.0000
    34 C17      4.4469   7.7602  21.5735   C.ar      1 RES1   0.0000
    35 H11      4.4521   8.2173  22.4058   H         1 RES1   0.0000
    36 C18      4.8189   6.4253  21.5175   C.ar      1 RES1   0.0000
    37 H12      5.0372   5.9585  22.3166   H         1 RES1   0.0000
    38 C19      4.8698   5.7714  20.2962   C.ar      1 RES1   0.0000
    39 H13      5.1457   4.8639  20.2535   H         1 RES1   0.0000
    40 C20      2.9910   5.3946  13.4679   C.ar      1 RES1   0.0000
    41 C21      3.5052   4.1149  13.3290   C.ar      1 RES1   0.0000
    42 H14      3.6215   3.5712  14.0995   H         1 RES1   0.0000
    43 C22      3.8527   3.6162  12.0733   C.ar      1 RES1   0.0000
    44 H15      4.2129   2.7409  11.9949   H         1 RES1   0.0000
    45 C23      3.6720   4.3904  10.9474   C.ar      1 RES1   0.0000
    46 H16      3.9090   4.0515  10.0915   H         1 RES1   0.0000
    47 C24      3.1491   5.6571  11.0691   C.ar      1 RES1   0.0000
    48 H17      3.0148   6.1889  10.2926   H         1 RES1   0.0000
    49 C25      2.8161   6.1639  12.3184   C.ar      1 RES1   0.0000
    50 H18      2.4660   7.0442  12.3910   H         1 RES1   0.0000
    51 C26      1.0033   6.8410  14.9699   C.ar      1 RES1   0.0000
    52 C27      0.8012   7.9511  14.1399   C.ar      1 RES1   0.0000
    53 H19      1.5466   8.3762  13.7346   H         1 RES1   0.0000
    54 C28     -0.4772   8.4353  13.9036   C.ar      1 RES1   0.0000
    55 H20     -0.6014   9.1744  13.3199   H         1 RES1   0.0000
    56 C29     -1.5731   7.8480  14.5111   C.ar      1 RES1   0.0000
    57 H21     -2.4496   8.1619  14.3214   H         1 RES1   0.0000
    58 C30     -1.3867   6.8051  15.3923   C.ar      1 RES1   0.0000
    59 H22     -2.1330   6.4299  15.8453   H         1 RES1   0.0000
    60 C31     -0.1102   6.2992  15.6233   C.ar      1 RES1   0.0000
    61 H23      0.0070   5.5782  16.2310   H         1 RES1   0.0000
    62 C32      3.6674  10.2982  17.7540   C.ar      1 RES1   0.0000
    63 C33      4.5899  10.9683  16.9549   C.ar      1 RES1   0.0000
    64 H24      5.0910  10.4868  16.3077   H         1 RES1   0.0000
    65 C34      4.7851  12.3395  17.0971   C.ar      1 RES1   0.0000
    66 H25      5.4083  12.7902  16.5379   H         1 RES1   0.0000
    67 C35      4.0683  13.0509  18.0571   C.ar      1 RES1   0.0000
    68 H26      4.2173  13.9830  18.1676   H         1 RES1   0.0000
    69 C36      3.1448  12.4027  18.8473   C.ar      1 RES1   0.0000
    70 H27      2.6572  12.8884  19.5008   H         1 RES1   0.0000
    71 C37      2.9266  11.0416  18.6889   C.ar      1 RES1   0.0000
    72 H28      2.2695  10.6064  19.2189   H         1 RES1   0.0000
    73 C38      1.6281   8.3546  17.9596   C.ar      1 RES1   0.0000
    74 C39      0.7264   9.1772  17.2767   C.ar      1 RES1   0.0000
    75 H29      1.0491   9.8011  16.6353   H         1 RES1   0.0000
    76 C40     -0.6323   9.0899  17.5280   C.ar      1 RES1   0.0000
    77 H30     -1.2357   9.6618  17.0687   H         1 RES1   0.0000
    78 C41     -1.1171   8.1694  18.4486   C.ar      1 RES1   0.0000
    79 H31     -2.0510   8.1030  18.6093   H         1 RES1   0.0000
    80 C42     -0.2423   7.3554  19.1274   C.ar      1 RES1   0.0000
    81 H32     -0.5720   6.7352  19.7663   H         1 RES1   0.0000
    82 C43      1.1262   7.4350  18.8840   C.ar      1 RES1   0.0000
    83 H33      1.7217   6.8602  19.3495   H         1 RES1   0.0000
    84 C44     -0.5041   9.4511   9.2601   C.3       2 RES2   0.0000
    85 H34     -0.0403   9.9082   8.5136   H         2 RES2   0.0000
    86 H35     -1.0663   8.7369   8.8702   H         2 RES2   0.0000
    87 Cl3      0.6916   8.7194  10.2910   Cl        2 RES2   0.0000
    88 Cl4     -1.5195  10.5802  10.0451   Cl        2 RES2   0.0000
@<TRIPOS>BOND
     1     1     2    1
     2     2     9    1
     3     3     1    1
     4     4     1    1
     5     5     1    1
     6     6     1    1
     7     7     8    3
     8     8     1    1
     9     9    10   ar
    10    10    11    1
    11    12    10   ar
    12    13    12    1
    13    14    12   ar
    14    15    14    1
    15    16    14   ar
    16    17    16    1
    17    18     9   ar
    18    19    18    1
    19    20     2    1
    20    21     3    1
    21    22    21   ar
    22    23    22    1
    23    24    22   ar
    24    25    24    1
    25    26    24   ar
    26    27    26    1
    27    28    20   ar
    28    29    28    1
    29    30     2    1
    30    31     4    1
    31    32    31   ar
    32    33    32    1
    33    34    32   ar
    34    35    34    1
    35    36    34   ar
    36    37    36    1
    37    38    30   ar
    38    39    38    1
    39    40     3    1
    40    41    40   ar
    41    42    41    1
    42    43    41   ar
    43    44    43    1
    44    45    43   ar
    45    46    45    1
    46    47    45   ar
    47    48    47    1
    48    49    40   ar
    49    50    49    1
    50    51     3    1
    51    52    51   ar
    52    53    52    1
    53    54    52   ar
    54    55    54    1
    55    56    54   ar
    56    57    56    1
    57    58    56   ar
    58    59    58    1
    59    60    51   ar
    60    61    60    1
    61    62     4    1
    62    63    62   ar
    63    64    63    1
    64    65    63   ar
    65    66    65    1
    66    67    65   ar
    67    68    67    1
    68    69    67   ar
    69    70    69    1
    70    71    62   ar
    71    72    71    1
    72    73     4    1
    73    74    73   ar
    74    75    74    1
    75    76    74   ar
    76    77    76    1
    77    78    76   ar
    78    79    78    1
    79    80    78   ar
    80    81    80    1
    81    82    73   ar
    82    83    82    1
    83    16    18   ar
    84    20    21   ar
    85    26    28   ar
    86    30    31   ar
    87    36    38   ar
    88    47    49   ar
    89    58    60   ar
    90    69    71   ar
    91    80    82   ar
    92    84    85    1
    93    86    84    1
    94    87    84    1
    95    88    84    1
@<TRIPOS>SUBSTRUCTURE
     1 RES1        1 GROUP             0 ****  ****    0  
     2 RES2       84 GROUP             0 ****  ****    0  
@<TRIPOS>CRYSIN
   10.7927   17.8559   21.3432   90.0000  103.7160   90.0000    14     1
