@<TRIPOS>MOLECULE
VUXJAB
    75    78     4     0     0
SMALL
USER_CHARGES
****
Generated from the CSD

@<TRIPOS>ATOM
     1 Fe1     11.2393   8.9055   8.5861   Fe        1 RES1   2.0000
     2 N1      12.2338  10.6513  10.7050   N.pl3     1 RES1   0.0000
     3 N2      10.6322  11.5564   9.6294   N.pl3     1 RES1   0.0000
     4 N3      10.4877  10.1037   7.1395   N.ar      1 RES1   0.0000
     5 N4      12.0703   7.7923   9.9890   N.ar      1 RES1   0.0000
     6 N5      10.9552   7.0646   7.7331   N.ar      1 RES1   0.0000
     7 N6       9.5001   8.6088   9.3826   N.1       1 RES1   0.0000
     8 N7      12.9908   9.0448   7.7706   N.1       1 RES1   0.0000
     9 C1      11.4111  10.4526   9.6610   C.3       1 RES1   0.0000
    10 C2      11.9822  11.8749  11.3102   C.2       1 RES1   0.0000
    11 C3      10.9808  12.4437  10.6288   C.2       1 RES1   0.0000
    12 C4       9.4520  11.6495   8.7702   C.3       1 RES1   0.0000
    13 C5       9.7412  11.2153   7.3644   C.ar      1 RES1   0.0000
    14 C6       9.2400  11.9747   6.3239   C.ar      1 RES1   0.0000
    15 C7       9.5145  11.6444   5.0076   C.ar      1 RES1   0.0000
    16 C8      10.3369  10.5583   4.7741   C.ar      1 RES1   0.0000
    17 C9      10.8113   9.8376   5.8502   C.ar      1 RES1   0.0000
    18 C10     13.2336   9.6681  11.1042   C.3       1 RES1   0.0000
    19 C11     12.7435   8.2413  11.0752   C.ar      1 RES1   0.0000
    20 C12     13.1135   7.3854  12.0976   C.ar      1 RES1   0.0000
    21 C13     12.8723   6.0332  11.9746   C.ar      1 RES1   0.0000
    22 C14     12.2886   5.5586  10.8254   C.ar      1 RES1   0.0000
    23 C15     11.8881   6.4597   9.8474   C.ar      1 RES1   0.0000
    24 C16     11.2990   6.0494   8.5696   C.ar      1 RES1   0.0000
    25 C17     11.1254   4.7145   8.2158   C.ar      1 RES1   0.0000
    26 C18     10.5916   4.3954   6.9866   C.ar      1 RES1   0.0000
    27 C19     10.2159   5.4128   6.1488   C.ar      1 RES1   0.0000
    28 C20     10.4016   6.7271   6.5604   C.ar      1 RES1   0.0000
    29 C21      8.5039   8.3792   9.8981   C.1       1 RES1   0.0000
    30 C22      7.2256   8.1071  10.5367   C.3       1 RES1   0.0000
    31 C23     14.0218   8.9763   7.2877   C.1       1 RES1   0.0000
    32 C24     15.3317   8.8725   6.6576   C.3       1 RES1   0.0000
    33 H1      12.4343  12.2379  12.0629   H         1 RES1   0.0000
    34 H2      10.5875  13.2913  10.7996   H         1 RES1   0.0000
    35 H3       9.1277  12.5846   8.7614   H         1 RES1   0.0000
    36 H4       8.7323  11.0821   9.1445   H         1 RES1   0.0000
    37 H5       8.6991  12.7318   6.5137   H         1 RES1   0.0000
    38 H6       9.1498  12.1478   4.2896   H         1 RES1   0.0000
    39 H7      10.5720  10.3125   3.8867   H         1 RES1   0.0000
    40 H8      11.4007   9.1126   5.6781   H         1 RES1   0.0000
    41 H9      13.5385   9.8798  12.0220   H         1 RES1   0.0000
    42 H10     14.0151   9.7470  10.5020   H         1 RES1   0.0000
    43 H11     13.5297   7.7271  12.8799   H         1 RES1   0.0000
    44 H12     13.1082   5.4365  12.6753   H         1 RES1   0.0000
    45 H13     12.1590   4.6257  10.7016   H         1 RES1   0.0000
    46 H14     11.3722   4.0249   8.8209   H         1 RES1   0.0000
    47 H15     10.4871   3.4893   6.7245   H         1 RES1   0.0000
    48 H16      9.8346   5.2232   5.3000   H         1 RES1   0.0000
    49 H17     10.1218   7.4244   5.9794   H         1 RES1   0.0000
    50 H18      7.1910   8.5628  11.4033   H         1 RES1   0.0000
    51 H19      7.1265   7.1411  10.6706   H         1 RES1   0.0000
    52 H20      6.4995   8.4337   9.9664   H         1 RES1   0.0000
    53 H21     15.2301   8.5205   5.7488   H         1 RES1   0.0000
    54 H22     15.8990   8.2678   7.1807   H         1 RES1   0.0000
    55 H23     15.7472   9.7591   6.6203   H         1 RES1   0.0000
    56 P1       5.3852  11.5935   9.0100   P.3       2 RES2  -1.0000
    57 F1       6.3603  12.7700   8.5541   F         2 RES2   0.0000
    58 F2       4.5969  12.6171   9.9609   F         2 RES2   0.0000
    59 F3       6.3634  11.2540  10.2294   F         2 RES2   0.0000
    60 F4       4.4108  10.4195   9.4926   F         2 RES2   0.0000
    61 F5       6.1938  10.5677   8.1110   F         2 RES2   0.0000
    62 F6       4.4127  11.9275   7.8101   F         2 RES2   0.0000
    63 P2      16.3039   8.3218  21.7845   P.3       3 RES3  -1.0000
    64 F7      14.8937   8.7721  21.2236   F         3 RES3   0.0000
    65 F8      15.6078   7.5369  22.9958   F         3 RES3   0.0000
    66 F9      16.2568   6.9921  20.8968   F         3 RES3   0.0000
    67 F10     17.0471   9.0846  20.6021   F         3 RES3   0.0000
    68 F11     17.7327   7.8613  22.3591   F         3 RES3   0.0000
    69 F12     16.3658   9.6325  22.6869   F         3 RES3   0.0000
    70 N8       8.9409   5.9123  12.2302   N.1       4 RES4   0.0000
    71 C25      9.3094   4.8381  12.2724   C.1       4 RES4   0.0000
    72 C26      9.8352   3.4542  12.4038   C.3       4 RES4   0.0000
    73 H24      9.5721   2.9286  11.6190   H         4 RES4   0.0000
    74 H25      9.4673   3.0393  13.2121   H         4 RES4   0.0000
    75 H26     10.8129   3.4801  12.4658   H         4 RES4   0.0000
@<TRIPOS>BOND
     1     1     4    1
     2     2     9    1
     3     3     9    1
     4     4    13   ar
     5     5     1    1
     6     6     1    1
     7     7     1    1
     8     8     1    1
     9     9     1    1
    10    10     2    1
    11    11     3    1
    12    12     3    1
    13    13    12    1
    14    14    13   ar
    15    15    14   ar
    16    16    15   ar
    17    17     4   ar
    18    18     2    1
    19    19     5   ar
    20    20    19   ar
    21    21    20   ar
    22    22    21   ar
    23    23     5   ar
    24    24     6   ar
    25    25    24   ar
    26    26    25   ar
    27    27    26   ar
    28    28     6   ar
    29    29     7    3
    30    30    29    1
    31    31     8    3
    32    32    31    1
    33    33    10    1
    34    34    11    1
    35    35    12    1
    36    36    12    1
    37    37    14    1
    38    38    15    1
    39    39    16    1
    40    40    17    1
    41    41    18    1
    42    42    18    1
    43    43    20    1
    44    44    21    1
    45    45    22    1
    46    46    25    1
    47    47    26    1
    48    48    27    1
    49    49    28    1
    50    50    30    1
    51    51    30    1
    52    52    30    1
    53    53    32    1
    54    54    32    1
    55    55    32    1
    56    10    11    2
    57    16    17   ar
    58    18    19    1
    59    22    23   ar
    60    23    24    1
    61    27    28   ar
    62    56    57    1
    63    58    56    1
    64    59    56    1
    65    60    56    1
    66    61    56    1
    67    62    56    1
    68    63    64    1
    69    65    63    1
    70    66    63    1
    71    67    63    1
    72    68    63    1
    73    69    63    1
    74    70    71    3
    75    71    72    1
    76    72    73    1
    77    74    72    1
    78    75    72    1
@<TRIPOS>SUBSTRUCTURE
     1 RES1        1 GROUP             0 ****  ****    0  
     2 RES2       56 GROUP             0 ****  ****    0  
     3 RES3       63 GROUP             0 ****  ****    0  
     4 RES4       70 GROUP             0 ****  ****    0  
@<TRIPOS>CRYSIN
   11.8824   12.0225   12.7153   78.1070   89.0410   63.7640     2     1
