@<TRIPOS>MOLECULE
VUXPAG
    75    80     1     0     0
SMALL
NO_CHARGES
****
Generated from the CSD

@<TRIPOS>ATOM
     1 C1     -11.8599   2.8638  -6.7913   C.3       1 RES1   0.0000
     2 H1     -11.5260   2.8303  -7.7226   H         1 RES1   0.0000
     3 H2     -12.8483   2.8516  -6.8263   H         1 RES1   0.0000
     4 C2     -11.3816   1.6198  -6.0574   C.ar      1 RES1   0.0000
     5 C3     -11.7511   0.3798  -6.5350   C.ar      1 RES1   0.0000
     6 H3     -12.3156   0.2986  -7.2944   H         1 RES1   0.0000
     7 C4     -11.2747  -0.7444  -5.8791   C.ar      1 RES1   0.0000
     8 H4     -11.5110  -1.6117  -6.1848   H         1 RES1   0.0000
     9 C5     -10.4587  -0.5951  -4.7838   C.ar      1 RES1   0.0000
    10 H5     -10.1042  -1.3527  -4.3333   H         1 RES1   0.0000
    11 C6     -10.1680   0.6703  -4.3572   C.ar      1 RES1   0.0000
    12 H6      -9.6241   0.7728  -3.5851   H         1 RES1   0.0000
    13 C7     -12.5820   4.9609  -5.7629   C.3       1 RES1   0.0000
    14 H7     -13.1897   5.0807  -6.5334   H         1 RES1   0.0000
    15 H8     -12.2725   5.8566  -5.4732   H         1 RES1   0.0000
    16 C8     -13.3229   4.2907  -4.6326   C.ar      1 RES1   0.0000
    17 C9     -14.6959   4.2744  -4.6008   C.ar      1 RES1   0.0000
    18 H9     -15.1967   4.6796  -5.2996   H         1 RES1   0.0000
    19 C10    -15.3336   3.6641  -3.5469   C.ar      1 RES1   0.0000
    20 H10    -16.2827   3.6499  -3.5039   H         1 RES1   0.0000
    21 C11    -14.5758   3.0700  -2.5487   C.ar      1 RES1   0.0000
    22 H11    -14.9941   2.6384  -1.8132   H         1 RES1   0.0000
    23 C12    -13.1991   3.1208  -2.6506   C.ar      1 RES1   0.0000
    24 C13    -12.7170   1.7833  -0.5890   C.2       1 RES1   0.0000
    25 C14    -11.5879   1.3679   0.3614   C.3       1 RES1   0.0000
    26 C15    -10.6369   0.4032  -0.3550   C.3       1 RES1   0.0000
    27 H12    -10.1886   0.8713  -1.0889   H         1 RES1   0.0000
    28 H13    -11.1471  -0.3534  -0.7132   H         1 RES1   0.0000
    29 H14     -9.9673   0.0731   0.2802   H         1 RES1   0.0000
    30 C16    -12.2350   0.6428   1.5538   C.3       1 RES1   0.0000
    31 H15    -11.5372   0.3493   2.1762   H         1 RES1   0.0000
    32 H16    -12.7339  -0.1371   1.2306   H         1 RES1   0.0000
    33 H17    -12.8483   1.2532   2.0154   H         1 RES1   0.0000
    34 C17    -10.8320   2.5947   0.8644   C.3       1 RES1   0.0000
    35 H18    -10.3406   3.0030   0.1226   H         1 RES1   0.0000
    36 H19    -10.2018   2.3256   1.5649   H         1 RES1   0.0000
    37 H20    -11.4697   3.2436   1.2306   H         1 RES1   0.0000
    38 C18    -10.5094   4.8949  -7.0476   C.3       1 RES1   0.0000
    39 H21    -10.3912   5.8119  -6.6926   H         1 RES1   0.0000
    40 H22    -10.9051   4.9650  -7.9518   H         1 RES1   0.0000
    41 C19     -9.1739   4.2165  -7.1368   C.ar      1 RES1   0.0000
    42 C20     -8.5230   4.1079  -8.3355   C.ar      1 RES1   0.0000
    43 H23     -8.9357   4.4024  -9.1394   H         1 RES1   0.0000
    44 C21     -7.2588   3.5625  -8.3514   C.ar      1 RES1   0.0000
    45 H24     -6.7880   3.4813  -9.1745   H         1 RES1   0.0000
    46 C22     -6.6718   3.1329  -7.1781   C.ar      1 RES1   0.0000
    47 H25     -5.7902   2.7805  -7.1702   H         1 RES1   0.0000
    48 C23     -7.4220   3.2355  -5.9969   C.ar      1 RES1   0.0000
    49 C24     -5.6570   2.3540  -4.4702   C.2       1 RES1   0.0000
    50 C25     -5.4169   1.8493  -3.0375   C.3       1 RES1   0.0000
    51 C26     -6.4486   0.7606  -2.6681   C.3       1 RES1   0.0000
    52 H26     -6.4354   0.0548  -3.3479   H         1 RES1   0.0000
    53 H27     -7.3432   1.1577  -2.6267   H         1 RES1   0.0000
    54 H28     -6.2197   0.3768  -1.7957   H         1 RES1   0.0000
    55 C27     -4.0102   1.2603  -2.9706   C.3       1 RES1   0.0000
    56 H29     -3.3556   1.9488  -3.2094   H         1 RES1   0.0000
    57 H30     -3.9408   0.5108  -3.5978   H         1 RES1   0.0000
    58 H31     -3.8320   0.9414  -2.0600   H         1 RES1   0.0000
    59 C28     -5.5295   3.0253  -2.0632   C.3       1 RES1   0.0000
    60 H32     -5.3982   2.7044  -1.1462   H         1 RES1   0.0000
    61 H33     -6.4167   3.4315  -2.1428   H         1 RES1   0.0000
    62 H34     -4.8449   3.6935  -2.2765   H         1 RES1   0.0000
    63 Cl1     -9.1497   3.1982  -2.3241   Cl        1 RES1   0.0000
    64 Cl2     -9.9891   6.1691  -3.9345   Cl        1 RES1   0.0000
    65 Fe1    -10.2663   3.8517  -4.3304   Fe        1 RES1   0.0000
    66 N1     -11.4180   4.1434  -6.1700   N.3       1 RES1   0.0000
    67 N2     -10.6129   1.7802  -4.9787   N.ar      1 RES1   0.0000
    68 N3     -12.5546   3.7301  -3.6666   N.ar      1 RES1   0.0000
    69 N4     -12.3410   2.5663  -1.6784   N.am      1 RES1   0.0000
    70 H35    -11.4810   2.7318  -1.7687   H         1 RES1   0.0000
    71 N5      -8.6437   3.7748  -5.9630   N.ar      1 RES1   0.0000
    72 N6      -6.9405   2.7765  -4.7630   N.am      1 RES1   0.0000
    73 H36     -7.5196   2.7541  -4.1009   H         1 RES1   0.0000
    74 O1     -13.8719   1.4553  -0.4123   O.2       1 RES1   0.0000
    75 O2      -4.7621   2.3946  -5.2883   O.2       1 RES1   0.0000
@<TRIPOS>BOND
     1     1     2    1
     2     3     1    1
     3     4     1    1
     4     5     4   ar
     5     6     5    1
     6     7     5   ar
     7     8     7    1
     8     9     7   ar
     9    10     9    1
    10    11     9   ar
    11    12    11    1
    12    13    14    1
    13    15    13    1
    14    16    13    1
    15    17    16   ar
    16    18    17    1
    17    19    17   ar
    18    20    19    1
    19    21    19   ar
    20    22    21    1
    21    23    21   ar
    22    24    25    1
    23    25    26    1
    24    26    27    1
    25    28    26    1
    26    29    26    1
    27    30    25    1
    28    31    30    1
    29    32    30    1
    30    33    30    1
    31    34    25    1
    32    35    34    1
    33    36    34    1
    34    37    34    1
    35    38    39    1
    36    40    38    1
    37    41    38    1
    38    42    41   ar
    39    43    42    1
    40    44    42   ar
    41    45    44    1
    42    46    44   ar
    43    47    46    1
    44    48    46   ar
    45    49    50    1
    46    50    51    1
    47    51    52    1
    48    53    51    1
    49    54    51    1
    50    55    50    1
    51    56    55    1
    52    57    55    1
    53    58    55    1
    54    59    50    1
    55    60    59    1
    56    61    59    1
    57    62    59    1
    58    63    65    1
    59    64    65    1
    60    65    66    1
    61    66     1    1
    62    67     4   ar
    63    68    16   ar
    64    69    23    1
    65    70    69    1
    66    71    41   ar
    67    72    48    1
    68    73    72    1
    69    74    24    2
    70    75    49    2
    71    11    67   ar
    72    13    66    1
    73    23    68   ar
    74    24    69   am
    75    38    66    1
    76    48    71   ar
    77    49    72   am
    78    65    67    1
    79    65    68    1
    80    65    71    1
@<TRIPOS>SUBSTRUCTURE
     1 RES1        1 GROUP             0 ****  ****    0  
@<TRIPOS>CRYSIN
   18.7567   10.1554   15.9196   90.0000   90.0000   90.0000    29     1
