@<TRIPOS>MOLECULE
VUYDIF
    94   101     2     0     0
SMALL
USER_CHARGES
****
Generated from the CSD

@<TRIPOS>ATOM
     1 Fe1      6.3299   5.0595  11.8860   Fe        1 RES1   1.0000
     2 Cl1      6.5680   4.1105   9.7743   Cl        1 RES1   0.0000
     3 P1       4.7123   6.3421  11.0101   P.3       1 RES1   0.0000
     4 P2       5.3816   3.1689  12.7262   P.3       1 RES1   0.0000
     5 O1       6.1049   6.3048  14.4685   O.2       1 RES1   0.0000
     6 N1       7.5386   6.4901  11.2193   N.2       1 RES1   0.0000
     7 N2       8.0704   4.1702  12.4388   N.2       1 RES1   0.0000
     8 C1       6.1676   5.8457  13.4520   C.1       1 RES1   0.0000
     9 C2       5.7274   7.6033  10.1352   C.3       1 RES1   0.0000
    10 H1       5.6771   7.4537   9.1580   H         1 RES1   0.0000
    11 H2       5.3744   8.5083  10.3278   H         1 RES1   0.0000
    12 C3       7.1652   7.5095  10.5923   C.2       1 RES1   0.0000
    13 H3       7.7770   8.2129  10.4065   H         1 RES1   0.0000
    14 C4       8.9682   6.2973  11.6385   C.3       1 RES1   0.0000
    15 H4       9.0794   6.6492  12.5681   H         1 RES1   0.0000
    16 C5       9.2031   4.7646  11.6550   C.3       1 RES1   0.0000
    17 H5       9.1513   4.4256  10.7161   H         1 RES1   0.0000
    18 C6       8.1012   2.7588  12.5460   C.3       1 RES1   0.0000
    19 H6       8.9154   2.4856  13.0383   H         1 RES1   0.0000
    20 H7       8.1441   2.3623  11.6401   H         1 RES1   0.0000
    21 C7       6.8872   2.2358  13.2622   C.3       1 RES1   0.0000
    22 H8       7.0087   2.3335  14.2397   H         1 RES1   0.0000
    23 H9       6.7709   1.2731  13.0607   H         1 RES1   0.0000
    24 C8       3.5465   5.7669   9.7474   C.ar      1 RES1   0.0000
    25 C9       3.1612   4.4461   9.6649   C.ar      1 RES1   0.0000
    26 H10      3.5669   3.7982  10.2290   H         1 RES1   0.0000
    27 C10      2.1731   4.0583   8.7507   C.ar      1 RES1   0.0000
    28 H11      1.8888   3.1524   8.7198   H         1 RES1   0.0000
    29 C11      1.6123   4.9787   7.8992   C.ar      1 RES1   0.0000
    30 H12      0.9443   4.7109   7.2784   H         1 RES1   0.0000
    31 C12      2.0236   6.2899   7.9487   C.ar      1 RES1   0.0000
    32 H13      1.6576   6.9163   7.3360   H         1 RES1   0.0000
    33 C13      2.9604   6.7138   8.8761   C.ar      1 RES1   0.0000
    34 H14      3.2058   7.6300   8.9276   H         1 RES1   0.0000
    35 C14      3.6297   7.3082  12.1154   C.ar      1 RES1   0.0000
    36 C15      2.2736   6.9684  12.2672   C.ar      1 RES1   0.0000
    37 H15      1.8986   6.2729  11.7400   H         1 RES1   0.0000
    38 C16      1.4692   7.6565  13.1978   C.ar      1 RES1   0.0000
    39 H16      0.5684   7.3922  13.3445   H         1 RES1   0.0000
    40 C17      2.0125   8.7217  13.8909   C.ar      1 RES1   0.0000
    41 H17      1.4726   9.2013  14.5089   H         1 RES1   0.0000
    42 C18      3.3479   9.1041  13.6978   C.ar      1 RES1   0.0000
    43 H18      3.7002   9.8597  14.1524   H         1 RES1   0.0000
    44 C19      4.1542   8.3691  12.8365   C.ar      1 RES1   0.0000
    45 H19      5.0710   8.5971  12.7395   H         1 RES1   0.0000
    46 C20      9.9880   6.9684  10.7408   C.ar      1 RES1   0.0000
    47 C21     10.8304   7.9079  11.3167   C.ar      1 RES1   0.0000
    48 H20     10.7341   8.1824  12.2211   H         1 RES1   0.0000
    49 C22     11.8366   8.4362  10.4801   C.ar      1 RES1   0.0000
    50 H21     12.4503   9.0437  10.8713   H         1 RES1   0.0000
    51 C23     12.0057   8.1486   9.1880   C.ar      1 RES1   0.0000
    52 H22     12.6880   8.5547   8.6675   H         1 RES1   0.0000
    53 C24     11.1424   7.2422   8.6616   C.ar      1 RES1   0.0000
    54 H23     11.2334   7.0080   7.7464   H         1 RES1   0.0000
    55 C25     10.0912   6.6201   9.4306   C.ar      1 RES1   0.0000
    56 H24      9.4971   5.9923   9.0371   H         1 RES1   0.0000
    57 C26     10.5982   4.4397  12.2160   C.ar      1 RES1   0.0000
    58 C27     10.8908   4.6527  13.5345   C.ar      1 RES1   0.0000
    59 H25     10.2299   4.9798  14.1323   H         1 RES1   0.0000
    60 C28     12.2157   4.3672  13.9916   C.ar      1 RES1   0.0000
    61 H26     12.4477   4.5318  14.8990   H         1 RES1   0.0000
    62 C29     13.1375   3.8762  13.1384   C.ar      1 RES1   0.0000
    63 H27     14.0124   3.6706  13.4467   H         1 RES1   0.0000
    64 C30     12.8128   3.6770  11.8579   C.ar      1 RES1   0.0000
    65 H28     13.4751   3.3462  11.2621   H         1 RES1   0.0000
    66 C31     11.5411   3.9390  11.3695   C.ar      1 RES1   0.0000
    67 H29     11.3296   3.7708  10.4586   H         1 RES1   0.0000
    68 C32      4.4854   1.9610  11.7243   C.ar      1 RES1   0.0000
    69 C33      5.1383   1.2484  10.6616   C.ar      1 RES1   0.0000
    70 H30      6.0695   1.3773  10.5207   H         1 RES1   0.0000
    71 C34      4.4479   0.3824   9.8415   C.ar      1 RES1   0.0000
    72 H31      4.9039  -0.0757   9.1456   H         1 RES1   0.0000
    73 C35      3.1166   0.1832  10.0246   C.ar      1 RES1   0.0000
    74 H32      2.6414  -0.3884   9.4337   H         1 RES1   0.0000
    75 C36      2.4469   0.8031  11.0626   C.ar      1 RES1   0.0000
    76 H33      1.5272   0.6220  11.2145   H         1 RES1   0.0000
    77 C37      3.1412   1.7054  11.8909   C.ar      1 RES1   0.0000
    78 H34      2.6688   2.1512  12.5852   H         1 RES1   0.0000
    79 C38      4.3592   3.2350  14.1995   C.ar      1 RES1   0.0000
    80 C39      4.3142   2.1740  15.0889   C.ar      1 RES1   0.0000
    81 H35      4.8989   1.4351  14.9675   H         1 RES1   0.0000
    82 C40      3.4300   2.1762  16.1533   C.ar      1 RES1   0.0000
    83 H36      3.3873   1.4250  16.7332   H         1 RES1   0.0000
    84 C41      2.6072   3.2669  16.3793   C.ar      1 RES1   0.0000
    85 H37      1.9978   3.2596  17.1082   H         1 RES1   0.0000
    86 C42      2.6744   4.3662  15.5460   C.ar      1 RES1   0.0000
    87 H38      2.1237   5.1219  15.7116   H         1 RES1   0.0000
    88 C43      3.5572   4.3672  14.4503   C.ar      1 RES1   0.0000
    89 H39      3.6113   5.1265  13.8828   H         1 RES1   0.0000
    90 F1       7.7227   9.5174  12.8348   F         2 RES2   0.0000
    91 F2       8.8448   8.3872  14.2506   F         2 RES2   0.0000
    92 F3       9.2128  10.4164  13.8002   F         2 RES2   0.0000
    93 F4       7.3759  10.0585  14.8480   F         2 RES2   0.0000
    94 B1       8.2285   9.5547  13.9569   B         2 RES2  -1.0000
@<TRIPOS>BOND
     1     1     2    1
     2     3     1    1
     3     4     1    1
     4     5     8    3
     5     6     1    1
     6     7     1    1
     7     8     1    1
     8     9     3    1
     9    10     9    1
    10    11     9    1
    11    12     6    2
    12    13    12    1
    13    14     6    1
    14    15    14    1
    15    16     7    1
    16    17    16    1
    17    18     7    1
    18    19    18    1
    19    20    18    1
    20    21     4    1
    21    22    21    1
    22    23    21    1
    23    24     3    1
    24    25    24   ar
    25    26    25    1
    26    27    25   ar
    27    28    27    1
    28    29    27   ar
    29    30    29    1
    30    31    29   ar
    31    32    31    1
    32    33    24   ar
    33    34    33    1
    34    35     3    1
    35    36    35   ar
    36    37    36    1
    37    38    36   ar
    38    39    38    1
    39    40    38   ar
    40    41    40    1
    41    42    40   ar
    42    43    42    1
    43    44    35   ar
    44    45    44    1
    45    46    14    1
    46    47    46   ar
    47    48    47    1
    48    49    47   ar
    49    50    49    1
    50    51    49   ar
    51    52    51    1
    52    53    51   ar
    53    54    53    1
    54    55    46   ar
    55    56    55    1
    56    57    16    1
    57    58    57   ar
    58    59    58    1
    59    60    58   ar
    60    61    60    1
    61    62    60   ar
    62    63    62    1
    63    64    62   ar
    64    65    64    1
    65    66    57   ar
    66    67    66    1
    67    68     4    1
    68    69    68   ar
    69    70    69    1
    70    71    69   ar
    71    72    71    1
    72    73    71   ar
    73    74    73    1
    74    75    73   ar
    75    76    75    1
    76    77    68   ar
    77    78    77    1
    78    79     4    1
    79    80    79   ar
    80    81    80    1
    81    82    80   ar
    82    83    82    1
    83    84    82   ar
    84    85    84    1
    85    86    84   ar
    86    87    86    1
    87    88    79   ar
    88    89    88    1
    89     9    12    1
    90    14    16    1
    91    18    21    1
    92    31    33   ar
    93    42    44   ar
    94    53    55   ar
    95    64    66   ar
    96    75    77   ar
    97    86    88   ar
    98    90    94    1
    99    91    94    1
   100    92    94    1
   101    93    94    1
@<TRIPOS>SUBSTRUCTURE
     1 RES1        1 GROUP             0 ****  ****    0  
     2 RES2       90 GROUP             0 ****  ****    0  
@<TRIPOS>CRYSIN
   12.9802   10.6518   16.7114   90.0000   99.0920   90.0000     4     1
