@<TRIPOS>MOLECULE
WAJVUB
   106   115     4     0     0
SMALL
NO_CHARGES
****
Generated from the CSD

@<TRIPOS>ATOM
     1 Fe1     -9.5460   5.2420  16.7484   Fe        1 RES1   0.0000
     2 Cl1     -6.3562   5.2483  13.7338   Cl        1 RES1   0.0000
     3 P1      -5.8611   7.8458  15.7757   P.3       1 RES1   0.0000
     4 F1      -8.8911   8.1819  19.8499   F         1 RES1   0.0000
     5 F2     -10.1838   2.2453  13.6848   F         1 RES1   0.0000
     6 O1      -8.3784   7.7124  17.6378   O.3       1 RES1   0.0000
     7 O2      -8.5605   3.6251  14.5622   O.3       1 RES1   0.0000
     8 O3      -8.5953   5.9793  19.3518   O.3       1 RES1   0.0000
     9 O4     -10.2701   2.5662  15.9553   O.3       1 RES1   0.0000
    10 O5     -10.5623   7.2259  18.5890   O.3       1 RES1   0.0000
    11 O6     -10.8987   4.3183  14.3812   O.3       1 RES1   0.0000
    12 N1      -8.3492   6.7370  16.6952   N.2       1 RES1   0.0000
    13 N2      -8.3412   4.7079  15.3758   N.2       1 RES1   0.0000
    14 N3      -8.9326   4.9428  18.5336   N.2       1 RES1   0.0000
    15 N4      -9.9354   3.3837  16.9995   N.2       1 RES1   0.0000
    16 N5     -10.8444   6.4468  17.4839   N.2       1 RES1   0.0000
    17 N6     -10.8996   5.2418  15.3951   N.2       1 RES1   0.0000
    18 C1      -7.3218   6.7217  15.8692   C.2       1 RES1   0.0000
    19 C2      -7.4076   5.5350  15.0427   C.2       1 RES1   0.0000
    20 C3      -9.1474   3.7777  19.0990   C.2       1 RES1   0.0000
    21 C4      -9.6174   2.8033  18.1281   C.2       1 RES1   0.0000
    22 C5     -11.8725   6.7933  16.7599   C.2       1 RES1   0.0000
    23 C6     -11.9941   5.9330  15.5761   C.2       1 RES1   0.0000
    24 C7      -5.5316   8.1258  17.5500   C.ar      1 RES1   0.0000
    25 C8      -5.1695   9.3583  18.0273   C.ar      1 RES1   0.0000
    26 H1      -5.2008  10.1153  17.4546   H         1 RES1   0.0000
    27 C9      -4.7551   9.5040  19.3430   C.ar      1 RES1   0.0000
    28 H2      -4.4855  10.3586  19.6581   H         1 RES1   0.0000
    29 C10     -4.7298   8.4222  20.2025   C.ar      1 RES1   0.0000
    30 H3      -4.4699   8.5346  21.1100   H         1 RES1   0.0000
    31 C11     -5.0824   7.1947  19.7369   C.ar      1 RES1   0.0000
    32 H4      -5.0615   6.4414  20.3169   H         1 RES1   0.0000
    33 C12     -5.4709   7.0428  18.4150   C.ar      1 RES1   0.0000
    34 H5      -5.7014   6.1796  18.0939   H         1 RES1   0.0000
    35 C13     -6.5777   9.4238  15.1679   C.ar      1 RES1   0.0000
    36 C14     -6.0835   9.8819  13.9444   C.ar      1 RES1   0.0000
    37 H6      -5.4474   9.3620  13.4649   H         1 RES1   0.0000
    38 C15     -6.5149  11.0934  13.4249   C.ar      1 RES1   0.0000
    39 H7      -6.1692  11.4021  12.5962   H         1 RES1   0.0000
    40 C16     -7.4448  11.8529  14.1035   C.ar      1 RES1   0.0000
    41 H8      -7.7366  12.6815  13.7406   H         1 RES1   0.0000
    42 C17     -7.9562  11.4033  15.3258   C.ar      1 RES1   0.0000
    43 H9      -8.5949  11.9245  15.7977   H         1 RES1   0.0000
    44 C18     -7.5239  10.1894  15.8463   C.ar      1 RES1   0.0000
    45 H10     -7.8768   9.8782  16.6713   H         1 RES1   0.0000
    46 C19     -9.0732   3.5615  20.5653   C.ar      1 RES1   0.0000
    47 C20     -8.0807   4.1407  21.3508   C.ar      1 RES1   0.0000
    48 H11     -7.3646   4.6088  20.9392   H         1 RES1   0.0000
    49 C21     -8.1333   4.0358  22.7390   C.ar      1 RES1   0.0000
    50 H12     -7.4552   4.4272  23.2768   H         1 RES1   0.0000
    51 C22     -9.1888   3.3528  23.3313   C.ar      1 RES1   0.0000
    52 H13     -9.2423   3.3022  24.2773   H         1 RES1   0.0000
    53 C23    -10.1538   2.7527  22.5643   C.ar      1 RES1   0.0000
    54 H14    -10.8592   2.2747  22.9816   H         1 RES1   0.0000
    55 C24    -10.1037   2.8403  21.1773   C.ar      1 RES1   0.0000
    56 H15    -10.7657   2.4118  20.6488   H         1 RES1   0.0000
    57 C25     -9.6495   1.3399  18.3387   C.ar      1 RES1   0.0000
    58 C26    -10.6786   0.5656  17.8167   C.ar      1 RES1   0.0000
    59 H16    -11.3849   0.9781  17.3326   H         1 RES1   0.0000
    60 C27    -10.6777  -0.8089  18.0026   C.ar      1 RES1   0.0000
    61 H17    -11.3855  -1.3374  17.6498   H         1 RES1   0.0000
    62 C28     -9.6606  -1.4004  18.6947   C.ar      1 RES1   0.0000
    63 H18     -9.6631  -2.3427  18.8162   H         1 RES1   0.0000
    64 C29     -8.6347  -0.6508  19.2166   C.ar      1 RES1   0.0000
    65 H19     -7.9339  -1.0781  19.6947   H         1 RES1   0.0000
    66 C30     -8.6161   0.7410  19.0465   C.ar      1 RES1   0.0000
    67 H20     -7.9106   1.2633  19.4092   H         1 RES1   0.0000
    68 C31    -12.7127   7.9912  16.9829   C.ar      1 RES1   0.0000
    69 C32    -13.0051   8.8174  15.8965   C.ar      1 RES1   0.0000
    70 H21    -12.6983   8.5815  15.0290   H         1 RES1   0.0000
    71 C33    -13.7375   9.9745  16.0739   C.ar      1 RES1   0.0000
    72 H22    -13.9154  10.5414  15.3341   H         1 RES1   0.0000
    73 C34    -14.2142  10.3092  17.3384   C.ar      1 RES1   0.0000
    74 H23    -14.7270  11.0996  17.4595   H         1 RES1   0.0000
    75 C35    -13.9422   9.4904  18.4123   C.ar      1 RES1   0.0000
    76 H24    -14.2685   9.7214  19.2750   H         1 RES1   0.0000
    77 C36    -13.1975   8.3333  18.2493   C.ar      1 RES1   0.0000
    78 H25    -13.0169   7.7739  18.9968   H         1 RES1   0.0000
    79 C37    -13.2217   5.7939  14.7833   C.ar      1 RES1   0.0000
    80 C38    -14.4659   5.7832  15.4392   C.ar      1 RES1   0.0000
    81 H26    -14.5032   5.8869  16.3833   H         1 RES1   0.0000
    82 C39    -15.6268   5.6251  14.7189   C.ar      1 RES1   0.0000
    83 H27    -16.4630   5.6078  15.1706   H         1 RES1   0.0000
    84 C40    -15.5865   5.4880  13.3385   C.ar      1 RES1   0.0000
    85 H28    -16.3914   5.3880  12.8451   H         1 RES1   0.0000
    86 C41    -14.3613   5.4991  12.6770   C.ar      1 RES1   0.0000
    87 H29    -14.3302   5.4053  11.7324   H         1 RES1   0.0000
    88 C42    -13.1899   5.6486  13.3966   C.ar      1 RES1   0.0000
    89 H30    -12.3570   5.6523  12.9427   H         1 RES1   0.0000
    90 B1      -9.1090   7.2750  18.8733   B         1 RES1   0.0000
    91 B2      -9.9859   3.1775  14.6420   B         1 RES1   0.0000
    92 Cl2    -16.0865   0.3691  14.2043   Cl        2 RES2   0.0000
    93 Cl3    -13.5950   1.8135  14.6279   Cl        2 RES2   0.0000
    94 C43    -15.3405   1.8351  14.8197   C.3       2 RES2   0.0000
    95 H31    -15.7113   2.6168  14.3385   H         2 RES2   0.0000
    96 H32    -15.5614   1.9364  15.7782   H         2 RES2   0.0000
    97 Cl4    -10.9996  10.8065  13.7021   Cl        3 RES3   0.0000
    98 Cl5     -9.9770   8.0503  13.8795   Cl        3 RES3   0.0000
    99 C44     -9.9547   9.5732  12.9820   C.3       3 RES3   0.0000
   100 H33    -10.2491   9.4040  12.0520   H         3 RES3   0.0000
   101 H34     -9.0268   9.9153  12.9500   H         3 RES3   0.0000
   102 Cl6    -15.5215   8.5330  10.4566   Cl        4 RES4   0.0000
   103 Cl7    -13.7289  10.4926  11.6025   Cl        4 RES4   0.0000
   104 C45    -15.0186  10.2129  10.4464   C.3       4 RES4   0.0000
   105 H35    -14.7068  10.4574   9.5386   H         4 RES4   0.0000
   106 H36    -15.7924  10.7896  10.6709   H         4 RES4   0.0000
@<TRIPOS>BOND
     1     1    12    1
     2     2    19    1
     3     3    18    1
     4     4    90    1
     5     5    91    1
     6     6    12    1
     7     7    13    1
     8     8    14    1
     9     9    15    1
    10    10    16    1
    11    11    17    1
    12    12    18    2
    13    13     1    1
    14    14     1    1
    15    15     1    1
    16    16     1    1
    17    17     1    1
    18    18    19    1
    19    19    13    2
    20    20    14    2
    21    21    15    2
    22    22    16    2
    23    23    17    2
    24    24     3    1
    25    25    24   ar
    26    26    25    1
    27    27    25   ar
    28    28    27    1
    29    29    27   ar
    30    30    29    1
    31    31    29   ar
    32    32    31    1
    33    33    24   ar
    34    34    33    1
    35    35     3    1
    36    36    35   ar
    37    37    36    1
    38    38    36   ar
    39    39    38    1
    40    40    38   ar
    41    41    40    1
    42    42    40   ar
    43    43    42    1
    44    44    35   ar
    45    45    44    1
    46    46    20    1
    47    47    46   ar
    48    48    47    1
    49    49    47   ar
    50    50    49    1
    51    51    49   ar
    52    52    51    1
    53    53    51   ar
    54    54    53    1
    55    55    46   ar
    56    56    55    1
    57    57    21    1
    58    58    57   ar
    59    59    58    1
    60    60    58   ar
    61    61    60    1
    62    62    60   ar
    63    63    62    1
    64    64    62   ar
    65    65    64    1
    66    66    57   ar
    67    67    66    1
    68    68    22    1
    69    69    68   ar
    70    70    69    1
    71    71    69   ar
    72    72    71    1
    73    73    71   ar
    74    74    73    1
    75    75    73   ar
    76    76    75    1
    77    77    68   ar
    78    78    77    1
    79    79    23    1
    80    80    79   ar
    81    81    80    1
    82    82    80   ar
    83    83    82    1
    84    84    82   ar
    85    85    84    1
    86    86    84   ar
    87    87    86    1
    88    88    79   ar
    89    89    88    1
    90    90     6    1
    91    91     7    1
    92     8    90    1
    93     9    91    1
    94    10    90    1
    95    11    91    1
    96    20    21    1
    97    22    23    1
    98    31    33   ar
    99    42    44   ar
   100    53    55   ar
   101    64    66   ar
   102    75    77   ar
   103    86    88   ar
   104    92    94    1
   105    93    94    1
   106    94    95    1
   107    96    94    1
   108    97    99    1
   109    98    99    1
   110    99   100    1
   111   101    99    1
   112   102   104    1
   113   103   104    1
   114   104   105    1
   115   106   104    1
@<TRIPOS>SUBSTRUCTURE
     1 RES1        1 GROUP             0 ****  ****    0  
     2 RES2       92 GROUP             0 ****  ****    0  
     3 RES3       97 GROUP             0 ****  ****    0  
     4 RES4      102 GROUP             0 ****  ****    0  
@<TRIPOS>CRYSIN
   16.4722   12.3493   30.3441   90.0000  126.4700   90.0000    14     1
