@<TRIPOS>MOLECULE
WAKTEK01
    94    98     5     0     0
SMALL
USER_CHARGES
****
Generated from the CSD

@<TRIPOS>ATOM
     1 C1       5.9978  -0.0221   2.2272   C.ar      1 RES1   0.0000
     2 H1       5.5066   0.6574   2.6736   H         1 RES1   0.0000
     3 C2       5.2921  -1.0542   1.6431   C.ar      1 RES1   0.0000
     4 H2       4.3430  -1.0761   1.6847   H         1 RES1   0.0000
     5 C3       5.9933  -2.0541   0.9965   C.ar      1 RES1   0.0000
     6 H3       5.5382  -2.7764   0.5802   H         1 RES1   0.0000
     7 C4       7.3732  -1.9786   0.9696   C.ar      1 RES1   0.0000
     8 H4       7.8758  -2.6563   0.5343   H         1 RES1   0.0000
     9 C5       8.0267  -0.9135   1.5787   C.ar      1 RES1   0.0000
    10 C6       9.5622  -0.8193   1.6002   C.3       1 RES1   0.0000
    11 C7      10.1740  -1.9966   0.8288   C.3       1 RES1   0.0000
    12 H5       9.9083  -2.8380   1.2541   H         1 RES1   0.0000
    13 H6       9.8534  -1.9816  -0.0977   H         1 RES1   0.0000
    14 H7      11.1513  -1.9199   0.8374   H         1 RES1   0.0000
    15 C8      10.0148  -0.8427   3.0664   C.ar      1 RES1   0.0000
    16 C9      10.9087  -1.7893   3.5519   C.ar      1 RES1   0.0000
    17 H8      11.3077  -2.4130   2.9567   H         1 RES1   0.0000
    18 C10     11.2198  -1.8278   4.8983   C.ar      1 RES1   0.0000
    19 H9      11.8560  -2.4493   5.2336   H         1 RES1   0.0000
    20 C11     10.5858  -0.9439   5.7414   C.ar      1 RES1   0.0000
    21 H10     10.7453  -0.9687   6.6771   H         1 RES1   0.0000
    22 C12      9.7153  -0.0202   5.2023   C.ar      1 RES1   0.0000
    23 H11      9.2719   0.5768   5.7939   H         1 RES1   0.0000
    24 C13      9.9587   0.5109   0.9622   C.ar      1 RES1   0.0000
    25 C14     10.6757   0.5456  -0.2259   C.ar      1 RES1   0.0000
    26 H12     10.9548  -0.2639  -0.6380   H         1 RES1   0.0000
    27 C15     10.9811   1.7599  -0.8047   C.ar      1 RES1   0.0000
    28 H13     11.4334   1.7983  -1.6389   H         1 RES1   0.0000
    29 C16     10.6168   2.9210  -0.1485   C.ar      1 RES1   0.0000
    30 H14     10.8431   3.7688  -0.5124   H         1 RES1   0.0000
    31 C17      9.9162   2.8360   1.0491   C.ar      1 RES1   0.0000
    32 C18      9.5780   3.0977   5.3720   C.ar      1 RES1   0.0000
    33 H15      9.1214   2.4714   5.9215   H         1 RES1   0.0000
    34 C19     10.4063   4.0184   5.9811   C.ar      1 RES1   0.0000
    35 H16     10.5331   4.0090   6.9223   H         1 RES1   0.0000
    36 C20     11.0470   4.9535   5.1923   C.ar      1 RES1   0.0000
    37 H17     11.6585   5.5734   5.5725   H         1 RES1   0.0000
    38 C21     10.7763   4.9669   3.8360   C.ar      1 RES1   0.0000
    39 H18     11.1716   5.6287   3.2817   H         1 RES1   0.0000
    40 C22      9.9279   4.0140   3.2803   C.ar      1 RES1   0.0000
    41 C23      9.4802   4.0889   1.8043   C.3       1 RES1   0.0000
    42 C24     10.0620   5.3438   1.1414   C.3       1 RES1   0.0000
    43 H19      9.7738   6.1391   1.6369   H         1 RES1   0.0000
    44 H20     11.0404   5.2921   1.1464   H         1 RES1   0.0000
    45 H21      9.7436   5.4027   0.2173   H         1 RES1   0.0000
    46 C25      7.9425   4.1422   1.8065   C.ar      1 RES1   0.0000
    47 C26      7.2555   5.2134   1.2481   C.ar      1 RES1   0.0000
    48 H22      7.7341   5.9147   0.8234   H         1 RES1   0.0000
    49 C27      5.8723   5.2557   1.3125   C.ar      1 RES1   0.0000
    50 H23      5.3884   5.9621   0.9012   H         1 RES1   0.0000
    51 C28      5.2128   4.2447   1.9888   C.ar      1 RES1   0.0000
    52 H24      4.2670   4.2602   2.0795   H         1 RES1   0.0000
    53 C29      5.9529   3.2151   2.5285   C.ar      1 RES1   0.0000
    54 H25      5.4950   2.5394   3.0146   H         1 RES1   0.0000
    55 C30      6.4147   1.2054   5.5159   C.1       1 RES1   0.0000
    56 C31      5.5074   0.9061   6.6171   C.3       1 RES1   0.0000
    57 H26      5.7643   1.4301   7.4048   H         1 RES1   0.0000
    58 H27      5.5575  -0.0490   6.8306   H         1 RES1   0.0000
    59 H28      4.5905   1.1346   6.3561   H         1 RES1   0.0000
    60 N1       7.3459   0.0792   2.2023   N.ar      1 RES1   0.0000
    61 N2       9.4577   0.0831   3.8838   N.ar      1 RES1   0.0000
    62 N3       9.5529   1.6453   1.5840   N.ar      1 RES1   0.0000
    63 N4       9.3806   3.0368   4.0376   N.ar      1 RES1   0.0000
    64 N5       7.2961   3.1157   2.4027   N.ar      1 RES1   0.0000
    65 N6       7.1304   1.4016   4.6409   N.1       1 RES1   0.0000
    66 Fe1      8.3452   1.5655   3.1376   Fe        1 RES1   2.0000
    67 C32      7.9893   1.4791  10.3334   C.3       2 RES2   0.0000
    68 O1      10.1447   0.4115   9.4729   O.2       2 RES2   0.0000
    69 O2       9.7210   2.7153   8.9075   O.2       2 RES2   0.0000
    70 O3       8.4078   0.9388   7.8759   O.3       2 RES2  -1.0000
    71 F1       7.3974   0.3100  10.5191   F         2 RES2   0.0000
    72 F2       8.5658   1.8237  11.4916   F         2 RES2   0.0000
    73 F3       7.0463   2.3640  10.0573   F         2 RES2   0.0000
    74 S1       9.2010   1.3819   8.9960   S.o2      2 RES2   0.0000
    75 C33     13.3061   2.0829   3.3252   C.3       3 RES3   0.0000
    76 O4      14.4143  -0.1794   3.6482   O.2       3 RES3   0.0000
    77 O5      15.2998   1.6973   4.8871   O.2       3 RES3   0.0000
    78 O6      15.6586   1.5304   2.5067   O.3       3 RES3  -1.0000
    79 F4      12.4393   1.9493   4.3135   F         3 RES3   0.0000
    80 F5      13.5190   3.3928   3.1707   F         3 RES3   0.0000
    81 F6      12.7067   1.6782   2.2125   F         3 RES3   0.0000
    82 S2      14.8555   1.1755   3.6434   S.o2      3 RES3   0.0000
    83 C34     13.8518   2.2244   7.7334   C.1       4 RES4   0.0000
    84 C35     13.2370   0.9465   7.4750   C.3       4 RES4   0.0000
    85 H29     13.5852   0.2844   8.1066   H         4 RES4   0.0000
    86 H30     13.4435   0.6653   6.5595   H         4 RES4   0.0000
    87 H31     12.2671   1.0240   7.5823   H         4 RES4   0.0000
    88 N7      14.3346   3.2211   7.9764   N.1       4 RES4   0.0000
    89 C36      4.1944   4.4280   5.9924   C.1       5 RES5   0.0000
    90 C37      2.9917   4.9397   5.3538   C.3       5 RES5   0.0000
    91 H32      2.2013   4.5557   5.7879   H         5 RES5   0.0000
    92 H33      2.9953   4.6948   4.4062   H         5 RES5   0.0000
    93 H34      2.9679   5.9163   5.4370   H         5 RES5   0.0000
    94 N8       5.1423   4.0433   6.4905   N.1       5 RES5   0.0000
@<TRIPOS>BOND
     1     1     2    1
     2     3     1   ar
     3     4     3    1
     4     5     3   ar
     5     6     5    1
     6     7     5   ar
     7     8     7    1
     8     9     7   ar
     9    10     9    1
    10    11    10    1
    11    12    11    1
    12    13    11    1
    13    14    11    1
    14    15    10    1
    15    16    15   ar
    16    17    16    1
    17    18    16   ar
    18    19    18    1
    19    20    18   ar
    20    21    20    1
    21    22    20   ar
    22    23    22    1
    23    24    10    1
    24    25    24   ar
    25    26    25    1
    26    27    25   ar
    27    28    27    1
    28    29    27   ar
    29    30    29    1
    30    31    29   ar
    31    32    33    1
    32    34    32   ar
    33    35    34    1
    34    36    34   ar
    35    37    36    1
    36    38    36   ar
    37    39    38    1
    38    40    38   ar
    39    41    31    1
    40    42    41    1
    41    43    42    1
    42    44    42    1
    43    45    42    1
    44    46    41    1
    45    47    46   ar
    46    48    47    1
    47    49    47   ar
    48    50    49    1
    49    51    49   ar
    50    52    51    1
    51    53    51   ar
    52    54    53    1
    53    55    56    1
    54    56    57    1
    55    58    56    1
    56    59    56    1
    57    60     1   ar
    58    61    15   ar
    59    62    24   ar
    60    63    32   ar
    61    64    46   ar
    62    65    55    3
    63    66    60    1
    64     9    60   ar
    65    22    61   ar
    66    31    62   ar
    67    40    41    1
    68    40    63   ar
    69    53    64   ar
    70    61    66    1
    71    62    66    1
    72    63    66    1
    73    64    66    1
    74    65    66    1
    75    67    71    1
    76    68    74    2
    77    69    74    2
    78    70    74    1
    79    72    67    1
    80    73    67    1
    81    74    67    1
    82    75    79    1
    83    76    82    2
    84    77    82    2
    85    78    82    1
    86    80    75    1
    87    81    75    1
    88    82    75    1
    89    83    84    1
    90    84    85    1
    91    86    84    1
    92    87    84    1
    93    88    83    3
    94    89    90    1
    95    90    91    1
    96    92    90    1
    97    93    90    1
    98    94    89    3
@<TRIPOS>SUBSTRUCTURE
     1 RES1        1 GROUP             0 ****  ****    0  
     2 RES2       67 GROUP             0 ****  ****    0  
     3 RES3       75 GROUP             0 ****  ****    0  
     4 RES4       83 GROUP             0 ****  ****    0  
     5 RES5       89 GROUP             0 ****  ****    0  
@<TRIPOS>CRYSIN
   12.4770   15.8020   19.9400   90.0000   90.8980   90.0000   231     1
