@<TRIPOS>MOLECULE
WAKTEK
    94    98     5     0     0
SMALL
USER_CHARGES
****
Generated from the CSD

@<TRIPOS>ATOM
     1 Fe1     10.0721  14.2271  16.8062   Fe        1 RES1   2.0000
     2 C1       8.9366  11.7079  18.1423   C.3       1 RES1   0.0000
     3 N1      11.0748  15.7092  17.7407   N.ar      1 RES1   0.0000
     4 C2       8.7015  15.8120  14.7444   C.ar      1 RES1   0.0000
     5 H1       9.1341  15.2257  14.1669   H         1 RES1   0.0000
     6 N2      11.2890  14.3860  15.3009   N.1       1 RES1   0.0000
     7 C3      12.0029  14.5740  14.4282   C.1       1 RES1   0.0000
     8 C4      12.9079  14.8692  13.3287   C.3       1 RES1   0.0000
     9 H2      12.8370  15.7987  13.0977   H         1 RES1   0.0000
    10 H3      12.6751  14.3306  12.5691   H         1 RES1   0.0000
    11 H4      13.8093  14.6732  13.5944   H         1 RES1   0.0000
    12 C5      12.4207  15.8076  17.7156   C.ar      1 RES1   0.0000
    13 H5      12.8979  15.1420  17.2767   H         1 RES1   0.0000
    14 C6      13.1338  16.8375  18.3025   C.ar      1 RES1   0.0000
    15 H6      14.0626  16.8580  18.2602   H         1 RES1   0.0000
    16 C7      12.4339  17.8351  18.9512   C.ar      1 RES1   0.0000
    17 H7      12.8822  18.5376  19.3633   H         1 RES1   0.0000
    18 C8      11.0524  17.7668  18.9753   C.ar      1 RES1   0.0000
    19 H8      10.5632  18.4334  19.4012   H         1 RES1   0.0000
    20 C9      10.3916  16.7022  18.3639   C.ar      1 RES1   0.0000
    21 C10      8.8638  16.6123  18.3426   C.3       1 RES1   0.0000
    22 C11      8.4060  16.6346  16.8804   C.ar      1 RES1   0.0000
    23 N3       8.9610  15.7117  16.0611   N.ar      1 RES1   0.0000
    24 C12      7.8307  16.7350  14.2040   C.ar      1 RES1   0.0000
    25 H9       7.6733  16.7569  13.2872   H         1 RES1   0.0000
    26 C13      7.1995  17.6225  15.0458   C.ar      1 RES1   0.0000
    27 H10      6.5792  18.2314  14.7174   H         1 RES1   0.0000
    28 C14      7.5136  17.5845  16.3966   C.ar      1 RES1   0.0000
    29 H11      7.1262  18.1966  16.9795   H         1 RES1   0.0000
    30 C15      8.4609  15.2873  18.9795   C.ar      1 RES1   0.0000
    31 N4       8.8683  14.1488  18.3603   N.ar      1 RES1   0.0000
    32 C16      7.6346  10.8288  16.1214   C.ar      1 RES1   0.0000
    33 H12      7.2468  10.1836  16.6683   H         1 RES1   0.0000
    34 C17      7.3612  10.8408  14.7587   C.ar      1 RES1   0.0000
    35 H13      6.7625  10.2341  14.3883   H         1 RES1   0.0000
    36 C18      8.0007  11.7750  13.9692   C.ar      1 RES1   0.0000
    37 H14      7.8740  11.7843  13.0478   H         1 RES1   0.0000
    38 C19      8.8325  12.6941  14.5756   C.ar      1 RES1   0.0000
    39 H15      9.2808  13.3045  14.0352   H         1 RES1   0.0000
    40 N5       9.0324  12.7580  15.9111   N.ar      1 RES1   0.0000
    41 C20      8.4874  11.7815  16.6681   C.ar      1 RES1   0.0000
    42 C21     10.4718  11.6565  18.1405   C.ar      1 RES1   0.0000
    43 C22     11.1626  10.5821  18.7010   C.ar      1 RES1   0.0000
    44 H16     10.6946   9.8963  19.1199   H         1 RES1   0.0000
    45 C23     12.5463  10.5383  18.6330   C.ar      1 RES1   0.0000
    46 H17     13.0218   9.8474  19.0361   H         1 RES1   0.0000
    47 C24     13.2039  11.5474  17.9518   C.ar      1 RES1   0.0000
    48 H18     14.1296  11.5317  17.8612   H         1 RES1   0.0000
    49 C25     12.4610  12.5762  17.4104   C.ar      1 RES1   0.0000
    50 H19     12.9080  13.2351  16.9297   H         1 RES1   0.0000
    51 N6      11.1208  12.6775  17.5397   N.ar      1 RES1   0.0000
    52 C26      8.5018  12.9620  18.8975   C.ar      1 RES1   0.0000
    53 C27      7.7968  12.8808  20.0938   C.ar      1 RES1   0.0000
    54 H20      7.5706  12.0511  20.4504   H         1 RES1   0.0000
    55 C28      7.4360  14.0397  20.7480   C.ar      1 RES1   0.0000
    56 H21      6.9939  14.0038  21.5655   H         1 RES1   0.0000
    57 C29      7.7432  15.2552  20.1662   C.ar      1 RES1   0.0000
    58 H22      7.4703  16.0481  20.5681   H         1 RES1   0.0000
    59 C30      8.3554  10.4543  18.8047   C.3       1 RES1   0.0000
    60 H23      8.6178   9.6769  18.3060   H         1 RES1   0.0000
    61 H24      7.3974  10.5167  18.8207   H         1 RES1   0.0000
    62 H25      8.6871  10.3841  19.7024   H         1 RES1   0.0000
    63 C31      8.2478  17.7908  19.1115   C.3       1 RES1   0.0000
    64 H26      7.2941  17.6915  19.1399   H         1 RES1   0.0000
    65 H27      8.4702  18.6134  18.6691   H         1 RES1   0.0000
    66 H28      8.5953  17.8051  20.0076   H         1 RES1   0.0000
    67 S1       9.2094  14.4102  10.9487   S.o2      2 RES2   0.0000
    68 F1       9.8517  13.9421   8.4628   F         2 RES2   0.0000
    69 F2      11.3623  13.4087   9.9112   F         2 RES2   0.0000
    70 F3      11.0256  15.4518   9.4245   F         2 RES2   0.0000
    71 O1       8.2714  15.3806  10.4592   O.2       2 RES2   0.0000
    72 O2      10.0033  14.8568  12.0662   O.3       2 RES2  -1.0000
    73 O3       8.6817  13.0802  11.0461   O.2       2 RES2   0.0000
    74 C32     10.4337  14.2927   9.6222   C.3       2 RES2   0.0000
    75 S2       3.5502  14.6111  16.3043   S.o2      3 RES3   0.0000
    76 F4       5.9547  13.8285  15.6093   F         3 RES3   0.0000
    77 O4       3.9863  15.9654  16.2953   O.2       3 RES3   0.0000
    78 F5       5.7143  14.1177  17.7124   F         3 RES3   0.0000
    79 F6       4.8950  12.4072  16.7838   F         3 RES3   0.0000
    80 O5       2.7609  14.2719  17.4559   O.3       3 RES3  -1.0000
    81 O6       3.0879  14.0877  15.0743   O.2       3 RES3   0.0000
    82 C33      5.1044  13.7164  16.6111   C.3       3 RES3   0.0000
    83 N7      13.2972  11.7232  13.4583   N.1       4 RES4   0.0000
    84 C34     15.4331  10.8340  14.5840   C.3       4 RES4   0.0000
    85 H29     15.4722   9.8821  14.4721   H         4 RES4   0.0000
    86 H30     15.4168  11.0440  15.5213   H         4 RES4   0.0000
    87 H31     16.2052  11.2365  14.1789   H         4 RES4   0.0000
    88 C35     14.2283  11.3486  13.9495   C.1       4 RES4   0.0000
    89 N8       4.0753  12.5705  11.9702   N.1       5 RES5   0.0000
    90 C36      4.5534  13.5640  12.2106   C.1       5 RES5   0.0000
    91 C37      5.1723  14.8405  12.4659   C.3       5 RES5   0.0000
    92 H32      4.8876  15.4735  11.8031   H         5 RES5   0.0000
    93 H33      6.1275  14.7474  12.4294   H         5 RES5   0.0000
    94 H34      4.9162  15.1531  13.3371   H         5 RES5   0.0000
@<TRIPOS>BOND
     1     1     3    1
     2     2    41    1
     3     3    12   ar
     4     4     5    1
     5     6     1    1
     6     7     6    3
     7     8     7    1
     8     9     8    1
     9    10     8    1
    10    11     8    1
    11    12    13    1
    12    14    12   ar
    13    15    14    1
    14    16    14   ar
    15    17    16    1
    16    18    16   ar
    17    19    18    1
    18    20     3   ar
    19    21    20    1
    20    22    21    1
    21    23     1    1
    22    24     4   ar
    23    25    24    1
    24    26    24   ar
    25    27    26    1
    26    28    22   ar
    27    29    28    1
    28    30    21    1
    29    31     1    1
    30    32    33    1
    31    34    32   ar
    32    35    34    1
    33    36    34   ar
    34    37    36    1
    35    38    36   ar
    36    39    38    1
    37    40     1    1
    38    41    32   ar
    39    42     2    1
    40    43    42   ar
    41    44    43    1
    42    45    43   ar
    43    46    45    1
    44    47    45   ar
    45    48    47    1
    46    49    47   ar
    47    50    49    1
    48    51     1    1
    49    52     2    1
    50    53    52   ar
    51    54    53    1
    52    55    53   ar
    53    56    55    1
    54    57    30   ar
    55    58    57    1
    56    59     2    1
    57    60    59    1
    58    61    59    1
    59    62    59    1
    60    63    21    1
    61    64    63    1
    62    65    63    1
    63    66    63    1
    64     4    23   ar
    65    18    20   ar
    66    22    23   ar
    67    26    28   ar
    68    30    31   ar
    69    31    52   ar
    70    38    40   ar
    71    40    41   ar
    72    42    51   ar
    73    49    51   ar
    74    55    57   ar
    75    67    71    2
    76    68    74    1
    77    69    74    1
    78    70    74    1
    79    72    67    1
    80    73    67    2
    81    74    67    1
    82    75    77    2
    83    76    82    1
    84    78    82    1
    85    79    82    1
    86    80    75    1
    87    81    75    2
    88    82    75    1
    89    83    88    3
    90    84    85    1
    91    86    84    1
    92    87    84    1
    93    88    84    1
    94    89    90    3
    95    90    91    1
    96    91    92    1
    97    93    91    1
    98    94    91    1
@<TRIPOS>SUBSTRUCTURE
     1 RES1        1 GROUP             0 ****  ****    0  
     2 RES2       67 GROUP             0 ****  ****    0  
     3 RES3       75 GROUP             0 ****  ****    0  
     4 RES4       83 GROUP             0 ****  ****    0  
     5 RES5       89 GROUP             0 ****  ****    0  
@<TRIPOS>CRYSIN
   12.4780   15.7861   19.9499   90.0000   90.8420   90.0000   231     1
