@<TRIPOS>MOLECULE
WAKXAH
   119   125     3     0     0
SMALL
NO_CHARGES
****
Generated from the CSD

@<TRIPOS>ATOM
     1 Fe1      5.1557   3.3530  12.2261   Fe        1 RES1   0.0000
     2 O3       4.2466   4.9284  13.0875   O.3       1 RES1   0.0000
     3 N1       3.0973   5.2806  12.4295   N.am      1 RES1   0.0000
     4 C3       2.3696   6.3236  12.8821   C.2       1 RES1   0.0000
     5 O4      -0.2574   6.2888  10.3586   O.3       1 RES1   0.0000
     6 C4       1.2405   6.6564  12.2079   C.2       1 RES1   0.0000
     7 O5       3.5939   3.6068  11.0327   O.2       1 RES1   0.0000
     8 C5       0.8655   5.9714  11.0045   C.2       1 RES1   0.0000
     9 C6       1.6743   4.9130  10.5573   C.2       1 RES1   0.0000
    10 C7       2.8175   4.5685  11.3107   C.2       1 RES1   0.0000
    11 C8       1.3561   4.1777   9.2936   C.3       1 RES1   0.0000
    12 C9       1.0804   2.6761   9.5286   C.3       1 RES1   0.0000
    13 C10      0.7520   1.9853   8.2004   C.3       1 RES1   0.0000
    14 C11      1.8182   2.1633   7.1488   C.3       1 RES1   0.0000
    15 C12      2.1061   3.6649   6.9272   C.3       1 RES1   0.0000
    16 C13      2.4547   4.4099   8.1923   C.3       1 RES1   0.0000
    17 C14      0.0304   2.4478  10.5237   C.2       1 RES1   0.0000
    18 C15      0.1622   1.7280  11.5364   C.2       1 RES1   0.0000
    19 C16      1.4757   1.3564   5.8595   C.3       1 RES1   0.0000
    20 C17      2.6513   5.8824   7.8834   C.3       1 RES1   0.0000
    21 O6       4.4858   2.0608  13.6261   O.3       1 RES1   0.0000
    22 N2       4.5628   0.7488  13.2071   N.am      1 RES1   0.0000
    23 C18      4.1635  -0.2535  13.9645   C.2       1 RES1   0.0000
    24 O7       4.8628  -3.0670  11.8238   O.3       1 RES1   0.0000
    25 C19      4.2729  -1.5267  13.5885   C.2       1 RES1   0.0000
    26 C20      4.7716  -1.7841  12.2723   C.2       1 RES1   0.0000
    27 O8       5.4871   1.6041  11.3725   O.2       1 RES1   0.0000
    28 C21      5.1628  -0.7527  11.4625   C.2       1 RES1   0.0000
    29 C22      5.0736   0.5495  11.9621   C.2       1 RES1   0.0000
    30 C23      5.6047  -0.9578  10.0550   C.3       1 RES1   0.0000
    31 C24      7.0479  -0.4605   9.8214   C.3       1 RES1   0.0000
    32 C25      7.4492  -0.5998   8.3051   C.3       1 RES1   0.0000
    33 C26      6.5168   0.1200   7.3771   C.3       1 RES1   0.0000
    34 C27      5.1121  -0.4489   7.5893   C.3       1 RES1   0.0000
    35 C28      4.6135  -0.3231   9.0505   C.3       1 RES1   0.0000
    36 C29      7.9904  -1.2094  10.7198   C.2       1 RES1   0.0000
    37 C30      8.6675  -0.6676  11.5767   C.2       1 RES1   0.0000
    38 C31      6.9607   0.0464   5.9079   C.3       1 RES1   0.0000
    39 C32      3.2006  -0.9191   9.1888   C.3       1 RES1   0.0000
    40 O9       6.7459   3.8642  13.3937   O.3       1 RES1   0.0000
    41 N3       7.6925   4.5337  12.6417   N.am      1 RES1   0.0000
    42 C33      8.7749   5.0504  13.2312   C.2       1 RES1   0.0000
    43 O10     10.5668   6.2520  10.3586   O.3       1 RES1   0.0000
    44 C34      9.7580   5.6212  12.4335   C.2       1 RES1   0.0000
    45 O11      6.3546   4.1428  10.8676   O.2       1 RES1   0.0000
    46 C35      9.6141   5.6831  11.0972   C.2       1 RES1   0.0000
    47 C36      8.4749   5.1742  10.4888   C.2       1 RES1   0.0000
    48 C37      7.4837   4.5937  11.2597   C.2       1 RES1   0.0000
    49 C38      8.3046   5.1587   8.9632   C.3       1 RES1   0.0000
    50 C39      7.0600   5.9134   8.4891   C.3       1 RES1   0.0000
    51 C40      6.9627   5.8553   6.9514   C.3       1 RES1   0.0000
    52 C41      6.9668   4.4486   6.4249   C.3       1 RES1   0.0000
    53 C42      8.1992   3.7055   6.9057   C.3       1 RES1   0.0000
    54 C43      8.3229   3.7171   8.4367   C.3       1 RES1   0.0000
    55 C44      7.0925   7.3337   8.9283   C.2       1 RES1   0.0000
    56 C45      6.1925   7.9741   9.5353   C.2       1 RES1   0.0000
    57 C46      6.8979   4.4312   4.8724   C.3       1 RES1   0.0000
    58 C47      9.5796   2.9470   8.8813   C.3       1 RES1   0.0000
    59 H1       2.6959   6.8499  13.6717   H         1 RES1   0.0000
    60 H2       0.6486   7.3724  12.5705   H         1 RES1   0.0000
    61 H3       0.5270   4.5860   8.9175   H         1 RES1   0.0000
    62 H4       1.8446   2.1866   9.9516   H         1 RES1   0.0000
    63 H5       0.6081   1.0062   8.3535   H         1 RES1   0.0000
    64 H6      -0.0811   2.3994   7.8565   H         1 RES1   0.0000
    65 H7       2.6554   1.7028   7.4671   H         1 RES1   0.0000
    66 H8       1.2770   4.1022   6.5673   H         1 RES1   0.0000
    67 H9       2.8581   3.7539   6.2718   H         1 RES1   0.0000
    68 H10      3.3243   4.0248   8.5012   H         1 RES1   0.0000
    69 H11     -0.8513   2.9219  10.4351   H         1 RES1   0.0000
    70 H12     -0.5473   1.6061  12.2347   H         1 RES1   0.0000
    71 H13      1.0338   1.2578  11.6438   H         1 RES1   0.0000
    72 H14      2.2094   1.4900   5.2108   H         1 RES1   0.0000
    73 H15      1.3581   0.3870   6.0435   H         1 RES1   0.0000
    74 H16      0.6284   1.7222   5.4794   H         1 RES1   0.0000
    75 H17      3.3851   6.0179   7.2119   H         1 RES1   0.0000
    76 H18      2.8783   6.3662   8.7295   H         1 RES1   0.0000
    77 H19      1.7838   6.2307   7.5208   H         1 RES1   0.0000
    78 H20      3.7500  -0.0580  14.8536   H         1 RES1   0.0000
    79 H21      4.0337  -2.2833  14.1821   H         1 RES1   0.0000
    80 H22      5.6959  -1.9350   9.9113   H         1 RES1   0.0000
    81 H23      7.0945   0.5031  10.1128   H         1 RES1   0.0000
    82 H24      8.3918  -0.2709   8.3266   H         1 RES1   0.0000
    83 H25      7.4188  -1.5673   8.0849   H         1 RES1   0.0000
    84 H26      6.6283   1.1030   7.5342   H         1 RES1   0.0000
    85 H27      5.1283  -1.4319   7.3731   H         1 RES1   0.0000
    86 H28      4.4797   0.0194   6.9836   H         1 RES1   0.0000
    87 H29      4.4797   0.6386   9.2667   H         1 RES1   0.0000
    88 H30      8.0675  -2.2059  10.5963   H         1 RES1   0.0000
    89 H31      9.2837  -1.1997  12.1541   H         1 RES1   0.0000
    90 H32      8.5945   0.3290  11.6975   H         1 RES1   0.0000
    91 H33      6.3242   0.5612   5.3451   H         1 RES1   0.0000
    92 H34      7.8850   0.4257   5.8018   H         1 RES1   0.0000
    93 H35      6.9526  -0.9094   5.6272   H         1 RES1   0.0000
    94 H36      2.5743  -0.4837   8.5549   H         1 RES1   0.0000
    95 H37      2.8783  -0.7933  10.1262   H         1 RES1   0.0000
    96 H38      3.2635  -1.8963   8.9847   H         1 RES1   0.0000
    97 H39      8.8377   5.0117  14.2224   H         1 RES1   0.0000
    98 H40     10.6012   5.9792  12.8525   H         1 RES1   0.0000
    99 H41      9.0607   5.6309   8.5281   H         1 RES1   0.0000
   100 H42      6.3040   5.4954   9.0115   H         1 RES1   0.0000
   101 H43      7.7229   6.3662   6.5673   H         1 RES1   0.0000
   102 H44      6.1013   6.2694   6.6613   H         1 RES1   0.0000
   103 H45      6.2432   3.9087   6.8493   H         1 RES1   0.0000
   104 H46      8.9999   4.1796   6.5538   H         1 RES1   0.0000
   105 H47      8.1891   2.7671   6.5538   H         1 RES1   0.0000
   106 H48      7.5607   3.2508   8.8638   H         1 RES1   0.0000
   107 H49      7.9053   7.8755   8.7026   H         1 RES1   0.0000
   108 H50      6.2229   8.9397   9.7905   H         1 RES1   0.0000
   109 H51      5.3918   7.4304   9.7636   H         1 RES1   0.0000
   110 H52      6.9323   3.5024   4.5259   H         1 RES1   0.0000
   111 H53      7.6621   4.9536   4.4856   H         1 RES1   0.0000
   112 H54      6.0405   4.8569   4.6199   H         1 RES1   0.0000
   113 H55      9.5269   2.0124   8.5415   H         1 RES1   0.0000
   114 H56      9.6688   2.9412   9.8711   H         1 RES1   0.0000
   115 H57     10.3580   3.4056   8.4743   H         1 RES1   0.0000
   116 O1       2.0209  11.7164  11.8882   O.3       2 RES2   0.0000
   117 C1       2.6189  10.5303  11.5364   C.2       2 RES2   0.0000
   118 O2       2.8114   3.0109   2.1340   O.3       3 RES3   0.0000
   119 C2       3.7033   3.6765   2.9815   C.2       3 RES3   0.0000
@<TRIPOS>BOND
     1     1     2    1
     2     2     3    1
     3     3     4    1
     4     4     6    2
     5     5     8    1
     6     6     8    1
     7     7     1    1
     8     8     9    2
     9     9    10    1
    10    10     3   am
    11    11     9    1
    12    12    11    1
    13    13    12    1
    14    14    13    1
    15    15    14    1
    16    16    11    1
    17    17    12    1
    18    18    17    2
    19    19    14    1
    20    20    16    1
    21    21     1    1
    22    22    21    1
    23    23    22    1
    24    24    26    1
    25    25    23    2
    26    26    25    1
    27    27     1    1
    28    28    26    2
    29    29    22   am
    30    30    28    1
    31    31    30    1
    32    32    31    1
    33    33    32    1
    34    34    33    1
    35    35    30    1
    36    36    31    1
    37    37    36    2
    38    38    33    1
    39    39    35    1
    40    40     1    1
    41    41    40    1
    42    42    41    1
    43    43    46    1
    44    44    42    2
    45    45     1    1
    46    46    44    1
    47    47    46    2
    48    48    41   am
    49    49    47    1
    50    50    49    1
    51    51    50    1
    52    52    51    1
    53    53    52    1
    54    54    49    1
    55    55    50    1
    56    56    55    2
    57    57    52    1
    58    58    54    1
    59    59     4    1
    60    60     6    1
    61    61    11    1
    62    62    12    1
    63    63    13    1
    64    64    13    1
    65    65    14    1
    66    66    15    1
    67    67    15    1
    68    68    16    1
    69    69    17    1
    70    70    18    1
    71    71    18    1
    72    72    19    1
    73    73    19    1
    74    74    19    1
    75    75    20    1
    76    76    20    1
    77    77    20    1
    78    78    23    1
    79    79    25    1
    80    80    30    1
    81    81    31    1
    82    82    32    1
    83    83    32    1
    84    84    33    1
    85    85    34    1
    86    86    34    1
    87    87    35    1
    88    88    36    1
    89    89    37    1
    90    90    37    1
    91    91    38    1
    92    92    38    1
    93    93    38    1
    94    94    39    1
    95    95    39    1
    96    96    39    1
    97    97    42    1
    98    98    44    1
    99    99    49    1
   100   100    50    1
   101   101    51    1
   102   102    51    1
   103   103    52    1
   104   104    53    1
   105   105    53    1
   106   106    54    1
   107   107    55    1
   108   108    56    1
   109   109    56    1
   110   110    57    1
   111   111    57    1
   112   112    57    1
   113   113    58    1
   114   114    58    1
   115   115    58    1
   116     7    10    2
   117    15    16    1
   118    27    29    2
   119    28    29    1
   120    34    35    1
   121    45    48    2
   122    47    48    1
   123    53    54    1
   124   116   117    1
   125   118   119    1
@<TRIPOS>SUBSTRUCTURE
     1 RES1        1 GROUP             0 ****  ****    0  
     2 RES2      116 GROUP             0 ****  ****    0  
     3 RES3      118 GROUP             0 ****  ****    0  
@<TRIPOS>CRYSIN
   20.2700   19.3500   13.4300   90.0000   90.0000   90.0000    18     1
