@<TRIPOS>MOLECULE
WAMREK
    80    85     1     0     0
SMALL
NO_CHARGES
****
Generated from the CSD

@<TRIPOS>ATOM
     1 Fe1      2.6128  28.3265   7.5043   Fe        1 RES1   0.0000
     2 N1       0.5057  27.7721   5.3820   N.pl3     1 RES1   0.0000
     3 N2       0.7971  29.8678   5.6260   N.pl3     1 RES1   0.0000
     4 C1       4.4959  28.8923   8.5063   C.ar      1 RES1   0.0000
     5 C2       4.2901  27.4517   8.5134   C.ar      1 RES1   0.0000
     6 C3       3.1183  27.2203   9.3132   C.ar      1 RES1   0.0000
     7 H1       2.7518  26.3636   9.5002   H         1 RES1   0.0000
     8 C4       2.5856  28.4462   9.7835   C.ar      1 RES1   0.0000
     9 C5       3.4371  29.4538   9.2972   C.ar      1 RES1   0.0000
    10 H2       3.3262  30.3823   9.4682   H         1 RES1   0.0000
    11 C6       5.6143  29.7876   7.9426   C.3       1 RES1   0.0000
    12 C7       5.4268  31.2223   8.4030   C.3       1 RES1   0.0000
    13 H3       5.4010  31.2495   9.3827   H         1 RES1   0.0000
    14 H4       4.5848  31.5735   8.0441   H         1 RES1   0.0000
    15 H5       6.1725  31.7698   8.0797   H         1 RES1   0.0000
    16 C8       5.6229  29.8302   6.3982   C.3       1 RES1   0.0000
    17 H6       4.7905  30.2350   6.0776   H         1 RES1   0.0000
    18 H7       5.6983  28.9194   6.0473   H         1 RES1   0.0000
    19 H8       6.3857  30.3626   6.0910   H         1 RES1   0.0000
    20 C9       6.9867  29.3282   8.4502   C.3       1 RES1   0.0000
    21 H9       7.6764  29.9470   8.1314   H         1 RES1   0.0000
    22 H10      7.1752  28.4286   8.1127   H         1 RES1   0.0000
    23 H11      6.9863  29.3154   9.4299   H         1 RES1   0.0000
    24 C10      5.1283  26.2517   8.0307   C.3       1 RES1   0.0000
    25 C11      5.7864  26.4549   6.6636   C.3       1 RES1   0.0000
    26 H12      6.4612  27.1621   6.7277   H         1 RES1   0.0000
    27 H13      5.1050  26.7105   6.0081   H         1 RES1   0.0000
    28 H14      6.2158  25.6207   6.3804   H         1 RES1   0.0000
    29 C12      6.2154  25.9152   9.0825   C.3       1 RES1   0.0000
    30 H15      6.7404  25.1462   8.7753   H         1 RES1   0.0000
    31 H16      5.7864  25.6960   9.9367   H         1 RES1   0.0000
    32 H17      6.8056  26.6876   9.2010   H         1 RES1   0.0000
    33 C13      4.2547  24.9822   7.9203   C.3       1 RES1   0.0000
    34 H18      3.5200  25.1462   7.2924   H         1 RES1   0.0000
    35 H19      3.8875  24.7600   8.8020   H         1 RES1   0.0000
    36 H20      4.8014  24.2364   7.5970   H         1 RES1   0.0000
    37 C14      1.3904  28.6246  10.6999   C.3       1 RES1   0.0000
    38 C15      0.7747  30.0223  10.5396   C.3       1 RES1   0.0000
    39 H21      1.4309  30.6997  10.8041   H         1 RES1   0.0000
    40 H22     -0.0195  30.0976  11.1078   H         1 RES1   0.0000
    41 H23      0.5199  30.1630   9.6036   H         1 RES1   0.0000
    42 C16      0.3064  27.5996  10.3846   C.3       1 RES1   0.0000
    43 H24      0.0288  27.6955   9.4495   H         1 RES1   0.0000
    44 H25     -0.4653  27.7479  10.9698   H         1 RES1   0.0000
    45 H26      0.6572  26.6974  10.5316   H         1 RES1   0.0000
    46 C17      1.8443  28.4449  12.1490   C.3       1 RES1   0.0000
    47 H27      2.2569  27.5613  12.2549   H         1 RES1   0.0000
    48 H28      1.0701  28.5169  12.7457   H         1 RES1   0.0000
    49 H29      2.4975  29.1387  12.3752   H         1 RES1   0.0000
    50 C18      1.2054  28.6760   6.1141   C.3       1 RES1   0.0000
    51 C19     -0.3231  28.3962   4.4576   C.2       1 RES1   0.0000
    52 C20     -0.1350  29.7170   4.6090   C.2       1 RES1   0.0000
    53 C21      0.6296  26.3063   5.4622   C.3       1 RES1   0.0000
    54 H30     -0.0640  25.9741   4.8227   H         1 RES1   0.0000
    55 C22      0.2007  25.7605   6.7545   C.3       1 RES1   0.0000
    56 H31      0.8356  26.0331   7.4500   H         1 RES1   0.0000
    57 H32      0.1714  24.7829   6.7028   H         1 RES1   0.0000
    58 H33     -0.6905  26.1018   6.9744   H         1 RES1   0.0000
    59 C23      1.8876  25.8154   4.8984   C.3       1 RES1   0.0000
    60 H34      2.6380  26.1443   5.4363   H         1 RES1   0.0000
    61 H35      1.9813  26.1378   3.9775   H         1 RES1   0.0000
    62 H36      1.8875  24.8353   4.9020   H         1 RES1   0.0000
    63 C24     -1.2172  27.6759   3.4948   C.3       1 RES1   0.0000
    64 H37     -1.6754  28.3271   2.9248   H         1 RES1   0.0000
    65 H38     -1.8806  27.1555   3.9927   H         1 RES1   0.0000
    66 H39     -0.6799  27.0737   2.9373   H         1 RES1   0.0000
    67 C25     -0.7771  30.8463   3.8635   C.3       1 RES1   0.0000
    68 H40     -1.4259  30.4870   3.2223   H         1 RES1   0.0000
    69 H41     -0.0897  31.3542   3.3835   H         1 RES1   0.0000
    70 H42     -1.2364  31.4360   4.4967   H         1 RES1   0.0000
    71 C26      1.3955  31.1029   6.2067   C.3       1 RES1   0.0000
    72 H43      2.0276  30.7979   6.9183   H         1 RES1   0.0000
    73 C27      0.3696  31.9636   6.8943   C.3       1 RES1   0.0000
    74 H44     -0.2707  32.3000   6.2335   H         1 RES1   0.0000
    75 H45      0.8165  32.7189   7.3307   H         1 RES1   0.0000
    76 H46     -0.1051  31.4327   7.5676   H         1 RES1   0.0000
    77 C28      2.2241  31.8349   5.1950   C.3       1 RES1   0.0000
    78 H47      2.8608  31.2135   4.7826   H         1 RES1   0.0000
    79 H48      2.7138  32.5585   5.6367   H         1 RES1   0.0000
    80 H49      1.6401  32.2116   4.5030   H         1 RES1   0.0000
@<TRIPOS>BOND
     1     1     4   un
     2     2    50    1
     3     3    50    1
     4     4     5   ar
     5     5     1   un
     6     6     1   un
     7     7     6    1
     8     8     1   un
     9     9     1   un
    10    10     9    1
    11    11     4    1
    12    12    11    1
    13    13    12    1
    14    14    12    1
    15    15    12    1
    16    16    11    1
    17    17    16    1
    18    18    16    1
    19    19    16    1
    20    20    11    1
    21    21    20    1
    22    22    20    1
    23    23    20    1
    24    24     5    1
    25    25    24    1
    26    26    25    1
    27    27    25    1
    28    28    25    1
    29    29    24    1
    30    30    29    1
    31    31    29    1
    32    32    29    1
    33    33    24    1
    34    34    33    1
    35    35    33    1
    36    36    33    1
    37    37     8    1
    38    38    37    1
    39    39    38    1
    40    40    38    1
    41    41    38    1
    42    42    37    1
    43    43    42    1
    44    44    42    1
    45    45    42    1
    46    46    37    1
    47    47    46    1
    48    48    46    1
    49    49    46    1
    50    50     1    1
    51    51     2    1
    52    52     3    1
    53    53     2    1
    54    54    53    1
    55    55    53    1
    56    56    55    1
    57    57    55    1
    58    58    55    1
    59    59    53    1
    60    60    59    1
    61    61    59    1
    62    62    59    1
    63    63    51    1
    64    64    63    1
    65    65    63    1
    66    66    63    1
    67    67    52    1
    68    68    67    1
    69    69    67    1
    70    70    67    1
    71    71     3    1
    72    72    71    1
    73    73    71    1
    74    74    73    1
    75    75    73    1
    76    76    73    1
    77    77    71    1
    78    78    77    1
    79    79    77    1
    80    80    77    1
    81     4     9   ar
    82     5     6   ar
    83     6     8   ar
    84     8     9   ar
    85    51    52    2
@<TRIPOS>SUBSTRUCTURE
     1 RES1        1 GROUP             0 ****  ****    0  
@<TRIPOS>CRYSIN
    9.4338   32.7254    9.2738   90.0000  106.1860   90.0000    14     1
