@<TRIPOS>MOLECULE
WATJEJ02
    79    86     1     0     0
SMALL
NO_CHARGES
****
Generated from the CSD

@<TRIPOS>ATOM
     1 Se1      7.3844   5.3560   1.0009   Se        1 RES1   0.0000
     2 Se2      0.9974   3.1233  -2.1006   Se        1 RES1   0.0000
     3 Fe1      2.8304   4.0822   2.3734   Fe        1 RES1   0.0000
     4 N1       4.6079   4.8700   1.7352   N.2       1 RES1   0.0000
     5 N2       3.5404   2.1603   2.7993   N.ar      1 RES1   0.0000
     6 N3       3.3471   4.2116   4.4397   N.2       1 RES1   0.0000
     7 N4       2.2241   3.5577   0.4999   N.2       1 RES1   0.0000
     8 N5       1.8043   5.8838   2.2397   N.ar      1 RES1   0.0000
     9 N6       0.9139   3.6100   3.2014   N.2       1 RES1   0.0000
    10 C1       5.6739   5.0686   1.4585   C.1       1 RES1   0.0000
    11 C2       3.6777   1.1451   1.9431   C.ar      1 RES1   0.0000
    12 H1       3.5729   1.3111   1.0346   H         1 RES1   0.0000
    13 C3       3.9633  -0.1314   2.3468   C.ar      1 RES1   0.0000
    14 H2       4.0545  -0.8142   1.7211   H         1 RES1   0.0000
    15 C4       4.1141  -0.3897   3.6738   C.ar      1 RES1   0.0000
    16 H3       4.2916  -1.2537   3.9712   H         1 RES1   0.0000
    17 C5       3.9996   0.6494   4.5712   C.ar      1 RES1   0.0000
    18 H4       4.1002   0.4981   5.4838   H         1 RES1   0.0000
    19 C6       3.7335   1.9110   4.1003   C.ar      1 RES1   0.0000
    20 C7       3.6457   3.0859   4.9626   C.2       1 RES1   0.0000
    21 H5       3.8060   3.0166   5.8763   H         1 RES1   0.0000
    22 C8       3.6293   6.5675   4.7975   C.ar      1 RES1   0.0000
    23 H6       3.9987   6.6269   3.9465   H         1 RES1   0.0000
    24 C9       3.4947   7.7067   5.5695   C.ar      1 RES1   0.0000
    25 H7       3.7730   8.5275   5.2320   H         1 RES1   0.0000
    26 C10      2.9524   7.6380   6.8369   C.ar      1 RES1   0.0000
    27 C11      2.5699   6.4093   7.3231   C.ar      1 RES1   0.0000
    28 H8       2.2340   6.3484   8.1882   H         1 RES1   0.0000
    29 C12      2.6707   5.2672   6.5572   C.ar      1 RES1   0.0000
    30 H9       2.3764   4.4504   6.8892   H         1 RES1   0.0000
    31 C13      3.2218   5.3552   5.2760   C.ar      1 RES1   0.0000
    32 C14      2.7633   8.8204   7.6258   C.1       1 RES1   0.0000
    33 C15      2.5760   9.8207   8.2404   C.1       1 RES1   0.0000
    34 C16      2.1796  12.2139   8.2740   C.ar      1 RES1   0.0000
    35 H10      2.2745  12.2336   7.3497   H         1 RES1   0.0000
    36 C17      1.9153  13.3814   8.9880   C.ar      1 RES1   0.0000
    37 H11      1.8054  14.1853   8.5332   H         1 RES1   0.0000
    38 C18      1.8150  13.3560  10.3471   C.ar      1 RES1   0.0000
    39 H12      1.6643  14.1505  10.8074   H         1 RES1   0.0000
    40 C19      1.9287  12.2094  11.0336   C.ar      1 RES1   0.0000
    41 H13      1.8457  12.2154  11.9591   H         1 RES1   0.0000
    42 C20      2.1709  11.0091  10.3655   C.ar      1 RES1   0.0000
    43 H14      2.2471  10.2142  10.8414   H         1 RES1   0.0000
    44 C21      2.2989  11.0121   8.9758   C.ar      1 RES1   0.0000
    45 C22      1.7409   3.3860  -0.5167   C.1       1 RES1   0.0000
    46 C23      2.2449   7.0124   1.6710   C.ar      1 RES1   0.0000
    47 H15      3.1137   7.0372   1.3395   H         1 RES1   0.0000
    48 C24      1.4588   8.1426   1.5579   C.ar      1 RES1   0.0000
    49 H16      1.7939   8.9076   1.1484   H         1 RES1   0.0000
    50 C25      0.1936   8.1247   2.0486   C.ar      1 RES1   0.0000
    51 H17     -0.3366   8.8888   2.0085   H         1 RES1   0.0000
    52 C26     -0.3041   6.9572   2.6128   C.ar      1 RES1   0.0000
    53 H18     -1.1775   6.9119   2.9285   H         1 RES1   0.0000
    54 C27      0.5402   5.8643   2.6923   C.ar      1 RES1   0.0000
    55 C28      0.1138   4.6028   3.2763   C.2       1 RES1   0.0000
    56 H19     -0.7144   4.5206   3.6903   H         1 RES1   0.0000
    57 C29      0.5676   1.2272   3.0103   C.ar      1 RES1   0.0000
    58 H20      0.7455   1.2971   2.0993   H         1 RES1   0.0000
    59 C30      0.3229  -0.0015   3.5683   C.ar      1 RES1   0.0000
    60 H21      0.3439  -0.7616   3.0325   H         1 RES1   0.0000
    61 C31      0.0453  -0.1284   4.9121   C.ar      1 RES1   0.0000
    62 C32      0.0355   1.0242   5.7025   C.ar      1 RES1   0.0000
    63 H22     -0.1359   0.9592   6.6150   H         1 RES1   0.0000
    64 C33      0.2757   2.2484   5.1399   C.ar      1 RES1   0.0000
    65 H23      0.2505   3.0111   5.6710   H         1 RES1   0.0000
    66 C34      0.5519   2.3634   3.8022   C.ar      1 RES1   0.0000
    67 C35     -0.2351  -1.4362   5.4472   C.1       1 RES1   0.0000
    68 C36     -0.4872  -2.5515   5.7897   C.1       1 RES1   0.0000
    69 C37     -0.1205  -4.9686   5.5344   C.ar      1 RES1   0.0000
    70 H24      0.5701  -4.7862   4.9384   H         1 RES1   0.0000
    71 C38     -0.4480  -6.2615   5.8157   C.ar      1 RES1   0.0000
    72 H25      0.0287  -6.9575   5.4249   H         1 RES1   0.0000
    73 C39     -1.5062  -6.5407   6.6978   C.ar      1 RES1   0.0000
    74 H26     -1.7426  -7.4212   6.8779   H         1 RES1   0.0000
    75 C40     -2.1717  -5.5374   7.2742   C.ar      1 RES1   0.0000
    76 H27     -2.8688  -5.7220   7.8629   H         1 RES1   0.0000
    77 C41     -1.8328  -4.2385   7.0036   C.ar      1 RES1   0.0000
    78 H28     -2.3043  -3.5541   7.4192   H         1 RES1   0.0000
    79 C42     -0.8164  -3.9130   6.1367   C.ar      1 RES1   0.0000
@<TRIPOS>BOND
     1     1    10    2
     2     2    45    2
     3     3     4    1
     4     4    10    2
     5     5     3    1
     6     6     3    1
     7     7     3    1
     8     8     3    1
     9     9     3    1
    10    11     5   ar
    11    12    11    1
    12    13    11   ar
    13    14    13    1
    14    15    13   ar
    15    16    15    1
    16    17    15   ar
    17    18    17    1
    18    19     5   ar
    19    20     6    2
    20    21    20    1
    21    22    23    1
    22    24    22   ar
    23    25    24    1
    24    26    24   ar
    25    27    26   ar
    26    28    27    1
    27    29    27   ar
    28    30    29    1
    29    31     6    1
    30    32    26    1
    31    33    32    3
    32    34    35    1
    33    36    34   ar
    34    37    36    1
    35    38    36   ar
    36    39    38    1
    37    40    38   ar
    38    41    40    1
    39    42    40   ar
    40    43    42    1
    41    44    33    1
    42    45     7    2
    43    46     8   ar
    44    47    46    1
    45    48    46   ar
    46    49    48    1
    47    50    48   ar
    48    51    50    1
    49    52    50   ar
    50    53    52    1
    51    54     8   ar
    52    55     9    2
    53    56    55    1
    54    57    58    1
    55    59    57   ar
    56    60    59    1
    57    61    59   ar
    58    62    61   ar
    59    63    62    1
    60    64    62   ar
    61    65    64    1
    62    66     9    1
    63    67    61    1
    64    68    67    3
    65    69    70    1
    66    71    69   ar
    67    72    71    1
    68    73    71   ar
    69    74    73    1
    70    75    73   ar
    71    76    75    1
    72    77    75   ar
    73    78    77    1
    74    79    68    1
    75    17    19   ar
    76    19    20    1
    77    22    31   ar
    78    29    31   ar
    79    34    44   ar
    80    42    44   ar
    81    52    54   ar
    82    54    55    1
    83    57    66   ar
    84    64    66   ar
    85    69    79   ar
    86    77    79   ar
@<TRIPOS>SUBSTRUCTURE
     1 RES1        1 GROUP             0 ****  ****    0  
@<TRIPOS>CRYSIN
   16.9943   14.9296   17.2155   90.0000  117.3700   90.0000    14     1
