@<TRIPOS>MOLECULE
WATJEJ03
    79    86     1     0     0
SMALL
NO_CHARGES
****
Generated from the CSD

@<TRIPOS>ATOM
     1 Se1      7.3360   4.9475   1.1482   Se        1 RES1   0.0000
     2 Se2      1.1244   3.1585  -2.0701   Se        1 RES1   0.0000
     3 Fe1      2.7466   3.8807   2.4740   Fe        1 RES1   0.0000
     4 N1       4.5193   4.4430   1.8976   N.2       1 RES1   0.0000
     5 N2       3.3951   2.0564   2.8009   N.ar      1 RES1   0.0000
     6 N3       3.2235   4.0482   4.3925   N.2       1 RES1   0.0000
     7 N4       2.2144   3.4945   0.6516   N.2       1 RES1   0.0000
     8 N5       1.9387   5.6658   2.2382   N.ar      1 RES1   0.0000
     9 N6       0.9249   3.5051   3.1412   N.2       1 RES1   0.0000
    10 C1       5.6104   4.6544   1.5932   C.1       1 RES1   0.0000
    11 C2       3.5563   1.0686   1.9061   C.ar      1 RES1   0.0000
    12 H1       3.4564   1.2641   0.9816   H         1 RES1   0.0000
    13 C3       3.8590  -0.2187   2.2840   C.ar      1 RES1   0.0000
    14 H2       3.9873  -0.8892   1.6234   H         1 RES1   0.0000
    15 C4       3.9787  -0.5357   3.6142   C.ar      1 RES1   0.0000
    16 H3       4.1324  -1.4327   3.8883   H         1 RES1   0.0000
    17 C5       3.8690   0.4756   4.5423   C.ar      1 RES1   0.0000
    18 H4       3.9856   0.2947   5.4672   H         1 RES1   0.0000
    19 C6       3.5883   1.7599   4.1069   C.ar      1 RES1   0.0000
    20 C7       3.4969   2.9282   4.9655   C.2       1 RES1   0.0000
    21 H5       3.6341   2.8691   5.9033   H         1 RES1   0.0000
    22 C8       3.6310   6.4084   4.7282   C.ar      1 RES1   0.0000
    23 H6       4.0830   6.4280   3.8922   H         1 RES1   0.0000
    24 C9       3.5112   7.5635   5.4689   C.ar      1 RES1   0.0000
    25 H7       3.8823   8.3749   5.1423   H         1 RES1   0.0000
    26 C10      2.8406   7.5532   6.7068   C.ar      1 RES1   0.0000
    27 C11      2.3434   6.3453   7.1694   C.ar      1 RES1   0.0000
    28 H8       1.9184   6.3144   8.0187   H         1 RES1   0.0000
    29 C12      2.4488   5.1857   6.4242   C.ar      1 RES1   0.0000
    30 H9       2.0807   4.3721   6.7487   H         1 RES1   0.0000
    31 C13      3.0987   5.2195   5.1968   C.ar      1 RES1   0.0000
    32 C14      2.6593   8.7583   7.4430   C.1       1 RES1   0.0000
    33 C15      2.4568   9.7769   8.0446   C.1       1 RES1   0.0000
    34 C16      2.1343  12.2003   7.9962   C.ar      1 RES1   0.0000
    35 H10      2.2326  12.1860   7.0513   H         1 RES1   0.0000
    36 C17      1.9230  13.3906   8.6462   C.ar      1 RES1   0.0000
    37 H11      1.8728  14.2019   8.1534   H         1 RES1   0.0000
    38 C18      1.7811  13.4053  10.0353   C.ar      1 RES1   0.0000
    39 H12      1.6348  14.2309  10.4812   H         1 RES1   0.0000
    40 C19      1.8494  12.2502  10.7669   C.ar      1 RES1   0.0000
    41 H13      1.7575  12.2751  11.7125   H         1 RES1   0.0000
    42 C20      2.0579  11.0319  10.1064   C.ar      1 RES1   0.0000
    43 H14      2.0969  10.2221  10.6023   H         1 RES1   0.0000
    44 C21      2.2058  11.0114   8.7218   C.ar      1 RES1   0.0000
    45 C22      1.7888   3.3598  -0.4248   C.1       1 RES1   0.0000
    46 C23      2.5117   6.7460   1.6748   C.ar      1 RES1   0.0000
    47 H15      3.4180   6.6894   1.3941   H         1 RES1   0.0000
    48 C24      1.8341   7.9261   1.4904   C.ar      1 RES1   0.0000
    49 H16      2.2674   8.6720   1.0924   H         1 RES1   0.0000
    50 C25      0.5039   8.0185   1.8940   C.ar      1 RES1   0.0000
    51 H17      0.0181   8.8263   1.7756   H         1 RES1   0.0000
    52 C26     -0.0913   6.9177   2.4654   C.ar      1 RES1   0.0000
    53 H18     -0.9969   6.9523   2.7527   H         1 RES1   0.0000
    54 C27      0.6536   5.7523   2.6180   C.ar      1 RES1   0.0000
    55 C28      0.1251   4.5120   3.1683   C.2       1 RES1   0.0000
    56 H19     -0.7538   4.4505   3.5247   H         1 RES1   0.0000
    57 C29      0.5511   1.1155   2.9355   C.ar      1 RES1   0.0000
    58 H20      0.7853   1.1791   2.0162   H         1 RES1   0.0000
    59 C30      0.2546  -0.1130   3.4827   C.ar      1 RES1   0.0000
    60 H21      0.2891  -0.8939   2.9422   H         1 RES1   0.0000
    61 C31     -0.1000  -0.2158   4.8416   C.ar      1 RES1   0.0000
    62 C32     -0.1400   0.9335   5.6094   C.ar      1 RES1   0.0000
    63 H22     -0.3759   0.8747   6.5275   H         1 RES1   0.0000
    64 C33      0.1614   2.1782   5.0592   C.ar      1 RES1   0.0000
    65 H23      0.1263   2.9611   5.5958   H         1 RES1   0.0000
    66 C34      0.5131   2.2619   3.7185   C.ar      1 RES1   0.0000
    67 C35     -0.4257  -1.5265   5.3646   C.1       1 RES1   0.0000
    68 C36     -0.7036  -2.6303   5.7273   C.1       1 RES1   0.0000
    69 C37     -0.3419  -5.0389   5.4794   C.ar      1 RES1   0.0000
    70 H24      0.3716  -4.8615   4.8783   H         1 RES1   0.0000
    71 C38     -0.7032  -6.3541   5.7742   C.ar      1 RES1   0.0000
    72 H25     -0.2379  -7.0744   5.3665   H         1 RES1   0.0000
    73 C39     -1.7381  -6.6124   6.6585   C.ar      1 RES1   0.0000
    74 H26     -1.9935  -7.5102   6.8395   H         1 RES1   0.0000
    75 C40     -2.3976  -5.5776   7.2752   C.ar      1 RES1   0.0000
    76 H27     -3.0888  -5.7621   7.8985   H         1 RES1   0.0000
    77 C41     -2.0546  -4.2610   6.9895   C.ar      1 RES1   0.0000
    78 H28     -2.5139  -3.5485   7.4170   H         1 RES1   0.0000
    79 C42     -1.0381  -3.9836   6.0765   C.ar      1 RES1   0.0000
@<TRIPOS>BOND
     1     1    10    2
     2     2    45    2
     3     3     4    1
     4     4    10    2
     5     5     3    1
     6     6     3    1
     7     7     3    1
     8     8     3    1
     9     9     3    1
    10    11     5   ar
    11    12    11    1
    12    13    11   ar
    13    14    13    1
    14    15    13   ar
    15    16    15    1
    16    17    15   ar
    17    18    17    1
    18    19     5   ar
    19    20     6    2
    20    21    20    1
    21    22    23    1
    22    24    22   ar
    23    25    24    1
    24    26    24   ar
    25    27    26   ar
    26    28    27    1
    27    29    27   ar
    28    30    29    1
    29    31     6    1
    30    32    26    1
    31    33    32    3
    32    34    35    1
    33    36    34   ar
    34    37    36    1
    35    38    36   ar
    36    39    38    1
    37    40    38   ar
    38    41    40    1
    39    42    40   ar
    40    43    42    1
    41    44    33    1
    42    45     7    2
    43    46     8   ar
    44    47    46    1
    45    48    46   ar
    46    49    48    1
    47    50    48   ar
    48    51    50    1
    49    52    50   ar
    50    53    52    1
    51    54     8   ar
    52    55     9    2
    53    56    55    1
    54    57    58    1
    55    59    57   ar
    56    60    59    1
    57    61    59   ar
    58    62    61   ar
    59    63    62    1
    60    64    62   ar
    61    65    64    1
    62    66     9    1
    63    67    61    1
    64    68    67    3
    65    69    70    1
    66    71    69   ar
    67    72    71    1
    68    73    71   ar
    69    74    73    1
    70    75    73   ar
    71    76    75    1
    72    77    75   ar
    73    78    77    1
    74    79    68    1
    75    17    19   ar
    76    19    20    1
    77    22    31   ar
    78    29    31   ar
    79    34    44   ar
    80    42    44   ar
    81    52    54   ar
    82    54    55    1
    83    57    66   ar
    84    64    66   ar
    85    69    79   ar
    86    77    79   ar
@<TRIPOS>SUBSTRUCTURE
     1 RES1        1 GROUP             0 ****  ****    0  
@<TRIPOS>CRYSIN
   16.8161   14.6779   17.1039   90.0000  117.9010   90.0000    14     1
