@<TRIPOS>MOLECULE
WATJEJ
    79    86     1     0     0
SMALL
NO_CHARGES
****
Generated from the CSD

@<TRIPOS>ATOM
     1 Se1      8.1248   8.4116  10.3775   Se        1 RES1   0.0000
     2 Se2     12.0368  14.8655  11.1594   Se        1 RES1   0.0000
     3 Fe1     10.6681  11.6127   7.6775   Fe        1 RES1   0.0000
     4 N1       9.8356  10.3933   9.1106   N.2       1 RES1   0.0000
     5 N2      12.5251  10.5666   7.3598   N.ar      1 RES1   0.0000
     6 N3      10.2532  10.1524   6.0483   N.2       1 RES1   0.0000
     7 N4      11.4783  12.9516   9.0275   N.2       1 RES1   0.0000
     8 N5       8.7866  12.6402   7.3224   N.ar      1 RES1   0.0000
     9 N6      11.0245  12.9163   5.8970   N.2       1 RES1   0.0000
    10 C1       9.1688   9.6355   9.6196   C.1       1 RES1   0.0000
    11 C2      13.6491  10.7178   8.0452   C.ar      1 RES1   0.0000
    12 H1      13.6250  11.2221   8.8266   H         1 RES1   0.0000
    13 C3      14.8571  10.1627   7.6584   C.ar      1 RES1   0.0000
    14 H2      15.6267  10.3073   8.1600   H         1 RES1   0.0000
    15 C4      14.8969   9.4049   6.5386   C.ar      1 RES1   0.0000
    16 H3      15.6966   9.0250   6.2540   H         1 RES1   0.0000
    17 C5      13.7308   9.2037   5.8227   C.ar      1 RES1   0.0000
    18 H4      13.7375   8.6844   5.0516   H         1 RES1   0.0000
    19 C6      12.5652   9.7794   6.2604   C.ar      1 RES1   0.0000
    20 C7      11.2796   9.5944   5.5987   C.2       1 RES1   0.0000
    21 H5      11.2224   9.0611   4.8398   H         1 RES1   0.0000
    22 C8       7.8894   9.6854   6.1264   C.ar      1 RES1   0.0000
    23 H6       7.9733   9.5289   7.0388   H         1 RES1   0.0000
    24 C9       6.6579   9.5958   5.5309   C.ar      1 RES1   0.0000
    25 H7       5.9197   9.3546   6.0421   H         1 RES1   0.0000
    26 C10      6.4939   9.8587   4.1906   C.ar      1 RES1   0.0000
    27 C11      7.6076  10.2068   3.4610   C.ar      1 RES1   0.0000
    28 H8       7.5181  10.4111   2.5590   H         1 RES1   0.0000
    29 C12      8.8570  10.2596   4.0463   C.ar      1 RES1   0.0000
    30 H9       9.6031  10.4679   3.5314   H         1 RES1   0.0000
    31 C13      8.9992  10.0041   5.3832   C.ar      1 RES1   0.0000
    32 C14      5.1798   9.7265   3.5306   C.1       1 RES1   0.0000
    33 C15      4.1618   9.5885   3.0725   C.1       1 RES1   0.0000
    34 C16      1.6923   9.5606   3.2371   C.ar      1 RES1   0.0000
    35 H10      1.7595   9.8197   4.1272   H         1 RES1   0.0000
    36 C17      0.4422   9.3300   2.6636   C.ar      1 RES1   0.0000
    37 H11     -0.3308   9.4578   3.1629   H         1 RES1   0.0000
    38 C18      0.3609   8.9203   1.3861   C.ar      1 RES1   0.0000
    39 H12     -0.4731   8.7168   1.0267   H         1 RES1   0.0000
    40 C19      1.4470   8.8013   0.6193   C.ar      1 RES1   0.0000
    41 H13      1.3607   8.5641  -0.2756   H         1 RES1   0.0000
    42 C20      2.6977   9.0290   1.1554   C.ar      1 RES1   0.0000
    43 H14      3.4542   8.9321   0.6224   H         1 RES1   0.0000
    44 C21      2.8319   9.3990   2.4685   C.ar      1 RES1   0.0000
    45 C22     11.6945  13.6874   9.8588   C.1       1 RES1   0.0000
    46 C23      7.6748  12.5316   8.0452   C.ar      1 RES1   0.0000
    47 H15      7.6989  12.0280   8.8268   H         1 RES1   0.0000
    48 C24      6.4891  13.1352   7.6855   C.ar      1 RES1   0.0000
    49 H16      5.7338  13.0380   8.2196   H         1 RES1   0.0000
    50 C25      6.4314  13.8592   6.5658   C.ar      1 RES1   0.0000
    51 H17      5.6383  14.2684   6.3077   H         1 RES1   0.0000
    52 C26      7.5725  13.9884   5.7989   C.ar      1 RES1   0.0000
    53 H18      7.5576  14.4759   5.0070   H         1 RES1   0.0000
    54 C27      8.7244  13.3907   6.2248   C.ar      1 RES1   0.0000
    55 C28      9.9748  13.5038   5.4698   C.2       1 RES1   0.0000
    56 H19     10.0039  14.0014   4.6854   H         1 RES1   0.0000
    57 C29     13.4205  13.1777   5.7531   C.ar      1 RES1   0.0000
    58 H20     13.4469  13.2819   6.6766   H         1 RES1   0.0000
    59 C30     14.5860  13.2203   5.0253   C.ar      1 RES1   0.0000
    60 H21     15.3945  13.3643   5.4598   H         1 RES1   0.0000
    61 C31     14.5685  13.0514   3.6527   C.ar      1 RES1   0.0000
    62 C32     13.3543  12.8414   3.0318   C.ar      1 RES1   0.0000
    63 H22     13.3272  12.7272   2.1086   H         1 RES1   0.0000
    64 C33     12.1828  12.7959   3.7545   C.ar      1 RES1   0.0000
    65 H23     11.3743  12.6411   3.3232   H         1 RES1   0.0000
    66 C34     12.2136  12.9810   5.1152   C.ar      1 RES1   0.0000
    67 C35     15.8224  13.1117   2.8910   C.1       1 RES1   0.0000
    68 C36     16.8131  13.2042   2.3532   C.1       1 RES1   0.0000
    69 C37     19.2536  13.0074   2.4142   C.ar      1 RES1   0.0000
    70 H24     19.1738  12.6188   3.2550   H         1 RES1   0.0000
    71 C38     20.4980  13.2042   1.8645   C.ar      1 RES1   0.0000
    72 H25     21.2573  12.9643   2.3451   H         1 RES1   0.0000
    73 C39     20.6268  13.7476   0.6226   C.ar      1 RES1   0.0000
    74 H26     21.4713  13.8611   0.2497   H         1 RES1   0.0000
    75 C40     19.5148  14.1250  -0.0780   C.ar      1 RES1   0.0000
    76 H27     19.6084  14.5011  -0.9232   H         1 RES1   0.0000
    77 C41     18.2521  13.9517   0.4598   C.ar      1 RES1   0.0000
    78 H28     17.4990  14.2116  -0.0197   H         1 RES1   0.0000
    79 C42     18.1209  13.3863   1.7169   C.ar      1 RES1   0.0000
@<TRIPOS>BOND
     1     1    10    2
     2     2    45    2
     3     3     4    1
     4     4    10    2
     5     5     3    1
     6     6     3    1
     7     7     3    1
     8     8     3    1
     9     9     3    1
    10    11     5   ar
    11    12    11    1
    12    13    11   ar
    13    14    13    1
    14    15    13   ar
    15    16    15    1
    16    17    15   ar
    17    18    17    1
    18    19     5   ar
    19    20     6    2
    20    21    20    1
    21    22    23    1
    22    24    22   ar
    23    25    24    1
    24    26    24   ar
    25    27    26   ar
    26    28    27    1
    27    29    27   ar
    28    30    29    1
    29    31     6    1
    30    32    26    1
    31    33    32    3
    32    34    35    1
    33    36    34   ar
    34    37    36    1
    35    38    36   ar
    36    39    38    1
    37    40    38   ar
    38    41    40    1
    39    42    40   ar
    40    43    42    1
    41    44    33    1
    42    45     7    2
    43    46     8   ar
    44    47    46    1
    45    48    46   ar
    46    49    48    1
    47    50    48   ar
    48    51    50    1
    49    52    50   ar
    50    53    52    1
    51    54     8   ar
    52    55     9    2
    53    56    55    1
    54    57    58    1
    55    59    57   ar
    56    60    59    1
    57    61    59   ar
    58    62    61   ar
    59    63    62    1
    60    64    62   ar
    61    65    64    1
    62    66     9    1
    63    67    61    1
    64    68    67    3
    65    69    70    1
    66    71    69   ar
    67    72    71    1
    68    73    71   ar
    69    74    73    1
    70    75    73   ar
    71    76    75    1
    72    77    75   ar
    73    78    77    1
    74    79    68    1
    75    17    19   ar
    76    19    20    1
    77    22    31   ar
    78    29    31   ar
    79    34    44   ar
    80    42    44   ar
    81    52    54   ar
    82    54    55    1
    83    57    66   ar
    84    64    66   ar
    85    69    79   ar
    86    77    79   ar
@<TRIPOS>SUBSTRUCTURE
     1 RES1        1 GROUP             0 ****  ****    0  
@<TRIPOS>CRYSIN
   15.7175   14.6860   16.9957   90.0000   93.3990   90.0000    14     1
