@<TRIPOS>MOLECULE
WATJEJ01
    79    86     1     0     0
SMALL
NO_CHARGES
****
Generated from the CSD

@<TRIPOS>ATOM
     1 Se1      4.0310   7.5597  -2.4550   Se        1 RES1   0.0000
     2 Fe1      3.6110  11.0288   0.8907   Fe        1 RES1   0.0000
     3 N1       4.1310   9.7568  -0.4891   N.2       1 RES1   0.0000
     4 N2       1.8719  10.0935   0.9677   N.ar      1 RES1   0.0000
     5 N3       3.9909   9.7479   2.3489   N.2       1 RES1   0.0000
     6 C1       4.0905   8.8936  -1.2616   C.1       1 RES1   0.0000
     7 C2       0.8132  10.2788   0.1460   C.ar      1 RES1   0.0000
     8 H1       0.8752  10.9116  -0.5469   H         1 RES1   0.0000
     9 C3      -0.3438   9.5700   0.2974   C.ar      1 RES1   0.0000
    10 H2      -1.0616   9.7129  -0.2942   H         1 RES1   0.0000
    11 C4      -0.4637   8.6495   1.3108   C.ar      1 RES1   0.0000
    12 H3      -1.2654   8.1714   1.4263   H         1 RES1   0.0000
    13 C5       0.6081   8.4318   2.1642   C.ar      1 RES1   0.0000
    14 H4       0.5515   7.8035   2.8607   H         1 RES1   0.0000
    15 C6       1.7564   9.1627   1.9601   C.ar      1 RES1   0.0000
    16 C7       2.9957   9.0303   2.7096   C.2       1 RES1   0.0000
    17 H5       3.0621   8.4381   3.4355   H         1 RES1   0.0000
    18 C8       6.3915   9.4259   2.3419   C.ar      1 RES1   0.0000
    19 H6       6.3484   9.2902   1.4123   H         1 RES1   0.0000
    20 C9       7.5990   9.3818   2.9894   C.ar      1 RES1   0.0000
    21 H7       8.3867   9.2443   2.4958   H         1 RES1   0.0000
    22 C10      7.6727   9.5362   4.3724   C.ar      1 RES1   0.0000
    23 C11      6.5186   9.7759   5.0691   C.ar      1 RES1   0.0000
    24 H8       6.5555   9.8919   6.0018   H         1 RES1   0.0000
    25 C12      5.2923   9.8509   4.4181   C.ar      1 RES1   0.0000
    26 H9       4.5086  10.0239   4.9081   H         1 RES1   0.0000
    27 C13      5.2273   9.6744   3.0703   C.ar      1 RES1   0.0000
    28 C14      8.9842   9.4421   5.0674   C.1       1 RES1   0.0000
    29 C15      9.9967   9.3053   5.5389   C.1       1 RES1   0.0000
    30 C16     12.4580   9.1259   5.3190   C.ar      1 RES1   0.0000
    31 H10     12.3704   9.2722   4.3942   H         1 RES1   0.0000
    32 C17     13.7030   8.9289   5.8679   C.ar      1 RES1   0.0000
    33 H11     14.4632   8.9440   5.3143   H         1 RES1   0.0000
    34 C18     13.8475   8.7157   7.1964   C.ar      1 RES1   0.0000
    35 H12     14.7060   8.6021   7.5608   H         1 RES1   0.0000
    36 C19     12.7801   8.6657   7.9864   C.ar      1 RES1   0.0000
    37 H13     12.8892   8.4919   8.9038   H         1 RES1   0.0000
    38 C20     11.5148   8.8656   7.4726   C.ar      1 RES1   0.0000
    39 H14     10.7701   8.8378   8.0469   H         1 RES1   0.0000
    40 C21     11.3299   9.1068   6.1266   C.ar      1 RES1   0.0000
    41 Se1A     3.1910  14.4978  -2.4550   Se        1 RES1   0.0000
    42 N1A      3.0910  12.3007  -0.4891   N.2       1 RES1   0.0000
    43 N2A      5.3501  11.9640   0.9677   N.ar      1 RES1   0.0000
    44 N3A      3.2311  12.3096   2.3489   N.2       1 RES1   0.0000
    45 C1A      3.1315  13.1639  -1.2616   C.1       1 RES1   0.0000
    46 C2A      6.4088  11.7787   0.1460   C.ar      1 RES1   0.0000
    47 H1A      6.3468  11.1459  -0.5469   H         1 RES1   0.0000
    48 C3A      7.5658  12.4875   0.2974   C.ar      1 RES1   0.0000
    49 H2A      8.2836  12.3446  -0.2942   H         1 RES1   0.0000
    50 C4A      7.6857  13.4080   1.3108   C.ar      1 RES1   0.0000
    51 H3A      8.4874  13.8861   1.4263   H         1 RES1   0.0000
    52 C5A      6.6139  13.6257   2.1642   C.ar      1 RES1   0.0000
    53 H4A      6.6705  14.2540   2.8607   H         1 RES1   0.0000
    54 C6A      5.4656  12.8948   1.9601   C.ar      1 RES1   0.0000
    55 C7A      4.2263  13.0272   2.7096   C.2       1 RES1   0.0000
    56 H5A      4.1599  13.6194   3.4355   H         1 RES1   0.0000
    57 C8A      0.8305  12.6316   2.3419   C.ar      1 RES1   0.0000
    58 H6A      0.8736  12.7673   1.4123   H         1 RES1   0.0000
    59 C9A     -0.3770  12.6757   2.9894   C.ar      1 RES1   0.0000
    60 H7A     -1.1647  12.8132   2.4958   H         1 RES1   0.0000
    61 C10A    -0.4507  12.5213   4.3724   C.ar      1 RES1   0.0000
    62 C11A     0.7034  12.2816   5.0691   C.ar      1 RES1   0.0000
    63 H8A      0.6665  12.1656   6.0018   H         1 RES1   0.0000
    64 C12A     1.9297  12.2066   4.4181   C.ar      1 RES1   0.0000
    65 H9A      2.7134  12.0336   4.9081   H         1 RES1   0.0000
    66 C13A     1.9947  12.3831   3.0703   C.ar      1 RES1   0.0000
    67 C14A    -1.7622  12.6154   5.0674   C.1       1 RES1   0.0000
    68 C15A    -2.7747  12.7522   5.5389   C.1       1 RES1   0.0000
    69 C16A    -5.2359  12.9316   5.3190   C.ar      1 RES1   0.0000
    70 H10A    -5.1484  12.7853   4.3942   H         1 RES1   0.0000
    71 C17A    -6.4810  13.1286   5.8679   C.ar      1 RES1   0.0000
    72 H11A    -7.2412  13.1135   5.3143   H         1 RES1   0.0000
    73 C18A    -6.6255  13.3418   7.1964   C.ar      1 RES1   0.0000
    74 H12A    -7.4840  13.4554   7.5608   H         1 RES1   0.0000
    75 C19A    -5.5581  13.3918   7.9864   C.ar      1 RES1   0.0000
    76 H13A    -5.6672  13.5656   8.9038   H         1 RES1   0.0000
    77 C20A    -4.2928  13.1919   7.4726   C.ar      1 RES1   0.0000
    78 H14A    -3.5481  13.2197   8.0469   H         1 RES1   0.0000
    79 C21A    -4.1079  12.9507   6.1266   C.ar      1 RES1   0.0000
@<TRIPOS>BOND
     1     1     6    2
     2     2     3    1
     3     3     6    2
     4     4     2    1
     5     5     2    1
     6     7     4   ar
     7     8     7    1
     8     9     7   ar
     9    10     9    1
    10    11     9   ar
    11    12    11    1
    12    13    11   ar
    13    14    13    1
    14    15     4   ar
    15    16     5    2
    16    17    16    1
    17    18    19    1
    18    20    18   ar
    19    21    20    1
    20    22    20   ar
    21    23    22   ar
    22    24    23    1
    23    25    23   ar
    24    26    25    1
    25    27     5    1
    26    28    22    1
    27    29    28    3
    28    30    31    1
    29    32    30   ar
    30    33    32    1
    31    34    32   ar
    32    35    34    1
    33    36    34   ar
    34    37    36    1
    35    38    36   ar
    36    39    38    1
    37    40    29    1
    38    41    45    2
    39    42     2    1
    40    43     2    1
    41    44     2    1
    42    45    42    2
    43    46    43   ar
    44    47    46    1
    45    48    46   ar
    46    49    48    1
    47    50    48   ar
    48    51    50    1
    49    52    50   ar
    50    53    52    1
    51    54    43   ar
    52    55    44    2
    53    56    55    1
    54    57    58    1
    55    59    57   ar
    56    60    59    1
    57    61    59   ar
    58    62    61   ar
    59    63    62    1
    60    64    62   ar
    61    65    64    1
    62    66    44    1
    63    67    61    1
    64    68    67    3
    65    69    70    1
    66    71    69   ar
    67    72    71    1
    68    73    71   ar
    69    74    73    1
    70    75    73   ar
    71    76    75    1
    72    77    75   ar
    73    78    77    1
    74    79    68    1
    75    13    15   ar
    76    15    16    1
    77    18    27   ar
    78    25    27   ar
    79    30    40   ar
    80    38    40   ar
    81    52    54   ar
    82    54    55    1
    83    57    66   ar
    84    64    66   ar
    85    69    79   ar
    86    77    79   ar
@<TRIPOS>SUBSTRUCTURE
     1 RES1        1 GROUP             0 ****  ****    0  
@<TRIPOS>CRYSIN
   14.4440   14.7050   17.5950   90.0000   90.0000   90.0000    56     1
