@<TRIPOS>MOLECULE
WAWKEO
    87    92     5     0     0
SMALL
USER_CHARGES
****
Generated from the CSD

@<TRIPOS>ATOM
     1 Fe1      2.2736   3.8474  10.2079   Fe        1 RES1   2.0000
     2 N1       4.3086   3.0699   9.8178   N.ar      1 RES1   0.0000
     3 N2       1.5393   1.9438   9.3762   N.ar      1 RES1   0.0000
     4 N3       0.3812   4.8528   9.6466   N.ar      1 RES1   0.0000
     5 N4       3.1145   5.8972  10.0262   N.ar      1 RES1   0.0000
     6 N5       2.4600   4.1935   8.0470   N.3       1 RES1   0.0000
     7 O1       1.8573   4.0088  12.2019   O.3       1 RES1   0.0000
     8 H1       2.2983   4.5601  12.6474   H         1 RES1   0.0000
     9 H2       1.1515   3.8348  12.6178   H         1 RES1   0.0000
    10 C1       5.1224   2.3526  10.6800   C.ar      1 RES1   0.0000
    11 C2       4.7784   2.2326  12.0240   C.ar      1 RES1   0.0000
    12 H3       3.9679   2.6163  12.3388   H         1 RES1   0.0000
    13 C3       5.6043   1.5640  12.8988   C.ar      1 RES1   0.0000
    14 H4       5.3733   1.5112  13.8180   H         1 RES1   0.0000
    15 C4       6.7919   0.9547  12.4381   C.ar      1 RES1   0.0000
    16 H5       7.3441   0.4721  13.0425   H         1 RES1   0.0000
    17 C5       7.1461   1.0576  11.1343   C.ar      1 RES1   0.0000
    18 H6       7.9477   0.6475  10.8342   H         1 RES1   0.0000
    19 C6       6.3365   1.7697  10.2130   C.ar      1 RES1   0.0000
    20 C7       6.7034   1.9504   8.8774   C.ar      1 RES1   0.0000
    21 H7       7.5057   1.5613   8.5499   H         1 RES1   0.0000
    22 C8       5.9070   2.6849   8.0449   C.ar      1 RES1   0.0000
    23 H8       6.1552   2.8299   7.1404   H         1 RES1   0.0000
    24 C9       4.6995   3.2282   8.5647   C.ar      1 RES1   0.0000
    25 C10      3.8858   4.1143   7.6645   C.3       1 RES1   0.0000
    26 H9       4.2722   5.0256   7.6772   H         1 RES1   0.0000
    27 H10      3.9492   3.7741   6.7368   H         1 RES1   0.0000
    28 C11      1.6452   3.2084   7.2883   C.3       1 RES1   0.0000
    29 H11      2.0936   3.0066   6.4283   H         1 RES1   0.0000
    30 H12      0.7600   3.6027   7.0855   H         1 RES1   0.0000
    31 C12      1.4520   1.9227   8.0639   C.ar      1 RES1   0.0000
    32 C13      1.1228   0.7662   7.3158   C.ar      1 RES1   0.0000
    33 H13      1.0794   0.8070   6.3691   H         1 RES1   0.0000
    34 C14      0.8715  -0.3969   7.9582   C.ar      1 RES1   0.0000
    35 H14      0.6594  -1.1829   7.4658   H         1 RES1   0.0000
    36 C15      0.9265  -0.4273   9.3740   C.ar      1 RES1   0.0000
    37 C16      0.7042  -1.6009  10.1200   C.ar      1 RES1   0.0000
    38 H15      0.5062  -2.4119   9.6678   H         1 RES1   0.0000
    39 C17      0.7693  -1.5917  11.4872   C.ar      1 RES1   0.0000
    40 H16      0.5836  -2.3829  11.9796   H         1 RES1   0.0000
    41 C18      1.1066  -0.4180  12.1592   C.ar      1 RES1   0.0000
    42 H17      1.1499  -0.4180  13.1080   H         1 RES1   0.0000
    43 C19      1.3789   0.7477  11.4619   C.ar      1 RES1   0.0000
    44 H18      1.6355   1.5323  11.9331   H         1 RES1   0.0000
    45 C20      1.2776   0.7701  10.0714   C.ar      1 RES1   0.0000
    46 C21      1.9168   5.5913   7.9477   C.3       1 RES1   0.0000
    47 H19      1.9381   5.9315   7.0073   H         1 RES1   0.0000
    48 C22      2.7238   6.4735   8.8859   C.ar      1 RES1   0.0000
    49 C23      3.0140   7.7948   8.5710   C.ar      1 RES1   0.0000
    50 H20      2.7157   8.1812   7.7575   H         1 RES1   0.0000
    51 C24      3.7474   8.5280   9.4818   C.ar      1 RES1   0.0000
    52 H21      3.9655   9.4353   9.2980   H         1 RES1   0.0000
    53 C25      4.1615   7.9373  10.6589   C.ar      1 RES1   0.0000
    54 H22      4.6740   8.4291  11.2886   H         1 RES1   0.0000
    55 C26      3.8201   6.6199  10.9061   C.ar      1 RES1   0.0000
    56 H23      4.0935   6.2177  11.7218   H         1 RES1   0.0000
    57 C27      0.4972   5.5372   8.4971   C.ar      1 RES1   0.0000
    58 C28     -0.5834   6.1425   7.8610   C.ar      1 RES1   0.0000
    59 H24     -0.4711   6.6225   7.0496   H         1 RES1   0.0000
    60 C29     -1.8275   6.0185   8.4527   C.ar      1 RES1   0.0000
    61 H25     -2.5916   6.4023   8.0385   H         1 RES1   0.0000
    62 C30     -1.9594   5.3421   9.6424   C.ar      1 RES1   0.0000
    63 H26     -2.8075   5.2590  10.0608   H         1 RES1   0.0000
    64 C31     -0.8303   4.7816  10.2214   C.ar      1 RES1   0.0000
    65 H27     -0.9181   4.3319  11.0540   H         1 RES1   0.0000
    66 S1       3.6500   5.0766  15.1682   S.o2      2 RES2   0.0000
    67 F1       6.0697   5.6374  16.0115   F         2 RES2   0.0000
    68 F2       5.8296   5.7627  13.8920   F         2 RES2   0.0000
    69 F3       5.0230   7.2977  15.1409   F         2 RES2   0.0000
    70 O2       3.1232   5.4818  16.4312   O.2       2 RES2   0.0000
    71 O3       4.0278   3.6937  15.0712   O.2       2 RES2   0.0000
    72 O4       2.9417   5.5887  14.0074   O.3       2 RES2  -1.0000
    73 C32      5.2238   5.9803  15.0521   C.3       2 RES2   0.0000
    74 S2      -2.2428   2.3788   5.4793   S.o2      3 RES3   0.0000
    75 F4      -4.3549   3.5684   4.4989   F         3 RES3   0.0000
    76 F5      -4.1961   3.6317   6.6417   F         3 RES3   0.0000
    77 F6      -2.9491   4.8792   5.4520   F         3 RES3   0.0000
    78 O5      -1.4317   2.6743   6.6290   O.2       3 RES3   0.0000
    79 O6      -1.6063   2.5767   4.2010   O.3       3 RES3  -1.0000
    80 O7      -3.0174   1.1776   5.5302   O.2       3 RES3   0.0000
    81 C33     -3.5056   3.6924   5.5196   C.3       3 RES3   0.0000
    82 O8       2.6171   4.9689   4.5518   O.3       4 RES4   0.0000
    83 H28      2.7522   5.8036   4.4694   H         4 RES4   0.0000
    84 H29      3.3643   4.5614   4.5708   H         4 RES4   0.0000
    85 O9      -0.0539   3.0238  13.6659   O.3       5 RES5   0.0000
    86 H30      0.4585   2.6664  14.2428   H         5 RES5   0.0000
    87 H31     -0.6657   3.4603  14.0632   H         5 RES5   0.0000
@<TRIPOS>BOND
     1     1     2    1
     2     2    10   ar
     3     3     1    1
     4     4     1    1
     5     5     1    1
     6     6     1    1
     7     7     1    1
     8     8     7    1
     9     9     7    1
    10    10    11   ar
    11    11    12    1
    12    13    11   ar
    13    14    13    1
    14    15    13   ar
    15    16    15    1
    16    17    15   ar
    17    18    17    1
    18    19    10   ar
    19    20    19   ar
    20    21    20    1
    21    22    20   ar
    22    23    22    1
    23    24     2   ar
    24    25     6    1
    25    26    25    1
    26    27    25    1
    27    28     6    1
    28    29    28    1
    29    30    28    1
    30    31     3   ar
    31    32    31   ar
    32    33    32    1
    33    34    32   ar
    34    35    34    1
    35    36    34   ar
    36    37    36   ar
    37    38    37    1
    38    39    37   ar
    39    40    39    1
    40    41    39   ar
    41    42    41    1
    42    43    41   ar
    43    44    43    1
    44    45     3   ar
    45    46     6    1
    46    47    46    1
    47    48     5   ar
    48    49    48   ar
    49    50    49    1
    50    51    49   ar
    51    52    51    1
    52    53    51   ar
    53    54    53    1
    54    55     5   ar
    55    56    55    1
    56    57     4   ar
    57    58    57   ar
    58    59    58    1
    59    60    58   ar
    60    61    60    1
    61    62    60   ar
    62    63    62    1
    63    64     4   ar
    64    65    64    1
    65    17    19   ar
    66    22    24   ar
    67    24    25    1
    68    28    31    1
    69    36    45   ar
    70    43    45   ar
    71    46    48    1
    72    46    57    1
    73    53    55   ar
    74    62    64   ar
    75    66    70    2
    76    67    73    1
    77    68    73    1
    78    69    73    1
    79    71    66    2
    80    72    66    1
    81    73    66    1
    82    74    78    2
    83    75    81    1
    84    76    81    1
    85    77    81    1
    86    79    74    1
    87    80    74    2
    88    81    74    1
    89    82    83    1
    90    84    82    1
    91    85    86    1
    92    87    85    1
@<TRIPOS>SUBSTRUCTURE
     1 RES1        1 GROUP             0 ****  ****    0  
     2 RES2       66 GROUP             0 ****  ****    0  
     3 RES3       74 GROUP             0 ****  ****    0  
     4 RES4       82 GROUP             0 ****  ****    0  
     5 RES5       85 GROUP             0 ****  ****    0  
@<TRIPOS>CRYSIN
   13.0414   13.1870   21.1873   90.0000   94.1500   90.0000    14     1
