@<TRIPOS>MOLECULE
WAWPUJ
   116   124     6     0     0
SMALL
USER_CHARGES
****
Generated from the CSD

@<TRIPOS>ATOM
     1 Fe1      4.1973   7.1749  13.1015   Fe        1 RES1   1.0000
     2 C1       1.0400   6.3066  12.8688   C.ar      1 RES1   0.0000
     3 N1       2.1402   6.8721  12.2670   N.ar      1 RES1   0.0000
     4 Cl1      4.6852   5.5513  14.6573   Cl        1 RES1   0.0000
     5 C2       1.1517   5.7807  14.1740   C.ar      1 RES1   0.0000
     6 H1       1.9868   5.8154  14.6267   H         1 RES1   0.0000
     7 N2       5.2494   6.0716  11.4821   N.ar      1 RES1   0.0000
     8 N3       4.1484   8.5133  11.3081   N.3       1 RES1   0.0000
     9 C3       0.0686   5.2249  14.7912   C.ar      1 RES1   0.0000
    10 H2       0.1654   4.8599  15.6633   H         1 RES1   0.0000
    11 N4       6.1380   8.2398  13.1690   N.ar      1 RES1   0.0000
    12 C4      -1.2013   5.1794  14.1556   C.ar      1 RES1   0.0000
    13 H3      -1.9571   4.8194  14.6037   H         1 RES1   0.0000
    14 N5       3.2299   9.0437  13.9047   N.ar      1 RES1   0.0000
    15 C5      -1.3069   5.6645  12.8950   C.ar      1 RES1   0.0000
    16 H4      -2.1451   5.6139  12.4506   H         1 RES1   0.0000
    17 C6       1.9844   7.3596  11.0326   C.ar      1 RES1   0.0000
    18 C7       0.7749   7.3286  10.3292   C.ar      1 RES1   0.0000
    19 H5       0.7124   7.7108   9.4609   H         1 RES1   0.0000
    20 C8      -0.3004   6.7494  10.9003   C.ar      1 RES1   0.0000
    21 H6      -1.1169   6.6806  10.4205   H         1 RES1   0.0000
    22 C9      -0.2071   6.2430  12.2193   C.ar      1 RES1   0.0000
    23 C10      2.5886   9.2116  15.1314   C.ar      1 RES1   0.0000
    24 C11      8.1869   9.0565  14.0678   C.ar      1 RES1   0.0000
    25 H7       8.7646   9.1532  14.8153   H         1 RES1   0.0000
    26 C12      6.9708   8.4014  14.1956   C.ar      1 RES1   0.0000
    27 H8       6.7232   8.0579  15.0458   H         1 RES1   0.0000
    28 C13      3.8254   9.9064  11.7098   C.3       1 RES1   0.0000
    29 H9       4.6695  10.4150  11.8072   H         1 RES1   0.0000
    30 H10      3.2977  10.3333  10.9896   H         1 RES1   0.0000
    31 C14      3.0641   9.9927  12.9796   C.ar      1 RES1   0.0000
    32 C15      2.2323  11.1134  13.1659   C.ar      1 RES1   0.0000
    33 H11      2.1264  11.7507  12.4682   H         1 RES1   0.0000
    34 C16      1.5781  11.2805  14.3556   C.ar      1 RES1   0.0000
    35 H12      1.0244  12.0390  14.5002   H         1 RES1   0.0000
    36 C17      1.7409  10.3136  15.3576   C.ar      1 RES1   0.0000
    37 C18      1.1261  10.4370  16.6536   C.ar      1 RES1   0.0000
    38 H13      0.5600  11.1782  16.8394   H         1 RES1   0.0000
    39 C19      1.3494   9.5050  17.6109   C.ar      1 RES1   0.0000
    40 H14      0.9200   9.5766  18.4560   H         1 RES1   0.0000
    41 C20      2.2227   8.4243  17.3493   C.ar      1 RES1   0.0000
    42 H15      2.3952   7.7937  18.0385   H         1 RES1   0.0000
    43 C21      2.8176   8.2616  16.1488   C.ar      1 RES1   0.0000
    44 H16      3.3851   7.5157  15.9904   H         1 RES1   0.0000
    45 C22      5.4542   4.7556  11.3589   C.ar      1 RES1   0.0000
    46 H17      5.1102   4.1698  12.0228   H         1 RES1   0.0000
    47 C23      3.1833   7.9802  10.3462   C.3       1 RES1   0.0000
    48 H18      3.6263   7.2973   9.7836   H         1 RES1   0.0000
    49 H19      2.8765   8.7115   9.7533   H         1 RES1   0.0000
    50 C24      6.1569   4.2249  10.2877   C.ar      1 RES1   0.0000
    51 H20      6.2679   3.2846  10.2063   H         1 RES1   0.0000
    52 C25      6.6851   5.0605   9.3549   C.ar      1 RES1   0.0000
    53 H21      7.1796   4.7082   8.6247   H         1 RES1   0.0000
    54 C26      6.5008   6.4139   9.4719   C.ar      1 RES1   0.0000
    55 H22      6.8545   7.0137   8.8246   H         1 RES1   0.0000
    56 C27      5.5700   8.3478  10.8371   C.3       1 RES1   0.0000
    57 H23      5.7451   8.9017  10.0229   H         1 RES1   0.0000
    58 C28      5.7903   6.8775  10.5524   C.ar      1 RES1   0.0000
    59 C29      6.5006   8.7264  11.9592   C.ar      1 RES1   0.0000
    60 C30      7.6951   9.3935  11.7653   C.ar      1 RES1   0.0000
    61 H24      7.9271   9.7308  10.9078   H         1 RES1   0.0000
    62 C31      8.5434   9.5615  12.8396   C.ar      1 RES1   0.0000
    63 H25      9.3666  10.0222  12.7316   H         1 RES1   0.0000
    64 O1       4.7239   7.8866   4.9776   O.2       2 RES2   0.0000
    65 Cl2      5.0814   7.6629   6.3530   Cl        2 RES2   0.0000
    66 O2       4.0840   8.2619   7.2001   O.2       2 RES2   0.0000
    67 O3       5.1789   6.2682   6.6076   O.2       2 RES2   0.0000
    68 O4       6.3481   8.3140   6.6122   O.3       2 RES2  -1.0000
    69 C32      1.7500   3.2159  11.7191   C.ar      3 RES3   0.0000
    70 H26      2.3957   3.2129  12.4167   H         3 RES3   0.0000
    71 C33      0.5230   2.8484  11.9407   C.ar      3 RES3   0.0000
    72 H27      0.2680   2.5985  12.8213   H         3 RES3   0.0000
    73 C34     -0.3887   2.8138  10.9634   C.ar      3 RES3   0.0000
    74 H28     -1.2702   2.5195  11.1602   H         3 RES3   0.0000
    75 C35     -0.0764   3.1971   9.6782   C.ar      3 RES3   0.0000
    76 H29     -0.7364   3.1764   8.9959   H         3 RES3   0.0000
    77 C36      1.1590   3.5969   9.4073   C.ar      3 RES3   0.0000
    78 H30      1.3696   3.8583   8.5190   H         3 RES3   0.0000
    79 C37      2.1153   3.6456  10.3323   C.ar      3 RES3   0.0000
    80 H31      2.9935   3.9412  10.1213   H         3 RES3   0.0000
    81 C38      9.5629   4.6235   5.7210   C.ar      4 RES4   0.0000
    82 H32      9.0980   3.8643   5.3878   H         4 RES4   0.0000
    83 C39     10.9548   4.6348   5.7595   C.ar      4 RES4   0.0000
    84 H33     11.4447   3.8812   5.4492   H         4 RES4   0.0000
    85 C40     11.6208   5.7382   6.2459   C.ar      4 RES4   0.0000
    86 H34     12.5709   5.7536   6.2678   H         4 RES4   0.0000
    87 C41     10.9095   6.8037   6.6968   C.ar      4 RES4   0.0000
    88 H35     11.3692   7.5593   7.0420   H         4 RES4   0.0000
    89 C42      9.5262   6.8087   6.6599   C.ar      4 RES4   0.0000
    90 H36      9.0426   7.5629   6.9765   H         4 RES4   0.0000
    91 C43      8.8635   5.7276   6.1704   C.ar      4 RES4   0.0000
    92 H37      7.9142   5.7310   6.1378   H         4 RES4   0.0000
    93 C44      6.6602   4.5754   2.9890   C.ar      5 RES5   0.0000
    94 H38      7.2965   5.2585   3.1608   H         5 RES5   0.0000
    95 C45      7.0126   3.4657   2.2410   C.ar      5 RES5   0.0000
    96 H39      7.8927   3.3976   1.8894   H         5 RES5   0.0000
    97 C46      6.1024   2.4572   2.0009   C.ar      5 RES5   0.0000
    98 H40      6.3524   1.6888   1.5013   H         5 RES5   0.0000
    99 C47      4.8376   2.5862   2.4934   C.ar      5 RES5   0.0000
   100 H41      4.1981   1.9047   2.3205   H         5 RES5   0.0000
   101 C48      4.4692   3.6889   3.2368   C.ar      5 RES5   0.0000
   102 H42      3.5864   3.7621   3.5815   H         5 RES5   0.0000
   103 C49      5.3905   4.6768   3.4754   C.ar      5 RES5   0.0000
   104 H43      5.1422   5.4399   3.9840   H         5 RES5   0.0000
   105 C50      6.9809   2.0673   7.2402   C.ar      6 RES6   0.0000
   106 H44      7.8797   2.1289   6.9369   H         6 RES6   0.0000
   107 C51      6.0242   2.8916   6.7553   C.ar      6 RES6   0.0000
   108 H45      6.2493   3.5368   6.0948   H         6 RES6   0.0000
   109 C52      4.7500   2.8046   7.2017   C.ar      6 RES6   0.0000
   110 H46      4.0942   3.3979   6.8535   H         6 RES6   0.0000
   111 C50A     4.3832   1.8749   8.1513   C.ar      6 RES6   0.0000
   112 H44A     3.4844   1.8133   8.4546   H         6 RES6   0.0000
   113 C51A     5.3399   1.0507   8.6362   C.ar      6 RES6   0.0000
   114 H45A     5.1148   0.4055   9.2967   H         6 RES6   0.0000
   115 C52A     6.6141   1.1376   8.1898   C.ar      6 RES6   0.0000
   116 H46A     7.2699   0.5444   8.5380   H         6 RES6   0.0000
@<TRIPOS>BOND
     1     1     3    1
     2     2     3   ar
     3     3    17   ar
     4     4     1    1
     5     5     2   ar
     6     6     5    1
     7     7     1    1
     8     8     1    1
     9     9     5   ar
    10    10     9    1
    11    11     1    1
    12    12     9   ar
    13    13    12    1
    14    14     1    1
    15    15    12   ar
    16    16    15    1
    17    17    18   ar
    18    18    19    1
    19    20    18   ar
    20    21    20    1
    21    22     2   ar
    22    23    14   ar
    23    24    25    1
    24    26    11   ar
    25    27    26    1
    26    28     8    1
    27    29    28    1
    28    30    28    1
    29    31    14   ar
    30    32    31   ar
    31    33    32    1
    32    34    32   ar
    33    35    34    1
    34    36    23   ar
    35    37    36   ar
    36    38    37    1
    37    39    37   ar
    38    40    39    1
    39    41    39   ar
    40    42    41    1
    41    43    23   ar
    42    44    43    1
    43    45     7   ar
    44    46    45    1
    45    47     8    1
    46    48    47    1
    47    49    47    1
    48    50    45   ar
    49    51    50    1
    50    52    50   ar
    51    53    52    1
    52    54    52   ar
    53    55    54    1
    54    56     8    1
    55    57    56    1
    56    58     7   ar
    57    59    11   ar
    58    60    59   ar
    59    61    60    1
    60    62    24   ar
    61    63    62    1
    62    15    22   ar
    63    17    47    1
    64    20    22   ar
    65    24    26   ar
    66    28    31    1
    67    34    36   ar
    68    41    43   ar
    69    54    58   ar
    70    56    58    1
    71    56    59    1
    72    60    62   ar
    73    64    65    2
    74    65    66    2
    75    67    65    2
    76    68    65    1
    77    69    70    1
    78    71    69   ar
    79    72    71    1
    80    73    71   ar
    81    74    73    1
    82    75    73   ar
    83    76    75    1
    84    77    75   ar
    85    78    77    1
    86    79    69   ar
    87    80    79    1
    88    77    79   ar
    89    81    82    1
    90    83    81   ar
    91    84    83    1
    92    85    83   ar
    93    86    85    1
    94    87    85   ar
    95    88    87    1
    96    89    87   ar
    97    90    89    1
    98    91    81   ar
    99    92    91    1
   100    89    91   ar
   101    93    94    1
   102    95    93   ar
   103    96    95    1
   104    97    95   ar
   105    98    97    1
   106    99    97   ar
   107   100    99    1
   108   101    99   ar
   109   102   101    1
   110   103    93   ar
   111   104   103    1
   112   101   103   ar
   113   105   106    1
   114   107   105   ar
   115   108   107    1
   116   109   107   ar
   117   110   109    1
   118   111   109   ar
   119   112   111    1
   120   113   111   ar
   121   114   113    1
   122   115   105   ar
   123   116   115    1
   124   113   115   ar
@<TRIPOS>SUBSTRUCTURE
     1 RES1        1 GROUP             0 ****  ****    0  
     2 RES2       64 GROUP             0 ****  ****    0  
     3 RES3       69 GROUP             0 ****  ****    0  
     4 RES4       81 GROUP             0 ****  ****    0  
     5 RES5       93 GROUP             0 ****  ****    0  
     6 RES6      105 GROUP             0 ****  ****    0  
@<TRIPOS>CRYSIN
   10.0450   15.0480   15.9430   74.9030   85.2540   74.2120     2     1
