@<TRIPOS>MOLECULE
WAWPET
    78    85     3     0     0
SMALL
USER_CHARGES
****
Generated from the CSD

@<TRIPOS>ATOM
     1 Fe1      7.1615   8.5645   2.7454   Fe        1 RES1   2.0000
     2 C1       6.7255   9.2426   5.8039   C.ar      1 RES1   0.0000
     3 N1       8.6393   7.2411   3.4447   N.ar      1 RES1   0.0000
     4 N2       8.7629   9.7007   2.2842   N.3       1 RES1   0.0000
     5 C2       5.6626   8.3243   5.8700   C.ar      1 RES1   0.0000
     6 H1       5.3625   7.8959   5.0762   H         1 RES1   0.0000
     7 N3       7.3390   9.5236   4.5963   N.ar      1 RES1   0.0000
     8 C3       5.0522   8.0386   7.0636   C.ar      1 RES1   0.0000
     9 H2       4.3135   7.4424   7.0804   H         1 RES1   0.0000
    10 C4       6.5262   9.5072   8.2266   C.ar      1 RES1   0.0000
    11 H3       6.8192   9.9112   9.0343   H         1 RES1   0.0000
    12 N4       7.4331   7.9622   0.8377   N.ar      1 RES1   0.0000
    13 C5       5.5024   8.6133   8.2572   C.ar      1 RES1   0.0000
    14 H4       5.0950   8.3814   9.0833   H         1 RES1   0.0000
    15 N5       6.2247  10.1667   1.9753   N.ar      1 RES1   0.0000
    16 C6       7.1638   9.8450   7.0051   C.ar      1 RES1   0.0000
    17 N6       5.4725   7.5888   2.7850   N.1       1 RES1   0.0000
    18 C7       8.7821  11.0647   5.7416   C.ar      1 RES1   0.0000
    19 H5       9.4936  11.6923   5.6848   H         1 RES1   0.0000
    20 C8       8.2200  10.7800   6.9339   C.ar      1 RES1   0.0000
    21 H6       8.5335  11.2060   7.7236   H         1 RES1   0.0000
    22 C9       8.3072  10.4250   4.5862   C.ar      1 RES1   0.0000
    23 C10      7.1663   4.4007   5.2255   C.ar      1 RES1   0.0000
    24 H7       6.3019   4.0598   5.4249   H         1 RES1   0.0000
    25 C11      7.2678   5.5538   4.4832   C.ar      1 RES1   0.0000
    26 H8       6.4834   5.9863   4.1672   H         1 RES1   0.0000
    27 C12      9.5193   4.2380   5.4035   C.ar      1 RES1   0.0000
    28 H9      10.2904   3.7822   5.7220   H         1 RES1   0.0000
    29 C13      8.3428  10.1552   0.9305   C.3       1 RES1   0.0000
    30 H10      9.0203  10.7543   0.5035   H         1 RES1   0.0000
    31 C14      8.0907   8.9031   0.1182   C.ar      1 RES1   0.0000
    32 C15      8.4391   8.7147  -1.1974   C.ar      1 RES1   0.0000
    33 H11      8.9307   9.3725  -1.6742   H         1 RES1   0.0000
    34 C16      8.0510   7.5369  -1.8037   C.ar      1 RES1   0.0000
    35 H12      8.2554   7.3809  -2.7186   H         1 RES1   0.0000
    36 C17      7.3643   6.5880  -1.0779   C.ar      1 RES1   0.0000
    37 H13      7.0806   5.7795  -1.4895   H         1 RES1   0.0000
    38 C18      7.0930   6.8242   0.2517   C.ar      1 RES1   0.0000
    39 H14      6.6525   6.1550   0.7616   H         1 RES1   0.0000
    40 C19      7.0070  10.8367   1.1071   C.ar      1 RES1   0.0000
    41 C20      6.6063  11.9849   0.4627   C.ar      1 RES1   0.0000
    42 H15      7.1776  12.4182  -0.1613   H         1 RES1   0.0000
    43 C21      5.3457  12.4954   0.7487   C.ar      1 RES1   0.0000
    44 H16      5.0522  13.3029   0.3430   H         1 RES1   0.0000
    45 C22      4.5338  11.8277   1.6169   C.ar      1 RES1   0.0000
    46 H17      3.6629  12.1550   1.8090   H         1 RES1   0.0000
    47 C23      4.9925  10.6684   2.2168   C.ar      1 RES1   0.0000
    48 H18      4.4207  10.2075   2.8192   H         1 RES1   0.0000
    49 C24      4.4789   7.2800   2.6363   C.1       1 RES1   0.0000
    50 C25      3.0732   6.8504   2.4240   C.3       1 RES1   0.0000
    51 H19      3.0409   6.1781   1.7118   H         1 RES1   0.0000
    52 H20      2.5308   7.6252   2.1663   H         1 RES1   0.0000
    53 H21      2.7202   6.4658   3.2531   H         1 RES1   0.0000
    54 C26      8.2717   3.7200   5.6895   C.ar      1 RES1   0.0000
    55 H22      8.1768   2.9178   6.1900   H         1 RES1   0.0000
    56 C27      9.9910   8.8652   2.2435   C.3       1 RES1   0.0000
    57 H23     10.7689   9.4079   2.5269   H         1 RES1   0.0000
    58 H24     10.1514   8.5593   1.3158   H         1 RES1   0.0000
    59 C28      8.8929  10.8058   3.2591   C.3       1 RES1   0.0000
    60 H25      8.4286  11.6081   2.9125   H         1 RES1   0.0000
    61 H26      9.8501  11.0316   3.3751   H         1 RES1   0.0000
    62 C29     11.0312   7.0574   3.5858   C.ar      1 RES1   0.0000
    63 H27     11.8777   7.4223   3.3586   H         1 RES1   0.0000
    64 C30      9.8552   7.6788   3.1435   C.ar      1 RES1   0.0000
    65 C31     10.9550   5.9305   4.3421   C.ar      1 RES1   0.0000
    66 H28     11.7455   5.5017   4.6484   H         1 RES1   0.0000
    67 C32      8.5215   6.0858   4.1972   C.ar      1 RES1   0.0000
    68 C33      9.6870   5.4088   4.6650   C.ar      1 RES1   0.0000
    69 Cl1     11.3541  12.5398   8.7678   Cl        2 RES2   0.0000
    70 O1      12.6920  12.3970   8.2699   O.2       2 RES2   0.0000
    71 O2      11.4034  13.0909  10.1028   O.3       2 RES2  -1.0000
    72 O3      10.7093  11.2568   8.8152   O.2       2 RES2   0.0000
    73 O4      10.5977  13.4159   7.9279   O.2       2 RES2   0.0000
    74 Cl2      4.6960   3.6977   0.8879   Cl        3 RES3   0.0000
    75 O5       5.2080   4.3716   2.0401   O.2       3 RES3   0.0000
    76 O6       3.2852   3.9488   0.8033   O.3       3 RES3  -1.0000
    77 O7       4.9075   2.2895   0.9902   O.2       3 RES3   0.0000
    78 O8       5.3709   4.1887  -0.2606   O.2       3 RES3   0.0000
@<TRIPOS>BOND
     1     1     3    1
     2     2     5   ar
     3     3    64   ar
     4     4     1    1
     5     5     6    1
     6     7     1    1
     7     8     5   ar
     8     9     8    1
     9    10    11    1
    10    12     1    1
    11    13     8   ar
    12    14    13    1
    13    15     1    1
    14    16     2   ar
    15    17     1    1
    16    18    19    1
    17    20    16   ar
    18    21    20    1
    19    22     7   ar
    20    23    24    1
    21    25    23   ar
    22    26    25    1
    23    27    28    1
    24    29     4    1
    25    30    29    1
    26    31    12   ar
    27    32    31   ar
    28    33    32    1
    29    34    32   ar
    30    35    34    1
    31    36    34   ar
    32    37    36    1
    33    38    12   ar
    34    39    38    1
    35    40    15   ar
    36    41    40   ar
    37    42    41    1
    38    43    41   ar
    39    44    43    1
    40    45    43   ar
    41    46    45    1
    42    47    15   ar
    43    48    47    1
    44    49    17    3
    45    50    49    1
    46    51    50    1
    47    52    50    1
    48    53    50    1
    49    54    23   ar
    50    55    54    1
    51    56     4    1
    52    57    56    1
    53    58    56    1
    54    59     4    1
    55    60    59    1
    56    61    59    1
    57    62    63    1
    58    64    56    1
    59    65    62   ar
    60    66    65    1
    61    67     3   ar
    62    68    27   ar
    63     2     7   ar
    64    10    13   ar
    65    10    16   ar
    66    18    20   ar
    67    18    22   ar
    68    22    59    1
    69    25    67   ar
    70    27    54   ar
    71    29    31    1
    72    29    40    1
    73    36    38   ar
    74    45    47   ar
    75    62    64   ar
    76    65    68   ar
    77    67    68   ar
    78    69    70    2
    79    71    69    1
    80    72    69    2
    81    73    69    2
    82    74    75    2
    83    76    74    1
    84    77    74    2
    85    78    74    2
@<TRIPOS>SUBSTRUCTURE
     1 RES1        1 GROUP             0 ****  ****    0  
     2 RES2       69 GROUP             0 ****  ****    0  
     3 RES3       74 GROUP             0 ****  ****    0  
@<TRIPOS>CRYSIN
   11.7580   11.7800   13.2360   78.6860   74.9090   66.2460     2     1
