@<TRIPOS>MOLECULE
WAWSIZ
    80    87     4     0     0
SMALL
USER_CHARGES
****
Generated from the CSD

@<TRIPOS>ATOM
     1 I1      12.0615   7.0059   2.3821   I         1 RES1   0.0000
     2 I2       9.1245   1.6779   2.2177   I         1 RES1   0.0000
     3 I3       6.0769   6.8488   1.5300   I         1 RES1   0.0000
     4 F1      11.4385   3.8728   2.3767   F         1 RES1   0.0000
     5 F2       9.0853   7.8653   1.6705   F         1 RES1   0.0000
     6 F3       6.8090   3.7632   1.5484   F         1 RES1   0.0000
     7 C1       9.1273   3.7678   1.9317   C.ar      1 RES1   0.0000
     8 C2      10.2795   4.5201   2.1032   C.ar      1 RES1   0.0000
     9 C3       7.9124   5.8359   1.5979   C.ar      1 RES1   0.0000
    10 C4       9.0931   6.5173   1.7447   C.ar      1 RES1   0.0000
    11 C5       7.9646   4.4605   1.6890   C.ar      1 RES1   0.0000
    12 C6      10.2990   5.8880   2.0089   C.ar      1 RES1   0.0000
    13 I4      14.9444   8.8800   3.0036   I         2 RES2  -1.0000
    14 Fe1      4.3975   3.4346   5.5298   Fe        3 RES3   1.0000
    15 O1       5.1924   3.0222   7.2275   O.3       3 RES3   0.0000
    16 N1       5.5275   1.8361   4.7179   N.2       3 RES3   0.0000
    17 N2       3.9743   3.5528   3.4213   N.ar      3 RES3   0.0000
    18 O2       2.7412   2.5293   5.7548   O.3       3 RES3   0.0000
    19 N3       5.9030   4.9573   5.2835   N.ar      3 RES3   0.0000
    20 N4       3.3472   5.2314   5.9634   N.2       3 RES3   0.0000
    21 C7       5.1545   1.4775   3.4013   C.ar      3 RES3   0.0000
    22 C8       5.5223   6.2058   5.6682   C.ar      3 RES3   0.0000
    23 C9       4.3394   2.4218   2.7337   C.ar      3 RES3   0.0000
    24 C10      6.2487   2.3210   7.5767   C.ar      3 RES3   0.0000
    25 C11      5.5014   0.2984   2.7615   C.ar      3 RES3   0.0000
    26 H1       6.0201  -0.3383   3.1986   H         3 RES3   0.0000
    27 C12      3.9360   2.1941   1.4016   C.ar      3 RES3   0.0000
    28 C13      3.7539   7.6448   6.4502   C.ar      3 RES3   0.0000
    29 H2       2.8705   7.7819   6.7068   H         3 RES3   0.0000
    30 C14      4.3118   0.9971   0.7680   C.ar      3 RES3   0.0000
    31 H3       4.0528   0.8303  -0.1087   H         3 RES3   0.0000
    32 C15      6.4282   7.2842   5.7161   C.ar      3 RES3   0.0000
    33 C16      6.6888   2.3546   8.9119   C.ar      3 RES3   0.0000
    34 H4       6.2433   2.8887   9.5283   H         3 RES3   0.0000
    35 C17      6.9438   1.4745   6.6619   C.ar      3 RES3   0.0000
    36 C18      6.5187   1.2475   5.3082   C.2       3 RES3   0.0000
    37 H5       6.9983   0.6238   4.8126   H         3 RES3   0.0000
    38 C19      4.1543   6.3978   6.0360   C.ar      3 RES3   0.0000
    39 C20      3.2341   4.4672   2.8048   C.ar      3 RES3   0.0000
    40 H6       3.0060   5.2453   3.2599   H         3 RES3   0.0000
    41 C21      3.1336   3.1780   0.7881   C.ar      3 RES3   0.0000
    42 H7       2.8422   3.0680  -0.0885   H         3 RES3   0.0000
    43 C22     -0.2835   4.5574   6.1318   C.ar      3 RES3   0.0000
    44 H8      -0.5415   5.4352   6.3006   H         3 RES3   0.0000
    45 C23      5.0637   0.0754   1.4511   C.ar      3 RES3   0.0000
    46 H9       5.2889  -0.7224   1.0309   H         3 RES3   0.0000
    47 C24      7.7667   7.0406   5.3298   C.ar      3 RES3   0.0000
    48 H10      8.3882   7.7318   5.3289   H         3 RES3   0.0000
    49 C25      2.0498   5.3213   6.0839   C.2       3 RES3   0.0000
    50 H11      1.7030   6.1676   6.2551   H         3 RES3   0.0000
    51 C26      1.1098   4.2503   5.9804   C.ar      3 RES3   0.0000
    52 C27      5.9696   8.5590   6.1365   C.ar      3 RES3   0.0000
    53 H12      6.5576   9.2793   6.1659   H         3 RES3   0.0000
    54 C28      8.4602   0.7796   8.4189   C.ar      3 RES3   0.0000
    55 H13      9.1946   0.2857   8.7051   H         3 RES3   0.0000
    56 C29      8.0388   0.7106   7.1255   C.ar      3 RES3   0.0000
    57 H14      8.4813   0.1466   6.5338   H         3 RES3   0.0000
    58 C30      1.4928   2.9031   5.7764   C.ar      3 RES3   0.0000
    59 C31      8.1397   5.7709   4.9543   C.ar      3 RES3   0.0000
    60 H15      9.0188   5.5879   4.7143   H         3 RES3   0.0000
    61 C32      2.7892   4.2955   1.4959   C.ar      3 RES3   0.0000
    62 H16      2.2532   4.9452   1.1016   H         3 RES3   0.0000
    63 C33      7.1797   4.7646   4.9404   C.ar      3 RES3   0.0000
    64 H17      7.4413   3.9114   4.6794   H         3 RES3   0.0000
    65 C34      7.7649   1.6107   9.3136   C.ar      3 RES3   0.0000
    66 H18      8.0423   1.6557  10.2003   H         3 RES3   0.0000
    67 C35      0.4795   1.9400   5.6327   C.ar      3 RES3   0.0000
    68 H19      0.7103   1.0589   5.4427   H         3 RES3   0.0000
    69 C36     -1.2305   3.5932   6.0360   C.ar      3 RES3   0.0000
    70 H20     -2.1296   3.8040   6.1473   H         3 RES3   0.0000
    71 C37      4.6728   8.7274   6.4934   C.ar      3 RES3   0.0000
    72 H21      4.3792   9.5653   6.7703   H         3 RES3   0.0000
    73 C38     -0.8384   2.2713   5.7640   C.ar      3 RES3   0.0000
    74 H22     -1.4876   1.6115   5.6729   H         3 RES3   0.0000
    75 N5       8.0544  10.1304   3.7799   N.1       4 RES4   0.0000
    76 C39      7.4275  10.4070   2.9052   C.1       4 RES4   0.0000
    77 C40      6.6460  10.8126   1.7632   C.3       4 RES4   0.0000
    78 H23      7.2172  11.2390   1.1203   H         4 RES4   0.0000
    79 H24      5.9648  11.4282   2.0440   H         4 RES4   0.0000
    80 H25      6.2359  10.0412   1.3654   H         4 RES4   0.0000
@<TRIPOS>BOND
     1     1    12    1
     2     2     7    1
     3     3     9    1
     4     4     8    1
     5     5    10    1
     6     6    11    1
     7     7     8   ar
     8     8    12   ar
     9     9    10   ar
    10    10    12   ar
    11    11     7   ar
    12     9    11   ar
    13    14    15    1
    14    15    24    1
    15    16    14    1
    16    17    14    1
    17    18    14    1
    18    19    14    1
    19    20    14    1
    20    21    16    1
    21    22    19   ar
    22    23    17   ar
    23    24    33   ar
    24    25    21   ar
    25    26    25    1
    26    27    23   ar
    27    28    29    1
    28    30    27   ar
    29    31    30    1
    30    32    22   ar
    31    33    34    1
    32    35    24   ar
    33    36    16    2
    34    37    36    1
    35    38    20    1
    36    39    17   ar
    37    40    39    1
    38    41    27   ar
    39    42    41    1
    40    43    44    1
    41    45    25   ar
    42    46    45    1
    43    47    32   ar
    44    48    47    1
    45    49    20    2
    46    50    49    1
    47    51    43   ar
    48    52    32   ar
    49    53    52    1
    50    54    55    1
    51    56    35   ar
    52    57    56    1
    53    58    18    1
    54    59    47   ar
    55    60    59    1
    56    61    39   ar
    57    62    61    1
    58    63    19   ar
    59    64    63    1
    60    65    33   ar
    61    66    65    1
    62    67    58   ar
    63    68    67    1
    64    69    43   ar
    65    70    69    1
    66    71    28   ar
    67    72    71    1
    68    73    67   ar
    69    74    73    1
    70    21    23   ar
    71    22    38   ar
    72    28    38   ar
    73    30    45   ar
    74    35    36    1
    75    41    61   ar
    76    49    51    1
    77    51    58   ar
    78    52    71   ar
    79    54    56   ar
    80    54    65   ar
    81    59    63   ar
    82    69    73   ar
    83    75    76    3
    84    76    77    1
    85    77    78    1
    86    79    77    1
    87    80    77    1
@<TRIPOS>SUBSTRUCTURE
     1 RES1        1 GROUP             0 ****  ****    0  
     2 RES2       13 GROUP             0 ****  ****    0  
     3 RES3       14 GROUP             0 ****  ****    0  
     4 RES4       75 GROUP             0 ****  ****    0  
@<TRIPOS>CRYSIN
   12.0360   12.1360   15.4620   88.2400   88.4600   61.5250     2     1
