@<TRIPOS>MOLECULE
WAWSIZ01
    80    87     4     0     0
SMALL
USER_CHARGES
****
Generated from the CSD

@<TRIPOS>ATOM
     1 I1       6.1662   3.9122  12.9616   I         1 RES1   0.0000
     2 I2       9.0824   9.2629  13.1283   I         1 RES1   0.0000
     3 I3      12.1626   4.0831  13.7751   I         1 RES1   0.0000
     4 F1      11.4142   7.1822  13.7924   F         1 RES1   0.0000
     5 F2       6.7778   7.0552  12.9755   F         1 RES1   0.0000
     6 F3       9.1544   3.0606  13.6735   F         1 RES1   0.0000
     7 C1       7.9171   5.0323  13.3476   C.ar      1 RES1   0.0000
     8 C2      10.3274   5.0989  13.7452   C.ar      1 RES1   0.0000
     9 C3       9.0890   7.1695  13.4129   C.ar      1 RES1   0.0000
    10 C4      10.2682   6.4802  13.6674   C.ar      1 RES1   0.0000
    11 C5       9.1378   4.4045  13.6043   C.ar      1 RES1   0.0000
    12 C6       7.9359   6.4174  13.2508   C.ar      1 RES1   0.0000
    13 I4       3.2925   2.0742  12.3172   I         2 RES2  -1.0000
    14 Fe1     13.7737   7.4906   9.8404   Fe        3 RES3   1.0000
    15 O1      12.9672   7.8994   8.1431   O.3       3 RES3   0.0000
    16 O2      15.4250   8.4058   9.6176   O.3       3 RES3   0.0000
    17 N1      12.6380   9.0769  10.6455   N.2       3 RES3   0.0000
    18 N2      14.2140   7.3764  11.9456   N.ar      3 RES3   0.0000
    19 N3      14.8235   5.6952   9.3965   N.2       3 RES3   0.0000
    20 N4      12.2704   5.9644  10.0953   N.ar      3 RES3   0.0000
    21 C7      14.3054   8.7600  13.9528   C.ar      3 RES3   0.0000
    22 C8      15.4543   6.6466  13.8642   C.ar      3 RES3   0.0000
    23 H1      15.9943   5.9964  14.2524   H         3 RES3   0.0000
    24 C9      13.9284   9.9726  14.5843   C.ar      3 RES3   0.0000
    25 H2      14.2033  10.1487  15.4551   H         3 RES3   0.0000
    26 C10     13.1579  10.8864  13.9069   C.ar      3 RES3   0.0000
    27 H3      12.9334  11.6879  14.3210   H         3 RES3   0.0000
    28 C11     13.0257   9.4554  11.9608   C.ar      3 RES3   0.0000
    29 C12     14.9777   6.4772  12.5587   C.ar      3 RES3   0.0000
    30 H4      15.2052   5.7005  12.0999   H         3 RES3   0.0000
    31 C13     15.1220   7.7727  14.5664   C.ar      3 RES3   0.0000
    32 H5      15.4277   7.8908  15.4367   H         3 RES3   0.0000
    33 C14     13.8623   8.5139  12.6313   C.ar      3 RES3   0.0000
    34 C15     12.6573   4.7109   9.6923   C.ar      3 RES3   0.0000
    35 C16     11.4817   8.5977   6.4417   C.ar      3 RES3   0.0000
    36 H6      11.9243   8.0582   5.8270   H         3 RES3   0.0000
    37 C17     11.6461   9.6839  10.0549   C.2       3 RES3   0.0000
    38 H7      11.1722  10.3098  10.5535   H         3 RES3   0.0000
    39 C18     12.6993  10.6331  12.5959   C.ar      3 RES3   0.0000
    40 H8      12.1741  11.2651  12.1594   H         3 RES3   0.0000
    41 C19     11.2250   9.4668   8.7018   C.ar      3 RES3   0.0000
    42 C20     17.0637   6.6801   9.3766   C.ar      3 RES3   0.0000
    43 C21     16.1235   5.6047   9.2752   C.2       3 RES3   0.0000
    44 H9      16.4717   4.7590   9.1067   H         3 RES3   0.0000
    45 C22     14.0132   4.5279   9.3117   C.ar      3 RES3   0.0000
    46 C23     11.9191   8.6215   7.7863   C.ar      3 RES3   0.0000
    47 C24     10.0433   5.1464  10.4380   C.ar      3 RES3   0.0000
    48 H10      9.1690   5.3252  10.6986   H         3 RES3   0.0000
    49 C25     11.7362   3.6334   9.6410   C.ar      3 RES3   0.0000
    50 C26     10.3994   3.8888  10.0399   C.ar      3 RES3   0.0000
    51 H11      9.7691   3.2056  10.0294   H         3 RES3   0.0000
    52 C27     19.0189   8.6669   9.6541   C.ar      3 RES3   0.0000
    53 H12     19.6708   9.3189   9.7758   H         3 RES3   0.0000
    54 C28     16.6814   8.0276   9.6095   C.ar      3 RES3   0.0000
    55 C29     12.1789   2.3683   9.1901   C.ar      3 RES3   0.0000
    56 H13     11.5883   1.6523   9.1456   H         3 RES3   0.0000
    57 C30     17.6912   9.0026   9.7842   C.ar      3 RES3   0.0000
    58 H14     17.4556   9.8792   9.9885   H         3 RES3   0.0000
    59 C31     10.1338  10.2386   8.2316   C.ar      3 RES3   0.0000
    60 H15      9.6884  10.7993   8.8251   H         3 RES3   0.0000
    61 C32     14.4062   3.2738   8.8779   C.ar      3 RES3   0.0000
    62 H16     15.2886   3.1321   8.6210   H         3 RES3   0.0000
    63 C33     10.4075   9.3631   6.0236   C.ar      3 RES3   0.0000
    64 H17     10.1412   9.3330   5.1330   H         3 RES3   0.0000
    65 C34      9.7146  10.1826   6.9224   C.ar      3 RES3   0.0000
    66 H18      8.9831  10.6823   6.6400   H         3 RES3   0.0000
    67 C35     11.0055   6.1648  10.4504   C.ar      3 RES3   0.0000
    68 H19     10.7486   7.0174  10.7189   H         3 RES3   0.0000
    69 C36     13.4858   2.2089   8.8206   C.ar      3 RES3   0.0000
    70 H20     13.7743   1.3762   8.5239   H         3 RES3   0.0000
    71 C37     18.4478   6.3790   9.2315   C.ar      3 RES3   0.0000
    72 H21     18.7066   5.5026   9.0577   H         3 RES3   0.0000
    73 C38     19.4057   7.3517   9.3402   C.ar      3 RES3   0.0000
    74 H22     20.3025   7.1442   9.2070   H         3 RES3   0.0000
    75 N5      10.1852   0.8420  11.5650   N.1       4 RES4   0.0000
    76 C39     10.8071   0.5588  12.4791   C.1       4 RES4   0.0000
    77 C40     11.6051   0.1834  13.6474   C.3       4 RES4   0.0000
    78 H23     12.4618   0.6137  13.6024   H         4 RES4   0.0000
    79 H24     11.7248  -0.7687  13.6608   H         4 RES4   0.0000
    80 H25     11.1503   0.4597  14.4473   H         4 RES4   0.0000
@<TRIPOS>BOND
     1     1     7    1
     2     2     9    1
     3     3     8    1
     4     4    10    1
     5     5    12    1
     6     6    11    1
     7     7    11   ar
     8     8    10   ar
     9     9    10   ar
    10    11     8   ar
    11    12     7   ar
    12     9    12   ar
    13    14    15    1
    14    15    46    1
    15    16    14    1
    16    17    14    1
    17    18    14    1
    18    19    14    1
    19    20    14    1
    20    21    24   ar
    21    22    23    1
    22    24    25    1
    23    26    24   ar
    24    27    26    1
    25    28    17    1
    26    29    18   ar
    27    30    29    1
    28    31    21   ar
    29    32    31    1
    30    33    18   ar
    31    34    20   ar
    32    35    36    1
    33    37    17    2
    34    38    37    1
    35    39    26   ar
    36    40    39    1
    37    41    37    1
    38    42    43    1
    39    43    19    2
    40    44    43    1
    41    45    19    1
    42    46    35   ar
    43    47    48    1
    44    49    34   ar
    45    50    47   ar
    46    51    50    1
    47    52    53    1
    48    54    16    1
    49    55    49   ar
    50    56    55    1
    51    57    52   ar
    52    58    57    1
    53    59    41   ar
    54    60    59    1
    55    61    45   ar
    56    62    61    1
    57    63    35   ar
    58    64    63    1
    59    65    59   ar
    60    66    65    1
    61    67    20   ar
    62    68    67    1
    63    69    55   ar
    64    70    69    1
    65    71    42   ar
    66    72    71    1
    67    73    52   ar
    68    74    73    1
    69    21    33   ar
    70    22    29   ar
    71    22    31   ar
    72    28    33   ar
    73    28    39   ar
    74    34    45   ar
    75    41    46   ar
    76    42    54   ar
    77    47    67   ar
    78    49    50   ar
    79    54    57   ar
    80    61    69   ar
    81    63    65   ar
    82    71    73   ar
    83    75    76    3
    84    76    77    1
    85    77    78    1
    86    79    77    1
    87    80    77    1
@<TRIPOS>SUBSTRUCTURE
     1 RES1        1 GROUP             0 ****  ****    0  
     2 RES2       13 GROUP             0 ****  ****    0  
     3 RES3       14 GROUP             0 ****  ****    0  
     4 RES4       75 GROUP             0 ****  ****    0  
@<TRIPOS>CRYSIN
   11.9300   12.0430   15.3250   87.9700   87.9400   61.7170     2     1
