@<TRIPOS>MOLECULE
WAZVUR
    79    85     1     0     0
SMALL
NO_CHARGES
****
Generated from the CSD

@<TRIPOS>ATOM
     1 Fe1     -0.4034   8.0998   4.2021   Fe        1 RES1   0.0000
     2 P1       0.2709   7.4771   6.3079   P.3       1 RES1   0.0000
     3 P2      -0.0949   5.9297   3.6940   P.3       1 RES1   0.0000
     4 S1      -0.7425  10.2802   5.0187   S.3       1 RES1   0.0000
     5 S2      -2.6146   7.4716   4.8104   S.3       1 RES1   0.0000
     6 F1      -3.8503   7.2110   2.0427   F         1 RES1   0.0000
     7 F2      -3.8022  10.1166   5.8481   F         1 RES1   0.0000
     8 F3      -5.6662   8.8143   0.8751   F         1 RES1   0.0000
     9 F4      -2.0643  11.2321   2.4664   F         1 RES1   0.0000
    10 F5       1.8799  11.8126   5.0462   F         1 RES1   0.0000
    11 F6      -6.5380  11.0634   2.1486   F         1 RES1   0.0000
    12 F7      -5.5788  11.6835   4.6351   F         1 RES1   0.0000
    13 F8       1.3371  14.1302   0.9961   F         1 RES1   0.0000
    14 O1      -1.2485   8.6456   1.4198   O.2       1 RES1   0.0000
    15 F9      -1.1172  12.9539   0.6355   F         1 RES1   0.0000
    16 O2       2.2905   9.0194   3.5381   O.2       1 RES1   0.0000
    17 F10      2.7961  13.5770   3.2481   F         1 RES1   0.0000
    18 C1      -0.9723   8.4450   2.5067   C.1       1 RES1   0.0000
    19 C2      -1.1882   5.1016   1.2584   C.ar      1 RES1   0.0000
    20 H1      -0.4934   5.6031   0.8473   H         1 RES1   0.0000
    21 C3       1.2694   8.6197   3.7979   C.1       1 RES1   0.0000
    22 C4      -5.1607   9.1243   2.0931   C.ar      1 RES1   0.0000
    23 C5      -0.0630   4.9816   5.2353   C.2       1 RES1   0.0000
    24 H2      -0.1703   4.0363   5.2328   H         1 RES1   0.0000
    25 C6      -4.2161   9.7641   4.5973   C.ar      1 RES1   0.0000
    26 C7       1.9290   6.3113   1.8258   C.ar      1 RES1   0.0000
    27 H3       1.3367   6.9648   1.4728   H         1 RES1   0.0000
    28 C8      -0.4968   8.0529   7.8807   C.ar      1 RES1   0.0000
    29 C9      -0.3508  12.6561   1.7249   C.ar      1 RES1   0.0000
    30 C10      1.5962  12.9919   3.0312   C.ar      1 RES1   0.0000
    31 C11     -2.3401   4.2962   3.2280   C.ar      1 RES1   0.0000
    32 H4      -2.4385   4.2749   4.1711   H         1 RES1   0.0000
    33 C12     -3.1385   3.6610   1.0390   C.ar      1 RES1   0.0000
    34 H5      -3.7654   3.1868   0.5044   H         1 RES1   0.0000
    35 C13     -1.5306   8.7975  10.3723   C.ar      1 RES1   0.0000
    36 H6      -1.8721   9.0863  11.2096   H         1 RES1   0.0000
    37 C14     -1.2790   5.0424   2.6353   C.ar      1 RES1   0.0000
    38 C15      0.8580  13.2579   1.9065   C.ar      1 RES1   0.0000
    39 C16     -0.8558  11.7610   2.6631   C.ar      1 RES1   0.0000
    40 C17      1.5377   5.5651   2.9379   C.ar      1 RES1   0.0000
    41 C18     -3.7156   8.5954   4.0097   C.ar      1 RES1   0.0000
    42 C19     -2.2678   9.0620   9.1820   C.ar      1 RES1   0.0000
    43 H7      -3.1201   9.4814   9.2224   H         1 RES1   0.0000
    44 C20     -0.0966  11.4205   3.8029   C.ar      1 RES1   0.0000
    45 C21     -0.3600   8.1456  10.3219   C.ar      1 RES1   0.0000
    46 H8       0.0865   7.9328  11.1339   H         1 RES1   0.0000
    47 C22      0.1207   5.6654   6.3929   C.2       1 RES1   0.0000
    48 H9       0.1693   5.2111   7.2251   H         1 RES1   0.0000
    49 C23     -4.2622   8.3082   2.7160   C.ar      1 RES1   0.0000
    50 C24      2.9366   6.7019   6.4761   C.ar      1 RES1   0.0000
    51 H10      2.6357   5.8402   6.2138   H         1 RES1   0.0000
    52 C25      2.5147   9.0285   6.9149   C.ar      1 RES1   0.0000
    53 H11      1.8999   9.7504   6.9704   H         1 RES1   0.0000
    54 C26     -2.1404   4.4071   0.4539   C.ar      1 RES1   0.0000
    55 H12     -2.0853   4.4603  -0.4918   H         1 RES1   0.0000
    56 C27      4.8000   8.1897   7.0082   C.ar      1 RES1   0.0000
    57 H13      5.7292   8.3447   7.1318   H         1 RES1   0.0000
    58 C28      1.1251  12.0740   3.9643   C.ar      1 RES1   0.0000
    59 C29      0.2168   7.7763   9.1114   C.ar      1 RES1   0.0000
    60 H14      1.0647   7.3477   9.0912   H         1 RES1   0.0000
    61 C30     -5.6208  10.2701   2.7740   C.ar      1 RES1   0.0000
    62 C31      2.0555   7.7216   6.6223   C.ar      1 RES1   0.0000
    63 C32      4.0477   5.2186   1.7955   C.ar      1 RES1   0.0000
    64 H15      4.9157   5.1016   1.4274   H         1 RES1   0.0000
    65 C33      4.3424   6.9405   6.7257   C.ar      1 RES1   0.0000
    66 H16      4.9534   6.2141   6.6930   H         1 RES1   0.0000
    67 C34      3.8840   9.2504   7.1191   C.ar      1 RES1   0.0000
    68 H17      4.1953  10.1227   7.3310   H         1 RES1   0.0000
    69 C35     -5.1534  10.5726   3.9971   C.ar      1 RES1   0.0000
    70 C36     -3.2125   3.6138   2.4311   C.ar      1 RES1   0.0000
    71 H18     -3.8930   3.0911   2.8396   H         1 RES1   0.0000
    72 C37     -1.6973   8.6805   7.9312   C.ar      1 RES1   0.0000
    73 H19     -2.1643   8.8674   7.1267   H         1 RES1   0.0000
    74 C38      2.4010   4.6518   3.4751   C.ar      1 RES1   0.0000
    75 H20      2.1423   4.1351   4.2291   H         1 RES1   0.0000
    76 C39      3.6581   4.4831   2.9102   C.ar      1 RES1   0.0000
    77 H21      4.2609   3.8570   3.2910   H         1 RES1   0.0000
    78 C40      3.1678   6.1183   1.2231   C.ar      1 RES1   0.0000
    79 H22      3.4040   6.5955   0.4363   H         1 RES1   0.0000
@<TRIPOS>BOND
     1     1     2    1
     2     2    28    1
     3     3     1    1
     4     4     1    1
     5     5     1    1
     6     6    49    1
     7     7    25    1
     8     8    22    1
     9     9    39    1
    10    10    58    1
    11    11    61    1
    12    12    69    1
    13    13    38    1
    14    14    18    3
    15    15    29    1
    16    16    21    3
    17    17    30    1
    18    18     1    1
    19    19    20    1
    20    21     1    1
    21    22    49   ar
    22    23     3    1
    23    24    23    1
    24    25    41   ar
    25    26    27    1
    26    28    59   ar
    27    29    38   ar
    28    30    38   ar
    29    31    32    1
    30    33    34    1
    31    35    36    1
    32    37     3    1
    33    39    29   ar
    34    40     3    1
    35    41     5    1
    36    42    35   ar
    37    43    42    1
    38    44     4    1
    39    45    35   ar
    40    46    45    1
    41    47     2    1
    42    48    47    1
    43    49    41   ar
    44    50    51    1
    45    52    53    1
    46    54    19   ar
    47    55    54    1
    48    56    57    1
    49    58    30   ar
    50    59    45   ar
    51    60    59    1
    52    61    22   ar
    53    62     2    1
    54    63    64    1
    55    65    50   ar
    56    66    65    1
    57    67    52   ar
    58    68    67    1
    59    69    25   ar
    60    70    31   ar
    61    71    70    1
    62    72    28   ar
    63    73    72    1
    64    74    40   ar
    65    75    74    1
    66    76    63   ar
    67    77    76    1
    68    78    26   ar
    69    79    78    1
    70    19    37   ar
    71    23    47    2
    72    26    40   ar
    73    31    37   ar
    74    33    54   ar
    75    33    70   ar
    76    39    44   ar
    77    42    72   ar
    78    44    58   ar
    79    50    62   ar
    80    52    62   ar
    81    56    65   ar
    82    56    67   ar
    83    61    69   ar
    84    63    78   ar
    85    74    76   ar
@<TRIPOS>SUBSTRUCTURE
     1 RES1        1 GROUP             0 ****  ****    0  
@<TRIPOS>CRYSIN
   10.6650   15.1970   25.5470   90.0000   99.2000   90.0000    14     1
