@<TRIPOS>MOLECULE
WAZWEC
    85    91     1     0     0
SMALL
NO_CHARGES
****
Generated from the CSD

@<TRIPOS>ATOM
     1 Fe1      3.0290   1.8579  13.7919   Fe        1 RES1   0.0000
     2 O1       0.7396   1.3067  15.5145   O.2       1 RES1   0.0000
     3 C1       1.6055   1.5442  14.8071   C.1       1 RES1   0.0000
     4 O2       4.9201   1.2560  15.9500   O.2       1 RES1   0.0000
     5 C2       4.1924   1.4895  15.1118   C.1       1 RES1   0.0000
     6 S1       5.0463   2.2541  12.6085   S.3       1 RES1   0.0000
     7 C3       5.9713   0.7592  12.4355   C.ar      1 RES1   0.0000
     8 C4       6.9054   0.3841  13.4048   C.ar      1 RES1   0.0000
     9 H1       7.0118   0.9160  14.1844   H         1 RES1   0.0000
    10 C5       7.6819  -0.7621  13.2392   C.ar      1 RES1   0.0000
    11 H2       8.2967  -1.0114  13.9182   H         1 RES1   0.0000
    12 C6       7.5721  -1.5397  12.1063   C.ar      1 RES1   0.0000
    13 C7       6.6667  -1.1556  11.1396   C.ar      1 RES1   0.0000
    14 H3       6.5908  -1.6707  10.3441   H         1 RES1   0.0000
    15 C8       5.8616  -0.0321  11.3011   C.ar      1 RES1   0.0000
    16 H4       5.2312   0.1960  10.6281   H         1 RES1   0.0000
    17 C9       8.4329  -2.7718  11.9201   C.3       1 RES1   0.0000
    18 H5       7.9711  -3.4072  11.3342   H         1 RES1   0.0000
    19 H6       8.5984  -3.1904  12.7901   H         1 RES1   0.0000
    20 H7       9.2871  -2.5155  11.5143   H         1 RES1   0.0000
    21 S2       2.8734  -0.3895  13.1066   S.3       1 RES1   0.0000
    22 P1       1.8045   2.3561  11.9396   P.3       1 RES1   0.0000
    23 P2       3.0397   4.0616  14.2014   P.3       1 RES1   0.0000
    24 C10      3.1462  -1.3750  14.5653   C.ar      1 RES1   0.0000
    25 C11      4.4309  -1.8061  14.8901   C.ar      1 RES1   0.0000
    26 H8       5.1535  -1.6013  14.3077   H         1 RES1   0.0000
    27 C12      4.6717  -2.5264  16.0461   C.ar      1 RES1   0.0000
    28 H9       5.5558  -2.8174  16.2376   H         1 RES1   0.0000
    29 C13      3.6470  -2.8326  16.9328   C.ar      1 RES1   0.0000
    30 C14      2.3613  -2.4413  16.5857   C.ar      1 RES1   0.0000
    31 H10      1.6388  -2.6612  17.1628   H         1 RES1   0.0000
    32 C15      2.1025  -1.7355  15.4181   C.ar      1 RES1   0.0000
    33 H11      1.2097  -1.4972  15.1988   H         1 RES1   0.0000
    34 C16      3.9327  -3.5595  18.2227   C.3       1 RES1   0.0000
    35 H12      3.2920  -3.2736  18.9076   H         1 RES1   0.0000
    36 H13      4.8427  -3.3517  18.5197   H         1 RES1   0.0000
    37 H14      3.8472  -4.5245  18.0798   H         1 RES1   0.0000
    38 C17      1.6836   4.1664  11.8555   C.2       1 RES1   0.0000
    39 H15      1.2856   4.5852  11.1021   H         1 RES1   0.0000
    40 C18      2.1532   4.8950  12.8505   C.2       1 RES1   0.0000
    41 H16      2.0299   5.8377  12.8599   H         1 RES1   0.0000
    42 C19      2.4606   1.8750  10.3085   C.ar      1 RES1   0.0000
    43 C20      3.3105   2.7270   9.5992   C.ar      1 RES1   0.0000
    44 H17      3.5302   3.5824   9.9480   H         1 RES1   0.0000
    45 C21      3.8304   2.3164   8.3863   C.ar      1 RES1   0.0000
    46 H18      4.4043   2.8954   7.8981   H         1 RES1   0.0000
    47 C22      3.5219   1.0699   7.8779   C.ar      1 RES1   0.0000
    48 H19      3.8911   0.7928   7.0475   H         1 RES1   0.0000
    49 C23      2.6734   0.2175   8.5749   C.ar      1 RES1   0.0000
    50 H20      2.4562  -0.6350   8.2178   H         1 RES1   0.0000
    51 C24      2.1455   0.6185   9.7937   C.ar      1 RES1   0.0000
    52 H21      1.5691   0.0382  10.2759   H         1 RES1   0.0000
    53 C25      0.0402   1.8741  11.7950   C.ar      1 RES1   0.0000
    54 C26     -0.5181   0.8664  12.5788   C.ar      1 RES1   0.0000
    55 H22      0.0238   0.3938  13.1991   H         1 RES1   0.0000
    56 C27     -1.8717   0.5486  12.4548   C.ar      1 RES1   0.0000
    57 H23     -2.2474  -0.1336  12.9995   H         1 RES1   0.0000
    58 C28     -2.6683   1.2173  11.5489   C.ar      1 RES1   0.0000
    59 H24     -3.5915   1.0027  11.4754   H         1 RES1   0.0000
    60 C29     -2.1187   2.1980  10.7512   C.ar      1 RES1   0.0000
    61 H25     -2.6578   2.6491  10.1120   H         1 RES1   0.0000
    62 C30     -0.7770   2.5270  10.8818   C.ar      1 RES1   0.0000
    63 H26     -0.4098   3.2129  10.3360   H         1 RES1   0.0000
    64 C31      2.2181   4.6305  15.7331   C.ar      1 RES1   0.0000
    65 C32      1.6924   5.9240  15.8024   C.ar      1 RES1   0.0000
    66 H27      1.7987   6.5178  15.0689   H         1 RES1   0.0000
    67 C33      1.0136   6.3424  16.9436   C.ar      1 RES1   0.0000
    68 H28      0.6433   7.2169  16.9793   H         1 RES1   0.0000
    69 C34      0.8750   5.4965  18.0181   C.ar      1 RES1   0.0000
    70 H29      0.3858   5.7770  18.7826   H         1 RES1   0.0000
    71 C35      1.4441   4.2476  17.9881   C.ar      1 RES1   0.0000
    72 H30      1.3760   3.6779  18.7453   H         1 RES1   0.0000
    73 C36      2.1257   3.8078  16.8437   C.ar      1 RES1   0.0000
    74 H31      2.5236   2.9458  16.8300   H         1 RES1   0.0000
    75 C37      4.5878   5.0338  14.2081   C.ar      1 RES1   0.0000
    76 C38      5.2646   5.3072  15.3842   C.ar      1 RES1   0.0000
    77 H32      4.9457   4.9512  16.2051   H         1 RES1   0.0000
    78 C39      6.4082   6.0997  15.3741   C.ar      1 RES1   0.0000
    79 H33      6.8653   6.2871  16.1856   H         1 RES1   0.0000
    80 C40      6.8802   6.6165  14.1766   C.ar      1 RES1   0.0000
    81 H34      7.6530   7.1684  14.1681   H         1 RES1   0.0000
    82 C41      6.2296   6.3299  13.0047   C.ar      1 RES1   0.0000
    83 H35      6.5636   6.6739  12.1847   H         1 RES1   0.0000
    84 C42      5.0855   5.5414  13.0052   C.ar      1 RES1   0.0000
    85 H36      4.6415   5.3468  12.1879   H         1 RES1   0.0000
@<TRIPOS>BOND
     1     1     3    1
     2     2     3    3
     3     4     5    3
     4     5     1    1
     5     6     1    1
     6     7     6    1
     7     8     7   ar
     8     9     8    1
     9    10     8   ar
    10    11    10    1
    11    12    10   ar
    12    13    12   ar
    13    14    13    1
    14    15     7   ar
    15    16    15    1
    16    17    12    1
    17    18    17    1
    18    19    17    1
    19    20    17    1
    20    21     1    1
    21    22     1    1
    22    23     1    1
    23    24    21    1
    24    25    24   ar
    25    26    25    1
    26    27    25   ar
    27    28    27    1
    28    29    27   ar
    29    30    29   ar
    30    31    30    1
    31    32    24   ar
    32    33    32    1
    33    34    29    1
    34    35    34    1
    35    36    34    1
    36    37    34    1
    37    38    22    1
    38    39    38    1
    39    40    23    1
    40    41    40    1
    41    42    22    1
    42    43    42   ar
    43    44    43    1
    44    45    43   ar
    45    46    45    1
    46    47    45   ar
    47    48    47    1
    48    49    47   ar
    49    50    49    1
    50    51    42   ar
    51    52    51    1
    52    53    22    1
    53    54    53   ar
    54    55    54    1
    55    56    54   ar
    56    57    56    1
    57    58    56   ar
    58    59    58    1
    59    60    58   ar
    60    61    60    1
    61    62    53   ar
    62    63    62    1
    63    64    23    1
    64    65    64   ar
    65    66    65    1
    66    67    65   ar
    67    68    67    1
    68    69    67   ar
    69    70    69    1
    70    71    69   ar
    71    72    71    1
    72    73    64   ar
    73    74    73    1
    74    75    23    1
    75    76    75   ar
    76    77    76    1
    77    78    76   ar
    78    79    78    1
    79    80    78   ar
    80    81    80    1
    81    82    80   ar
    82    83    82    1
    83    84    75   ar
    84    85    84    1
    85    13    15   ar
    86    30    32   ar
    87    38    40    2
    88    49    51   ar
    89    60    62   ar
    90    71    73   ar
    91    82    84   ar
@<TRIPOS>SUBSTRUCTURE
     1 RES1        1 GROUP             0 ****  ****    0  
@<TRIPOS>CRYSIN
   12.8737   17.3484   16.2313   90.0000   90.2880   90.0000   231     1
