@<TRIPOS>MOLECULE
WEHWIT
    78    82     3     0     0
SMALL
NO_CHARGES
****
Generated from the CSD

@<TRIPOS>ATOM
     1 Fe1      6.4520  10.8456   1.8286   Fe        1 RES1   0.0000
     2 Cl1      7.2327  11.0494   4.0557   Cl        1 RES1   0.0000
     3 Cl2      5.5216  11.0162  -0.3720   Cl        1 RES1   0.0000
     4 O1       8.1199  10.4447   1.1523   O.3       1 RES1   0.0000
     5 N1       5.8728  12.9099   2.0695   N.ar      1 RES1   0.0000
     6 N2       4.4911  10.7597   2.5453   N.ar      1 RES1   0.0000
     7 N3       6.0674   8.7535   2.0221   N.ar      1 RES1   0.0000
     8 C1       6.6484  13.9620   1.7939   C.ar      1 RES1   0.0000
     9 H1       7.5152  13.8061   1.4377   H         1 RES1   0.0000
    10 C2       6.2442  15.2631   2.0035   C.ar      1 RES1   0.0000
    11 H2       6.8175  15.9916   1.7982   H         1 RES1   0.0000
    12 C3       4.9793  15.4778   2.5244   C.ar      1 RES1   0.0000
    13 H3       4.6751  16.3628   2.6851   H         1 RES1   0.0000
    14 C4       4.1592  14.4015   2.8092   C.ar      1 RES1   0.0000
    15 H4       3.2873  14.5383   3.1598   H         1 RES1   0.0000
    16 C5       4.6319  13.1237   2.5749   C.ar      1 RES1   0.0000
    17 C6       3.8468  11.8995   2.8266   C.ar      1 RES1   0.0000
    18 C7       2.5276  11.8632   3.2955   C.ar      1 RES1   0.0000
    19 H5       2.0572  12.6647   3.4915   H         1 RES1   0.0000
    20 C8       1.9280  10.6289   3.4653   C.ar      1 RES1   0.0000
    21 H6       1.0392  10.5816   3.7972   H         1 RES1   0.0000
    22 C9       2.6017   9.4656   3.1614   C.ar      1 RES1   0.0000
    23 H7       2.1871   8.6188   3.2780   H         1 RES1   0.0000
    24 C10      3.9079   9.5628   2.6770   C.ar      1 RES1   0.0000
    25 C11      4.7677   8.4170   2.2995   C.ar      1 RES1   0.0000
    26 C12      4.3134   7.1246   2.2351   C.ar      1 RES1   0.0000
    27 H8       3.4099   6.9182   2.4419   H         1 RES1   0.0000
    28 C13      5.1999   6.1282   1.8626   C.ar      1 RES1   0.0000
    29 H9       4.9050   5.2289   1.7803   H         1 RES1   0.0000
    30 C14      6.5177   6.4589   1.6123   C.ar      1 RES1   0.0000
    31 H10      7.1318   5.7800   1.3560   H         1 RES1   0.0000
    32 C15      6.9594   7.7817   1.7323   C.ar      1 RES1   0.0000
    33 C16      8.4218   8.1066   1.5978   C.ar      1 RES1   0.0000
    34 C17      8.9190   9.4062   1.3294   C.ar      1 RES1   0.0000
    35 C18     10.3373   9.6005   1.2202   C.ar      1 RES1   0.0000
    36 C19     11.1590   8.5011   1.3415   C.ar      1 RES1   0.0000
    37 H11     12.0954   8.6285   1.2386   H         1 RES1   0.0000
    38 C20     10.6974   7.2131   1.6062   C.ar      1 RES1   0.0000
    39 C21      9.3223   7.0506   1.7302   C.ar      1 RES1   0.0000
    40 H12      8.9808   6.1831   1.9128   H         1 RES1   0.0000
    41 C22     11.6419   6.0063   1.6829   C.3       1 RES1   0.0000
    42 C23     11.1469   4.9983   2.7248   C.3       1 RES1   0.0000
    43 H13     11.0171   5.4536   3.5830   H         1 RES1   0.0000
    44 H14     11.8109   4.2856   2.8302   H         1 RES1   0.0000
    45 H15     10.2969   4.6124   2.4277   H         1 RES1   0.0000
    46 C24     11.6304   5.3173   0.3109   C.3       1 RES1   0.0000
    47 H16     10.7244   5.0050   0.1085   H         1 RES1   0.0000
    48 H17     12.2444   4.5529   0.3239   H         1 RES1   0.0000
    49 H18     11.9180   5.9541  -0.3771   H         1 RES1   0.0000
    50 C25     13.0816   6.3979   2.0324   C.3       1 RES1   0.0000
    51 H19     13.4516   6.9564   1.3179   H         1 RES1   0.0000
    52 H20     13.6260   5.5880   2.1292   H         1 RES1   0.0000
    53 H21     13.0889   6.8979   2.8755   H         1 RES1   0.0000
    54 C26     10.9120  11.0089   1.0002   C.3       1 RES1   0.0000
    55 C27     10.5469  11.9241   2.1814   C.3       1 RES1   0.0000
    56 H22      9.5722  12.0115   2.2374   H         1 RES1   0.0000
    57 H23     10.9469  12.8079   2.0447   H         1 RES1   0.0000
    58 H24     10.8884  11.5353   3.0133   H         1 RES1   0.0000
    59 C28     10.3804  11.6152  -0.3158   C.3       1 RES1   0.0000
    60 H25     10.6405  11.0429  -1.0679   H         1 RES1   0.0000
    61 H26     10.7617  12.5099  -0.4400   H         1 RES1   0.0000
    62 H27      9.4039  11.6790  -0.2759   H         1 RES1   0.0000
    63 C29     12.4433  10.9959   0.8880   C.3       1 RES1   0.0000
    64 H28     12.8274  10.6110   1.7035   H         1 RES1   0.0000
    65 H29     12.7701  11.9125   0.7741   H         1 RES1   0.0000
    66 H30     12.7099  10.4554   0.1150   H         1 RES1   0.0000
    67 N4       0.0335   8.5011   4.9895   N.1       2 RES2   0.0000
    68 C30     -0.1537   8.4837   6.1179   C.1       2 RES2   0.0000
    69 C31     -0.4439   8.4750   7.5316   C.3       2 RES2   0.0000
    70 H31     -1.3652   8.1743   7.6744   H         2 RES2   0.0000
    71 H32     -0.3353   9.3797   7.8921   H         2 RES2   0.0000
    72 H33      0.1734   7.8654   7.9876   H         2 RES2   0.0000
    73 N5      -2.6638   7.5220   9.8845   N.1       3 RES3   0.0000
    74 C32     -2.8059   6.5357  10.4455   C.1       3 RES3   0.0000
    75 C33     -2.9471   5.2956  11.1443   C.3       3 RES3   0.0000
    76 H34     -3.2606   4.6041  10.5242   H         3 RES3   0.0000
    77 H35     -3.5974   5.4018  11.8701   H         3 RES3   0.0000
    78 H36     -2.0811   5.0302  11.5184   H         3 RES3   0.0000
@<TRIPOS>BOND
     1     1     2    1
     2     3     1    1
     3     4     1    1
     4     5     1    1
     5     6     1    1
     6     7     1    1
     7     8     5   ar
     8     9     8    1
     9    10     8   ar
    10    11    10    1
    11    12    10   ar
    12    13    12    1
    13    14    12   ar
    14    15    14    1
    15    16     5   ar
    16    17     6   ar
    17    18    17   ar
    18    19    18    1
    19    20    18   ar
    20    21    20    1
    21    22    20   ar
    22    23    22    1
    23    24     6   ar
    24    25     7   ar
    25    26    25   ar
    26    27    26    1
    27    28    26   ar
    28    29    28    1
    29    30    28   ar
    30    31    30    1
    31    32     7   ar
    32    33    32    1
    33    34     4    1
    34    35    34   ar
    35    36    35   ar
    36    37    36    1
    37    38    36   ar
    38    39    33   ar
    39    40    39    1
    40    41    38    1
    41    42    41    1
    42    43    42    1
    43    44    42    1
    44    45    42    1
    45    46    41    1
    46    47    46    1
    47    48    46    1
    48    49    46    1
    49    50    41    1
    50    51    50    1
    51    52    50    1
    52    53    50    1
    53    54    35    1
    54    55    54    1
    55    56    55    1
    56    57    55    1
    57    58    55    1
    58    59    54    1
    59    60    59    1
    60    61    59    1
    61    62    59    1
    62    63    54    1
    63    64    63    1
    64    65    63    1
    65    66    63    1
    66    14    16   ar
    67    16    17    1
    68    22    24   ar
    69    24    25    1
    70    30    32   ar
    71    33    34   ar
    72    38    39   ar
    73    67    68    3
    74    68    69    1
    75    69    70    1
    76    71    69    1
    77    72    69    1
    78    73    74    3
    79    74    75    1
    80    75    76    1
    81    77    75    1
    82    78    75    1
@<TRIPOS>SUBSTRUCTURE
     1 RES1        1 GROUP             0 ****  ****    0  
     2 RES2       67 GROUP             0 ****  ****    0  
     3 RES3       73 GROUP             0 ****  ****    0  
@<TRIPOS>CRYSIN
   13.6379   14.5045   17.2579   90.0000  111.7610   90.0000    14     1
