@<TRIPOS>MOLECULE
WEJHOM
    85    84     7     0     0
SMALL
USER_CHARGES
****
Generated from the CSD

@<TRIPOS>ATOM
     1 Fe1     -1.2933  13.3105  15.4986   Fe        1 RES1   0.0000
     2 O1       1.2824  14.0681  14.7166   O.2       1 RES1   0.0000
     3 N1      -2.7406  15.9484  14.7889   N.1       1 RES1  -1.0000
     4 N2       0.2319  13.7893  15.0400   N.2       1 RES1   0.0000
     5 N3      -1.9892  12.2782  12.6826   N.1       1 RES1   0.0000
     6 N4      -1.0177  14.2557  18.4243   N.1       1 RES1  -1.0000
     7 N5      -0.3924  10.4680  16.2798   N.1       1 RES1   0.0000
     8 N6      -4.0714  12.2500  16.3609   N.1       1 RES1   0.0000
     9 C1      -2.1943  14.9775  15.0593   C.1       1 RES1   0.0000
    10 C2      -1.7410  12.6502  13.7394   C.1       1 RES1   0.0000
    11 C3      -1.1217  13.9035  17.3360   C.1       1 RES1   0.0000
    12 C4      -0.7217  11.5269  15.9963   C.1       1 RES1   0.0000
    13 C5      -3.0417  12.6596  16.0255   C.1       1 RES1   0.0000
    14 N7       3.5059   8.3074   9.0634   N.ar      2 RES2   0.0000
    15 N8       4.2031   8.5849  11.6848   N.ar      2 RES2   1.0000
    16 H1       4.3996   9.1705  11.0580   H         2 RES2   0.0000
    17 C6       3.1205   7.3321   9.9213   C.ar      2 RES2   0.0000
    18 C7       2.4397   6.2181   9.5489   C.ar      2 RES2   0.0000
    19 H2       2.1932   5.5617  10.1898   H         2 RES2   0.0000
    20 C8       2.1231   6.0657   8.2470   C.ar      2 RES2   0.0000
    21 H3       1.6322   5.3011   7.9697   H         2 RES2   0.0000
    22 C9       2.5006   7.0026   7.3173   C.ar      2 RES2   0.0000
    23 H4       2.2973   6.8829   6.3971   H         2 RES2   0.0000
    24 C10      3.1838   8.1294   7.7493   C.ar      2 RES2   0.0000
    25 H5       3.4345   8.7912   7.1161   H         2 RES2   0.0000
    26 C11      3.4915   7.4993  11.3454   C.ar      2 RES2   0.0000
    27 C12      4.6291   8.8201  12.9382   C.ar      2 RES2   0.0000
    28 H6       5.1186   9.6109  13.1311   H         2 RES2   0.0000
    29 C13      4.3597   7.9239  13.9377   C.ar      2 RES2   0.0000
    30 H7       4.6898   8.0630  14.8177   H         2 RES2   0.0000
    31 C14      3.5961   6.8109  13.6356   C.ar      2 RES2   0.0000
    32 H8       3.3698   6.1934  14.3212   H         2 RES2   0.0000
    33 C15      3.1635   6.5934  12.3534   C.ar      2 RES2   0.0000
    34 H9       2.6406   5.8262  12.1517   H         2 RES2   0.0000
    35 N9      -0.3579   7.2959  19.9441   N.ar      3 RES3   0.0000
    36 C16      0.1901   8.0204  20.9742   C.ar      3 RES3   0.0000
    37 C17      0.2786   7.5097  22.2193   C.ar      3 RES3   0.0000
    38 H10      0.6320   8.0258  22.9344   H         3 RES3   0.0000
    39 C18     -0.1529   6.2311  22.4238   C.ar      3 RES3   0.0000
    40 H11     -0.0969   5.8625  23.2973   H         3 RES3   0.0000
    41 C19     -0.6670   5.4607  21.4074   C.ar      3 RES3   0.0000
    42 H12     -0.9383   4.5641  21.5656   H         3 RES3   0.0000
    43 C20     -0.7764   6.0127  20.1741   C.ar      3 RES3   0.0000
    44 H13     -1.1470   5.5043  19.4623   H         3 RES3   0.0000
    45 N9B      1.2245  10.1192  21.7525   N.ar      3 RES3   0.0000
    46 C16B     0.6765   9.3947  20.7224   C.ar      3 RES3   0.0000
    47 C17B     0.5880   9.9054  19.4773   C.ar      3 RES3   0.0000
    48 H10B     0.2346   9.3893  18.7622   H         3 RES3   0.0000
    49 C18B     1.0194  11.1840  19.2728   C.ar      3 RES3   0.0000
    50 H11B     0.9635  11.5526  18.3993   H         3 RES3   0.0000
    51 C19B     1.5336  11.9544  20.2891   C.ar      3 RES3   0.0000
    52 H12B     1.8048  12.8510  20.1310   H         3 RES3   0.0000
    53 C20B     1.6430  11.4024  21.5225   C.ar      3 RES3   0.0000
    54 H13B     2.0135  11.9108  22.2343   H         3 RES3   0.0000
    55 O2      -1.5391   8.0231  17.2280   O.3       4 RES4   0.0000
    56 H14     -0.9839   8.6901  16.8871   H         4 RES4   0.0000
    57 H15     -2.3989   8.3244  17.2624   H         4 RES4   0.0000
    58 O3       3.2586   9.4017  17.0741   O.3       5 RES5   0.0000
    59 H16      3.1336  10.2244  16.6786   H         5 RES5   0.0000
    60 H17      2.5286   8.8469  17.0331   H         5 RES5   0.0000
    61 N10      1.7780   1.4030  11.5504   N.ar      6 RES6   1.0000
    62 H18      2.1096   1.0544  12.2874   H         6 RES6   0.0000
    63 C21      1.7779   0.6875  10.4110   C.ar      6 RES6   0.0000
    64 C22      1.2591   2.6837  11.5664   C.ar      6 RES6   0.0000
    65 H19      1.2475   3.1852  12.3733   H         6 RES6   0.0000
    66 C23      0.7643   3.2221  10.4160   C.ar      6 RES6   0.0000
    67 H20      0.4026   4.1005  10.4098   H         6 RES6   0.0000
    68 C24      0.7993   2.4644   9.2543   C.ar      6 RES6   0.0000
    69 H21      0.4615   2.8349   8.4473   H         6 RES6   0.0000
    70 C25      1.3044   1.2069   9.2462   C.ar      6 RES6   0.0000
    71 H22      1.3279   0.6987   8.4438   H         6 RES6   0.0000
    72 N10B     2.3224  -1.4030   9.2979   N.ar      6 RES6   1.0000
    73 H18B     1.9907  -1.0544   8.5609   H         6 RES6   0.0000
    74 C21B     2.3225  -0.6875  10.4373   C.ar      6 RES6   0.0000
    75 C22B     2.8412  -2.6837   9.2819   C.ar      6 RES6   0.0000
    76 H19B     2.8529  -3.1852   8.4750   H         6 RES6   0.0000
    77 C23B     3.3361  -3.2221  10.4323   C.ar      6 RES6   0.0000
    78 H20B     3.6977  -4.1005  10.4385   H         6 RES6   0.0000
    79 C24B     3.3011  -2.4644  11.5939   C.ar      6 RES6   0.0000
    80 H21B     3.6389  -2.8349  12.4010   H         6 RES6   0.0000
    81 C25B     2.7960  -1.2069  11.6021   C.ar      6 RES6   0.0000
    82 H22B     2.7724  -0.6987  12.4045   H         6 RES6   0.0000
    83 O4       5.1773  10.7019  10.3875   O.3       7 RES7   0.0000
    84 H23      5.2443  11.3233  11.0621   H         7 RES7   0.0000
    85 H24      4.8360  11.0952   9.6277   H         7 RES7   0.0000
@<TRIPOS>BOND
     1     1     4    1
     2     2     4    2
     3     3     9    3
     4     5    10    3
     5     6    11    3
     6     7    12    3
     7     8    13    3
     8     9     1    1
     9    10     1    1
    10    11     1    1
    11    12     1    1
    12    13     1    1
    13    14    17   ar
    14    15    16    1
    15    17    18   ar
    16    18    19    1
    17    20    18   ar
    18    21    20    1
    19    22    20   ar
    20    23    22    1
    21    24    14   ar
    22    25    24    1
    23    26    15   ar
    24    27    15   ar
    25    28    27    1
    26    29    27   ar
    27    30    29    1
    28    31    29   ar
    29    32    31    1
    30    33    26   ar
    31    34    33    1
    32    17    26    1
    33    22    24   ar
    34    31    33   ar
    35    35    36   ar
    36    36    37   ar
    37    37    38    1
    38    39    37   ar
    39    40    39    1
    40    41    39   ar
    41    42    41    1
    42    43    35   ar
    43    44    43    1
    44    45    46   ar
    45    46    36    1
    46    47    46   ar
    47    48    47    1
    48    49    47   ar
    49    50    49    1
    50    51    49   ar
    51    52    51    1
    52    53    45   ar
    53    54    53    1
    54    41    43   ar
    55    51    53   ar
    56    55    56    1
    57    57    55    1
    58    58    59    1
    59    60    58    1
    60    61    62    1
    61    63    61   ar
    62    64    61   ar
    63    65    64    1
    64    66    64   ar
    65    67    66    1
    66    68    66   ar
    67    69    68    1
    68    70    63   ar
    69    71    70    1
    70    72    73    1
    71    74    63    1
    72    75    72   ar
    73    76    75    1
    74    77    75   ar
    75    78    77    1
    76    79    77   ar
    77    80    79    1
    78    81    74   ar
    79    82    81    1
    80    68    70   ar
    81    72    74   ar
    82    79    81   ar
    83    83    84    1
    84    85    83    1
@<TRIPOS>SUBSTRUCTURE
     1 RES1        1 GROUP             0 ****  ****    0  
     2 RES2       14 GROUP             0 ****  ****    0  
     3 RES3       35 GROUP             0 ****  ****    0  
     4 RES4       55 GROUP             0 ****  ****    0  
     5 RES5       58 GROUP             0 ****  ****    0  
     6 RES6       61 GROUP             0 ****  ****    0  
     7 RES7       83 GROUP             0 ****  ****    0  
@<TRIPOS>CRYSIN
    7.3342   17.4151   21.0976   90.0000   98.8170   90.0000   231     1
