@<TRIPOS>MOLECULE
WENTOA
    97    98     5     0     0
SMALL
NO_CHARGES
****
Generated from the CSD

@<TRIPOS>ATOM
     1 Fe1      2.1327   3.0354   8.7155   Fe        1 RES1   0.0000
     2 N1       1.1767   5.7017   8.2399   N.ar      1 RES1   0.0000
     3 C1       0.5631   6.5822   7.5153   C.ar      1 RES1   0.0000
     4 O1      -0.4349   8.8302   6.1034   O.2       1 RES1   0.0000
     5 N2      -0.4253   6.2050   6.7172   N.pl3     1 RES1   0.0000
     6 H1      -0.6588   5.3784   6.6826   H         1 RES1   0.0000
     7 H2      -0.8342   6.7887   6.2350   H         1 RES1   0.0000
     8 O2       0.6729  10.2018   7.3781   O.2       1 RES1   0.0000
     9 C2       0.8714   7.9259   7.8049   C.ar      1 RES1   0.0000
    10 C3       1.7435   8.2781   8.8620   C.ar      1 RES1   0.0000
    11 H3       1.9380   9.1686   9.0491   H         1 RES1   0.0000
    12 O3       3.3354   8.7772  10.9321   O.2       1 RES1   0.0000
    13 N3       0.3383   9.0150   7.0816   N.pl3     1 RES1   0.0000
    14 O4       3.6731   6.7374  11.3367   O.2       1 RES1   0.0000
    15 N4       3.1616   7.5826  10.6771   N.pl3     1 RES1   0.0000
    16 C4       2.2970   7.2525   9.6103   C.ar      1 RES1   0.0000
    17 O5       6.6752   1.5039   8.5919   O.2       1 RES1   0.0000
    18 N5       3.1998   1.7291   6.3916   N.ar      1 RES1   0.0000
    19 C5       2.0679   5.8816   9.2514   C.ar      1 RES1   0.0000
    20 O6       7.6291   0.3692   7.0373   O.2       1 RES1   0.0000
    21 C6       4.2946   1.7311   7.2202   C.ar      1 RES1   0.0000
    22 N6       2.0213   1.4163   4.4767   N.pl3     1 RES1   0.0000
    23 H4       1.3675   1.8183   4.8647   H         1 RES1   0.0000
    24 H5       1.9334   1.1312   3.6704   H         1 RES1   0.0000
    25 O7       5.3973  -0.6994   3.0787   O.2       1 RES1   0.0000
    26 C7       5.4153   1.0927   6.7421   C.ar      1 RES1   0.0000
    27 N7       4.3570  -0.0437   3.3697   N.pl3     1 RES1   0.0000
    28 N8       6.6419   0.9492   7.4668   N.pl3     1 RES1   0.0000
    29 O8       3.4319   0.1100   2.6367   O.2       1 RES1   0.0000
    30 C8       5.4319   0.5131   5.4688   C.ar      1 RES1   0.0000
    31 H6       6.1928   0.0695   5.1695   H         1 RES1   0.0000
    32 N9       0.2145   1.3065   9.9788   N.ar      1 RES1   0.0000
    33 O9       2.9851   1.1223  13.0063   O.2       1 RES1   0.0000
    34 C9       4.3355   0.6000   4.6666   C.ar      1 RES1   0.0000
    35 N10     -1.8116   0.7881   9.0810   N.pl3     1 RES1   0.0000
    36 H7      -1.6038   1.3219   8.4381   H         1 RES1   0.0000
    37 H8      -2.5681   0.3797   9.0727   H         1 RES1   0.0000
    38 C10      3.1606   1.2394   5.1169   C.ar      1 RES1   0.0000
    39 O10      1.9056  -0.4468  13.9360   O.2       1 RES1   0.0000
    40 C11      1.2129   1.3235  10.9044   C.ar      1 RES1   0.0000
    41 N11     -2.3171  -0.9257  11.4323   N.pl3     1 RES1   0.0000
    42 O11     -2.3740  -1.5915  12.5199   O.2       1 RES1   0.0000
    43 N12      2.0531   0.3233  13.0270   N.pl3     1 RES1   0.0000
    44 C12      1.0513   0.5152  12.0128   C.ar      1 RES1   0.0000
    45 O12     -3.1666  -0.9762  10.6092   O.2       1 RES1   0.0000
    46 O13      0.9831   4.4396   7.8353   O.3       1 RES1   0.0000
    47 N13      2.7059   4.8138   9.5950   N.2       1 RES1   0.0000
    48 H9       3.3462   4.8412  10.1686   H         1 RES1   0.0000
    49 C13     -0.1145  -0.2529  12.1874   C.ar      1 RES1   0.0000
    50 H10     -0.2227  -0.7955  12.9356   H         1 RES1   0.0000
    51 O14      2.0632   2.3435   6.8322   O.3       1 RES1   0.0000
    52 N14      4.0649   2.3498   8.3383   N.2       1 RES1   0.0000
    53 H11      4.6947   2.4732   8.9105   H         1 RES1   0.0000
    54 C14     -1.0719  -0.1780  11.2383   C.ar      1 RES1   0.0000
    55 O15      0.3523   2.1183   8.8939   O.3       1 RES1   0.0000
    56 N15      2.2086   2.0863  10.5358   N.2       1 RES1   0.0000
    57 H12      2.8895   2.1913  11.0512   H         1 RES1   0.0000
    58 C15     -0.9563   0.5946  10.0910   C.ar      1 RES1   0.0000
    59 O16      6.9214   2.4957   2.7282   O.2       2 RES2   0.0000
    60 N16      5.2394   2.6064   1.2567   N.am      2 RES2   0.0000
    61 C16      6.2985   2.1462   1.6169   C.2       2 RES2   0.0000
    62 H13      6.6999   1.5045   1.0766   H         2 RES2   0.0000
    63 C17      4.5070   3.5751   1.9994   C.3       2 RES2   0.0000
    64 H14      4.9836   3.7872   2.8058   H         2 RES2   0.0000
    65 H15      3.6430   3.2215   2.2211   H         2 RES2   0.0000
    66 H16      4.4013   4.3703   1.4715   H         2 RES2   0.0000
    67 C18      4.4310   2.3820   0.1607   C.3       2 RES2   0.0000
    68 H17      4.8414   1.7310  -0.4115   H         2 RES2   0.0000
    69 H18      4.3115   3.2034  -0.3215   H         2 RES2   0.0000
    70 H19      3.5768   2.0573   0.4558   H         2 RES2   0.0000
    71 O17      9.2663   6.6649   4.8924   O.2       3 RES3   0.0000
    72 N17      8.1477   7.5127   3.1771   N.am      3 RES3   0.0000
    73 C19      9.1583   7.4939   3.9488   C.2       3 RES3   0.0000
    74 H20      9.8404   8.1119   3.8131   H         3 RES3   0.0000
    75 C20      8.0351   8.5538   2.2072   C.3       3 RES3   0.0000
    76 H21      8.7610   9.1722   2.3167   H         3 RES3   0.0000
    77 H22      7.2014   9.0139   2.3264   H         3 RES3   0.0000
    78 H23      8.0690   8.1755   1.3246   H         3 RES3   0.0000
    79 C21      7.1196   6.4985   3.3101   C.3       3 RES3   0.0000
    80 H24      7.3173   5.9384   4.0639   H         3 RES3   0.0000
    81 H25      7.0926   5.9634   2.5134   H         3 RES3   0.0000
    82 H26      6.2679   6.9210   3.4403   H         3 RES3   0.0000
    83 O18     12.4251   1.7043   1.8802   O.2       4 RES4   0.0000
    84 N18     11.1443   1.7722   0.1053   N.am      4 RES4   0.0000
    85 C22     12.2910   2.1244   0.6193   C.2       4 RES4   0.0000
    86 H27     12.9381   2.6105   0.1621   H         4 RES4   0.0000
    87 C23     11.1781   2.2261  -1.2512   C.3       4 RES4   0.0000
    88 H28     12.0141   2.6682  -1.4202   H         4 RES4   0.0000
    89 H29     10.4558   2.8391  -1.4022   H         4 RES4   0.0000
    90 H30     11.0891   1.4742  -1.8428   H         4 RES4   0.0000
    91 C24      9.9730   1.1881   0.5321   C.3       4 RES4   0.0000
    92 H31     10.0434   0.9782   1.4659   H         4 RES4   0.0000
    93 H32      9.8161   0.3827   0.0333   H         4 RES4   0.0000
    94 H33      9.2448   1.7982   0.3949   H         4 RES4   0.0000
    95 O19      5.7798  10.4067   4.5640   O.3       5 RES5   0.0000
    96 H34      5.2325  10.7797   5.1016   H         5 RES5   0.0000
    97 H35      6.4955  10.8625   4.5793   H         5 RES5   0.0000
@<TRIPOS>BOND
     1     1    46    1
     2     2     3   ar
     3     3     5    1
     4     4    13    2
     5     5     6    1
     6     7     5    1
     7     8    13    2
     8     9     3   ar
     9    10     9   ar
    10    11    10    1
    11    12    15    2
    12    13     9    1
    13    14    15    2
    14    15    16    1
    15    16    10   ar
    16    17    28    2
    17    18    21   ar
    18    19     2   ar
    19    20    28    2
    20    21    26   ar
    21    22    23    1
    22    24    22    1
    23    25    27    2
    24    26    28    1
    25    27    29    2
    26    30    26   ar
    27    31    30    1
    28    32    40   ar
    29    33    43    2
    30    34    27    1
    31    35    36    1
    32    37    35    1
    33    38    18   ar
    34    39    43    2
    35    40    44   ar
    36    41    42    2
    37    43    44    1
    38    44    49   ar
    39    45    41    2
    40    46     2    1
    41    47     1    1
    42    48    47    1
    43    49    50    1
    44    51     1    1
    45    52     1    1
    46    53    52    1
    47    54    41    1
    48    55     1    1
    49    56     1    1
    50    57    56    1
    51    58    32   ar
    52    16    19   ar
    53    18    51    1
    54    19    47    1
    55    21    52    1
    56    22    38    1
    57    30    34   ar
    58    32    55    1
    59    34    38   ar
    60    35    58    1
    61    40    56    1
    62    49    54   ar
    63    54    58   ar
    64    59    61    2
    65    60    61   am
    66    61    62    1
    67    63    60    1
    68    64    63    1
    69    65    63    1
    70    66    63    1
    71    67    60    1
    72    68    67    1
    73    69    67    1
    74    70    67    1
    75    71    73    2
    76    72    73   am
    77    73    74    1
    78    75    72    1
    79    76    75    1
    80    77    75    1
    81    78    75    1
    82    79    72    1
    83    80    79    1
    84    81    79    1
    85    82    79    1
    86    83    85    2
    87    84    85   am
    88    85    86    1
    89    87    84    1
    90    88    87    1
    91    89    87    1
    92    90    87    1
    93    91    84    1
    94    92    91    1
    95    93    91    1
    96    94    91    1
    97    95    96    1
    98    97    95    1
@<TRIPOS>SUBSTRUCTURE
     1 RES1        1 GROUP             0 ****  ****    0  
     2 RES2       59 GROUP             0 ****  ****    0  
     3 RES3       71 GROUP             0 ****  ****    0  
     4 RES4       83 GROUP             0 ****  ****    0  
     5 RES5       95 GROUP             0 ****  ****    0  
@<TRIPOS>CRYSIN
   11.7150   12.9000   14.9780   68.4500   89.4300   73.7600     2     1
