@<TRIPOS>MOLECULE
WEPCUS
    96   103     2     0     0
SMALL
USER_CHARGES
****
Generated from the CSD

@<TRIPOS>ATOM
     1 Fe1      6.5808  11.9490   8.6955   Fe        1 RES1   2.0000
     2 O1       5.8261   9.9641  12.8997   O.2       1 RES1   0.0000
     3 O2       6.5808  16.6580   8.6955   O.2       1 RES1   0.0000
     4 N1       7.5138  11.9831  10.4622   N.2       1 RES1   0.0000
     5 N2       5.3633  10.5377   9.3887   N.2       1 RES1   0.0000
     6 N3       5.3299  13.3672   9.3614   N.2       1 RES1   0.0000
     7 N4       8.1299  11.5888  12.5688   N.pl3     1 RES1   0.0000
     8 N5       4.0706   9.3690  10.7717   N.pl3     1 RES1   0.0000
     9 N6       4.2577  15.3064   9.5600   N.pl3     1 RES1   0.0000
    10 C1       8.6202  12.7310  10.7627   C.2       1 RES1   0.0000
    11 H1       9.0565  13.3267  10.1656   H         1 RES1   0.0000
    12 C2       9.0003  12.4892  12.0541   C.2       1 RES1   0.0000
    13 H2       9.7391  12.8799  12.5065   H         1 RES1   0.0000
    14 C3       8.2927  11.0194  13.9259   C.3       1 RES1   0.0000
    15 H3       9.2379  10.7600  14.0589   H         1 RES1   0.0000
    16 H4       7.7378  10.2023  14.0056   H         1 RES1   0.0000
    17 C4       7.8955  11.9826  14.9841   C.3       1 RES1   0.0000
    18 H5       8.4492  12.7899  14.9157   H         1 RES1   0.0000
    19 H6       8.0265  11.5716  15.8641   H         1 RES1   0.0000
    20 H7       6.9539  12.2225  14.8705   H         1 RES1   0.0000
    21 C5       7.2169  11.3047  11.5885   C.2       1 RES1   0.0000
    22 C6       6.0568  10.4481  11.8010   C.2       1 RES1   0.0000
    23 C7       5.1757  10.1671  10.6651   C.2       1 RES1   0.0000
    24 C8       3.4001   8.8587  11.9906   C.3       1 RES1   0.0000
    25 H8       4.0715   8.4360  12.5818   H         1 RES1   0.0000
    26 H9       2.7383   8.1676  11.7366   H         1 RES1   0.0000
    27 C9       2.7028   9.9649  12.7372   C.3       1 RES1   0.0000
    28 H10      3.3597  10.6379  13.0131   H         1 RES1   0.0000
    29 H11      2.2618   9.5948  13.5302   H         1 RES1   0.0000
    30 H12      2.0345  10.3807  12.1552   H         1 RES1   0.0000
    31 C10      3.5616   9.2186   9.5258   C.2       1 RES1   0.0000
    32 H13      2.7924   8.7157   9.2880   H         1 RES1   0.0000
    33 C11      4.3665   9.9294   8.6724   C.2       1 RES1   0.0000
    34 H14      4.2510   9.9902   7.7321   H         1 RES1   0.0000
    35 C12      4.0862  13.1494   9.9055   C.2       1 RES1   0.0000
    36 H15      3.7397  12.3013  10.1587   H         1 RES1   0.0000
    37 C13      3.4240  14.3435  10.0260   C.2       1 RES1   0.0000
    38 H16      2.5470  14.4726  10.3708   H         1 RES1   0.0000
    39 C14      3.8838  16.7332   9.4781   C.3       1 RES1   0.0000
    40 H17      2.8983  16.8110   9.4259   H         1 RES1   0.0000
    41 H18      4.2661  17.1260   8.6526   H         1 RES1   0.0000
    42 C15      4.3841  17.5055  10.6775   C.3       1 RES1   0.0000
    43 H19      3.9597  17.1598  11.4897   H         1 RES1   0.0000
    44 H20      4.1613  18.4535  10.5714   H         1 RES1   0.0000
    45 H21      5.3570  17.4040  10.7488   H         1 RES1   0.0000
    46 C16      5.4163  14.6916   9.1788   C.2       1 RES1   0.0000
    47 C17      6.5808  15.4388   8.6955   C.2       1 RES1   0.0000
    48 N3A      7.8316  13.3672   8.0297   N.2       1 RES1   0.0000
    49 N6A      8.9039  15.3064   7.8311   N.pl3     1 RES1   0.0000
    50 C12A     9.0754  13.1494   7.4856   C.2       1 RES1   0.0000
    51 H15A     9.4219  12.3013   7.2323   H         1 RES1   0.0000
    52 C13A     9.7376  14.3435   7.3650   C.2       1 RES1   0.0000
    53 H16A    10.6146  14.4726   7.0202   H         1 RES1   0.0000
    54 C14A     9.2778  16.7332   7.9129   C.3       1 RES1   0.0000
    55 H17A    10.2633  16.8110   7.9651   H         1 RES1   0.0000
    56 H18A     8.8954  17.1260   8.7384   H         1 RES1   0.0000
    57 C15A     8.7774  17.5055   6.7135   C.3       1 RES1   0.0000
    58 H19A     9.2019  17.1598   5.9014   H         1 RES1   0.0000
    59 H20A     9.0002  18.4535   6.8196   H         1 RES1   0.0000
    60 H21A     7.8045  17.4040   6.6422   H         1 RES1   0.0000
    61 C16A     7.7452  14.6916   8.2123   C.2       1 RES1   0.0000
    62 O1A      7.3354   9.9641   4.4913   O.2       1 RES1   0.0000
    63 N1A      5.6477  11.9831   6.9288   N.2       1 RES1   0.0000
    64 N2A      7.7983  10.5377   8.0023   N.2       1 RES1   0.0000
    65 N4A      5.0317  11.5888   4.8222   N.pl3     1 RES1   0.0000
    66 N5A      9.0909   9.3690   6.6194   N.pl3     1 RES1   0.0000
    67 C1A      4.5413  12.7310   6.6283   C.2       1 RES1   0.0000
    68 H1A      4.1050  13.3267   7.2254   H         1 RES1   0.0000
    69 C2A      4.1612  12.4892   5.3370   C.2       1 RES1   0.0000
    70 H2A      3.4225  12.8799   4.8846   H         1 RES1   0.0000
    71 C3A      4.8689  11.0194   3.4651   C.3       1 RES1   0.0000
    72 H3A      3.9236  10.7600   3.3321   H         1 RES1   0.0000
    73 H4A      5.4237  10.2023   3.3855   H         1 RES1   0.0000
    74 C4A      5.2660  11.9826   2.4069   C.3       1 RES1   0.0000
    75 H5A      4.7124  12.7899   2.4753   H         1 RES1   0.0000
    76 H6A      5.1350  11.5716   1.5269   H         1 RES1   0.0000
    77 H7A      6.2077  12.2225   2.5205   H         1 RES1   0.0000
    78 C5A      5.9446  11.3047   5.8026   C.2       1 RES1   0.0000
    79 C6A      7.1047  10.4481   5.5901   C.2       1 RES1   0.0000
    80 C7A      7.9858  10.1671   6.7259   C.2       1 RES1   0.0000
    81 C8A      9.7615   8.8587   5.4004   C.3       1 RES1   0.0000
    82 H8A      9.0900   8.4360   4.8092   H         1 RES1   0.0000
    83 H9A     10.4232   8.1676   5.6544   H         1 RES1   0.0000
    84 C9A     10.4588   9.9649   4.6538   C.3       1 RES1   0.0000
    85 H10A     9.8018  10.6379   4.3779   H         1 RES1   0.0000
    86 H11A    10.8998   9.5948   3.8608   H         1 RES1   0.0000
    87 H12A    11.1270  10.3807   5.2359   H         1 RES1   0.0000
    88 C10A     9.5999   9.2186   7.8653   C.2       1 RES1   0.0000
    89 H13A    10.3691   8.7157   8.1031   H         1 RES1   0.0000
    90 C11A     8.7950   9.9294   8.7186   C.2       1 RES1   0.0000
    91 H14A     8.9106   9.9902   9.6590   H         1 RES1   0.0000
    92 F1       3.0907   9.2260   5.6648   F         2 RES2   0.0000
    93 F2       1.0781   8.2592   5.2035   F         2 RES2   0.0000
    94 F3       2.2835   7.6479   7.0121   F         2 RES2   0.0000
    95 F4       3.0215   7.1153   4.9417   F         2 RES2   0.0000
    96 B1       2.3519   8.0502   5.7008   B         2 RES2  -1.0000
@<TRIPOS>BOND
     1     1     4    1
     2     2    22    2
     3     3    47    2
     4     4    10    1
     5     5     1    1
     6     6     1    1
     7     7    12    1
     8     8    23    1
     9     9    37    1
    10    10    11    1
    11    12    10    2
    12    13    12    1
    13    14     7    1
    14    15    14    1
    15    16    14    1
    16    17    14    1
    17    18    17    1
    18    19    17    1
    19    20    17    1
    20    21     4    2
    21    22    21    1
    22    23     5    2
    23    24     8    1
    24    25    24    1
    25    26    24    1
    26    27    24    1
    27    28    27    1
    28    29    27    1
    29    30    27    1
    30    31     8    1
    31    32    31    1
    32    33     5    1
    33    34    33    1
    34    35     6    1
    35    36    35    1
    36    37    35    2
    37    38    37    1
    38    39     9    1
    39    40    39    1
    40    41    39    1
    41    42    39    1
    42    43    42    1
    43    44    42    1
    44    45    42    1
    45    46     6    2
    46    47    46    1
    47    48     1    1
    48    49    52    1
    49    50    48    1
    50    51    50    1
    51    52    50    2
    52    53    52    1
    53    54    49    1
    54    55    54    1
    55    56    54    1
    56    57    54    1
    57    58    57    1
    58    59    57    1
    59    60    57    1
    60    61    47    1
    61    62    79    2
    62    63     1    1
    63    64     1    1
    64    65    69    1
    65    66    80    1
    66    67    63    1
    67    68    67    1
    68    69    67    2
    69    70    69    1
    70    71    65    1
    71    72    71    1
    72    73    71    1
    73    74    71    1
    74    75    74    1
    75    76    74    1
    76    77    74    1
    77    78    63    2
    78    79    78    1
    79    80    64    2
    80    81    66    1
    81    82    81    1
    82    83    81    1
    83    84    81    1
    84    85    84    1
    85    86    84    1
    86    87    84    1
    87    88    66    1
    88    89    88    1
    89    90    64    1
    90    91    90    1
    91     7    21    1
    92     9    46    1
    93    22    23    1
    94    31    33    2
    95    48    61    2
    96    49    61    1
    97    65    78    1
    98    79    80    1
    99    88    90    2
   100    92    96    1
   101    93    96    1
   102    94    96    1
   103    95    96    1
@<TRIPOS>SUBSTRUCTURE
     1 RES1        1 GROUP             0 ****  ****    0  
     2 RES2       92 GROUP             0 ****  ****    0  
@<TRIPOS>CRYSIN
   21.1447   16.0717   12.7572   90.0000  114.6570   90.0000    15     1
