@<TRIPOS>MOLECULE
WEPDAZ
    94    99     4     0     0
SMALL
USER_CHARGES
****
Generated from the CSD

@<TRIPOS>ATOM
     1 Fe1      7.2264   0.7670  14.2817   Fe        1 RES1   2.0000
     2 N1       6.3243   1.8675  15.6540   N.2       1 RES1   0.0000
     3 N2       8.1519  -0.2323  15.7376   N.2       1 RES1   0.0000
     4 N3       8.7275   2.0673  14.1720   N.2       1 RES1   0.0000
     5 N4       8.1219  -0.3655  12.9050   N.2       1 RES1   0.0000
     6 N5       6.3398   1.6898  12.7560   N.2       1 RES1   0.0000
     7 N6       5.6614  -0.4405  14.3671   N.2       1 RES1   0.0000
     8 N7       5.6855   2.8256  17.5526   N.pl3     1 RES1   0.0000
     9 N8       8.9579  -0.8833  17.6994   N.pl3     1 RES1   0.0000
    10 N9      10.4812   3.2380  13.4693   N.pl3     1 RES1   0.0000
    11 N10      9.4429  -1.0826  11.2691   N.pl3     1 RES1   0.0000
    12 N11      5.2593   1.9483  10.8237   N.pl3     1 RES1   0.0000
    13 N12      3.9264  -1.7061  13.8149   N.pl3     1 RES1   0.0000
    14 C1       5.3262   2.7741  15.3948   C.2       1 RES1   0.0000
    15 C2       4.9265   3.3696  16.5540   C.2       1 RES1   0.0000
    16 C3       5.5350   3.1202  18.9422   C.2       1 RES1   0.0000
    17 C4       4.9204   4.1771  19.3941   C.2       1 RES1   0.0000
    18 C5       6.5278   1.9148  16.9839   C.2       1 RES1   0.0000
    19 C6       7.5405   1.1555  17.7242   C.2       1 RES1   0.0000
    20 C7       8.1892   0.0354  17.0445   C.2       1 RES1   0.0000
    21 C8       9.2321  -0.9928  19.0910   C.2       1 RES1   0.0000
    22 C9      10.3542  -1.4995  19.5448   C.2       1 RES1   0.0000
    23 C10      9.4075  -1.7562  16.7524   C.2       1 RES1   0.0000
    24 C11      8.9181  -1.3493  15.5509   C.2       1 RES1   0.0000
    25 C12      8.8126   3.2467  14.8675   C.2       1 RES1   0.0000
    26 C13      9.8671   3.9655  14.4358   C.2       1 RES1   0.0000
    27 C14     11.6114   3.6828  12.7090   C.2       1 RES1   0.0000
    28 C15     12.4808   4.5381  13.1737   C.2       1 RES1   0.0000
    29 C16      9.7627   2.0762  13.3262   C.2       1 RES1   0.0000
    30 C17     10.1594   0.9988  12.4316   C.2       1 RES1   0.0000
    31 C18      9.2144  -0.0876  12.1909   C.2       1 RES1   0.0000
    32 C19     10.4376  -1.1281  10.2344   C.2       1 RES1   0.0000
    33 C20     10.8071  -2.2158   9.6594   C.2       1 RES1   0.0000
    34 C21      8.4794  -2.0246  11.4414   C.2       1 RES1   0.0000
    35 C22      7.6820  -1.5810  12.4683   C.2       1 RES1   0.0000
    36 C23      6.6885   2.9123  12.1946   C.2       1 RES1   0.0000
    37 C24      6.0234   3.0787  11.0335   C.2       1 RES1   0.0000
    38 C25      4.3750   1.7571   9.7182   C.2       1 RES1   0.0000
    39 C26      4.6159   2.2276   8.5424   C.2       1 RES1   0.0000
    40 C27      5.4725   1.1314  11.9006   C.2       1 RES1   0.0000
    41 C28      4.8365  -0.1872  12.0403   C.2       1 RES1   0.0000
    42 C29      4.8062  -0.7641  13.3924   C.2       1 RES1   0.0000
    43 C30      2.8812  -2.3203  13.0562   C.2       1 RES1   0.0000
    44 C31      2.0798  -3.2405  13.5136   C.2       1 RES1   0.0000
    45 C32      4.2262  -1.9674  15.1376   C.2       1 RES1   0.0000
    46 C33      5.2761  -1.1854  15.4591   C.2       1 RES1   0.0000
    47 O1       7.8259   1.4352  18.8781   O.2       1 RES1   0.0000
    48 O2      11.2879   0.9697  11.9429   O.2       1 RES1   0.0000
    49 O3       4.3075  -0.7326  11.0898   O.2       1 RES1   0.0000
    50 H1       4.9637   2.9588  14.5332   H         1 RES1   0.0000
    51 H2       4.2557   4.0375  16.6513   H         1 RES1   0.0000
    52 H3       5.8987   2.5108  19.5705   H         1 RES1   0.0000
    53 H4       4.8488   4.3195  20.3329   H         1 RES1   0.0000
    54 H5       4.5430   4.8044  18.7897   H         1 RES1   0.0000
    55 H6       8.5792  -0.6906  19.7138   H         1 RES1   0.0000
    56 H7      10.5094  -1.5573  20.4798   H         1 RES1   0.0000
    57 H8      11.0168  -1.8047  18.9330   H         1 RES1   0.0000
    58 H9       9.9661  -2.5096  16.9012   H         1 RES1   0.0000
    59 H10      9.0741  -1.7807  14.7187   H         1 RES1   0.0000
    60 H11      8.2114   3.5186  15.5509   H         1 RES1   0.0000
    61 H12     10.1347   4.8181  14.7610   H         1 RES1   0.0000
    62 H13     11.7344   3.3440  11.8290   H         1 RES1   0.0000
    63 H14     12.3777   4.8893  14.0482   H         1 RES1   0.0000
    64 H15     13.2170   4.8072  12.6355   H         1 RES1   0.0000
    65 H16     10.8502  -0.3150   9.9717   H         1 RES1   0.0000
    66 H17     11.4727  -2.1871   8.9760   H         1 RES1   0.0000
    67 H18     10.4147  -3.0425   9.9001   H         1 RES1   0.0000
    68 H19      8.3744  -2.8333  10.9509   H         1 RES1   0.0000
    69 H20      6.9323  -2.0464  12.8155   H         1 RES1   0.0000
    70 H21      7.2996   3.5324  12.5675   H         1 RES1   0.0000
    71 H22      6.0737   3.8394  10.4696   H         1 RES1   0.0000
    72 H23      3.5727   1.2681   9.8560   H         1 RES1   0.0000
    73 H24      5.4168   2.7250   8.3808   H         1 RES1   0.0000
    74 H25      4.0059   2.0832   7.8297   H         1 RES1   0.0000
    75 H26      2.7583  -2.0359  12.1597   H         1 RES1   0.0000
    76 H27      2.1759  -3.5540  14.4064   H         1 RES1   0.0000
    77 H28      1.4090  -3.6098  12.9515   H         1 RES1   0.0000
    78 H29      3.7780  -2.5891  15.7071   H         1 RES1   0.0000
    79 H30      5.6826  -1.1475  16.3207   H         1 RES1   0.0000
    80 B1       1.5719   2.0156   5.1236   B         2 RES2  -1.0000
    81 F1       1.9124   3.0726   4.3723   F         2 RES2   0.0000
    82 F2       0.3406   1.6673   4.8297   F         2 RES2   0.0000
    83 F3       2.3543   1.0213   4.9381   F         2 RES2   0.0000
    84 F4       1.8142   2.3176   6.3820   F         2 RES2   0.0000
    85 B2       2.0629   6.4567  17.0629   B         3 RES3  -1.0000
    86 F5       0.9068   6.5658  16.3078   F         3 RES3   0.0000
    87 F6       2.9202   5.7707  16.2949   F         3 RES3   0.0000
    88 F7       1.8992   5.8418  18.1816   F         3 RES3   0.0000
    89 F8       2.6249   7.6802  17.2502   F         3 RES3   0.0000
    90 B3      -1.4096   6.0212   9.5216   B         4 RES4  -1.0000
    91 F9      -2.3736   6.7525  10.0727   F         4 RES4   0.0000
    92 F10     -0.5895   5.6202  10.5228   F         4 RES4   0.0000
    93 F11     -0.7058   6.8392   8.7868   F         4 RES4   0.0000
    94 F12     -2.0314   5.1277   8.7170   F         4 RES4   0.0000
@<TRIPOS>BOND
     1     1     2    1
     2     2    14    1
     3     3     1    1
     4     4     1    1
     5     5     1    1
     6     6     1    1
     7     7     1    1
     8     8    15    1
     9     9    20    1
    10    10    26    1
    11    11    31    1
    12    12    37    1
    13    13    42    1
    14    14    15    2
    15    15    51    1
    16    16     8    1
    17    17    16    2
    18    18     2    2
    19    19    18    1
    20    20     3    2
    21    21     9    1
    22    22    21    2
    23    23     9    1
    24    24     3    1
    25    25     4    1
    26    26    25    2
    27    27    10    1
    28    28    27    2
    29    29     4    2
    30    30    29    1
    31    31     5    2
    32    32    11    1
    33    33    32    2
    34    34    11    1
    35    35     5    1
    36    36     6    1
    37    37    36    2
    38    38    12    1
    39    39    38    2
    40    40     6    2
    41    41    40    1
    42    42     7    2
    43    43    13    1
    44    44    43    2
    45    45    13    1
    46    46     7    1
    47    47    19    2
    48    48    30    2
    49    49    41    2
    50    50    14    1
    51    52    16    1
    52    53    17    1
    53    54    17    1
    54    55    21    1
    55    56    22    1
    56    57    22    1
    57    58    23    1
    58    59    24    1
    59    60    25    1
    60    61    26    1
    61    62    27    1
    62    63    28    1
    63    64    28    1
    64    65    32    1
    65    66    33    1
    66    67    33    1
    67    68    34    1
    68    69    35    1
    69    70    36    1
    70    71    37    1
    71    72    38    1
    72    73    39    1
    73    74    39    1
    74    75    43    1
    75    76    44    1
    76    77    44    1
    77    78    45    1
    78    79    46    1
    79     8    18    1
    80    10    29    1
    81    12    40    1
    82    19    20    1
    83    23    24    2
    84    30    31    1
    85    34    35    2
    86    41    42    1
    87    45    46    2
    88    80    81    1
    89    82    80    1
    90    83    80    1
    91    84    80    1
    92    85    86    1
    93    87    85    1
    94    88    85    1
    95    89    85    1
    96    90    91    1
    97    92    90    1
    98    93    90    1
    99    94    90    1
@<TRIPOS>SUBSTRUCTURE
     1 RES1        1 GROUP             0 ****  ****    0  
     2 RES2       80 GROUP             0 ****  ****    0  
     3 RES3       85 GROUP             0 ****  ****    0  
     4 RES4       90 GROUP             0 ****  ****    0  
@<TRIPOS>CRYSIN
    9.3631   11.4700   18.6414   99.1210   93.4430   90.2400     2     1
