@<TRIPOS>MOLECULE
WEPDED
    92    98     3     0     0
SMALL
USER_CHARGES
****
Generated from the CSD

@<TRIPOS>ATOM
     1 Fe1      5.3895   2.9161  12.1350   Fe        1 RES1   2.0000
     2 C1       3.3809   3.1495  14.6758   C.2       1 RES1   0.0000
     3 C2       2.1077   2.9310  15.0438   C.2       1 RES1   0.0000
     4 C3       0.0154   2.2002  13.8329   C.3       1 RES1   0.0000
     5 C4       2.3316   2.5235  12.9025   C.2       1 RES1   0.0000
     6 C5       1.9749   2.2218  11.4696   C.3       1 RES1   0.0000
     7 C6       2.9852   1.4148  10.7483   C.2       1 RES1   0.0000
     8 C7       1.3330   0.0034   9.4548   C.3       1 RES1   0.0000
     9 C8       3.8439  -0.0011   9.2960   C.2       1 RES1   0.0000
    10 C9       4.8366   0.6647   9.9216   C.2       1 RES1   0.0000
    11 C10      5.7274   0.6852  14.3743   C.2       1 RES1   0.0000
    12 C11      6.6337  -0.0854  14.9984   C.2       1 RES1   0.0000
    13 C12      9.0667  -0.6249  14.5591   C.3       1 RES1   0.0000
    14 C13      7.5352   0.8548  13.2186   C.2       1 RES1   0.0000
    15 C14      8.6058   1.1462  12.2169   C.3       1 RES1   0.0000
    16 C15      8.2481   2.0409  11.0920   C.2       1 RES1   0.0000
    17 C16     10.3763   1.4911   9.8649   C.3       1 RES1   0.0000
    18 C17      8.5652   3.1222   9.2133   C.2       1 RES1   0.0000
    19 C18      7.4071   3.5092   9.7547   C.2       1 RES1   0.0000
    20 C19      7.1586   4.2695  14.4019   C.2       1 RES1   0.0000
    21 C20      7.2937   5.4009  15.1345   C.2       1 RES1   0.0000
    22 C21      6.2142   7.6740  15.0794   C.3       1 RES1   0.0000
    23 C22      5.7095   5.6627  13.6368   C.2       1 RES1   0.0000
    24 C23      4.5565   6.3104  12.9155   C.3       1 RES1   0.0000
    25 C24      4.3748   5.8517  11.5150   C.2       1 RES1   0.0000
    26 C25      3.5651   8.0861  10.6640   C.3       1 RES1   0.0000
    27 C26      3.7409   5.9177   9.4175   C.2       1 RES1   0.0000
    28 C27      4.1602   4.6770   9.7158   C.2       1 RES1   0.0000
    29 N1       3.5309   2.8775  13.3240   N.2       1 RES1   0.0000
    30 N2       4.3045   1.5594  10.8261   N.2       1 RES1   0.0000
    31 N3       6.2819   1.2805  13.2567   N.2       1 RES1   0.0000
    32 N4       7.1939   2.8206  10.9425   N.2       1 RES1   0.0000
    33 N5       6.1585   4.4369  13.4677   N.2       1 RES1   0.0000
    34 N6       4.5508   4.6304  11.0360   N.2       1 RES1   0.0000
    35 N7       1.4346   2.5428  13.9091   N.pl3     1 RES1   0.0000
    36 N8       2.6719   0.4701   9.8293   N.pl3     1 RES1   0.0000
    37 N9       7.7976   0.0205  14.2576   N.pl3     1 RES1   0.0000
    38 N10      9.1101   2.1888  10.0465   N.pl3     1 RES1   0.0000
    39 N11      6.3727   6.2865  14.6460   N.pl3     1 RES1   0.0000
    40 N12      3.8772   6.6678  10.5489   N.pl3     1 RES1   0.0000
    41 H1       4.0775   3.4443  15.2512   H         1 RES1   0.0000
    42 H2       1.7430   3.0243  15.9174   H         1 RES1   0.0000
    43 H3      -0.2039   1.9669  12.9398   H         1 RES1   0.0000
    44 H4      -0.1619   1.4638  14.4067   H         1 RES1   0.0000
    45 H5      -0.5030   2.9458  14.1052   H         1 RES1   0.0000
    46 H6       1.1524   1.7449  11.4631   H         1 RES1   0.0000
    47 H7       1.8663   3.0448  11.0109   H         1 RES1   0.0000
    48 H8       1.4014  -0.6602   8.7821   H         1 RES1   0.0000
    49 H9       0.9005  -0.3585  10.2183   H         1 RES1   0.0000
    50 H10      0.8233   0.7376   9.1242   H         1 RES1   0.0000
    51 H11      3.9411  -0.6704   8.6282   H         1 RES1   0.0000
    52 H12      5.7620   0.5395   9.7596   H         1 RES1   0.0000
    53 H13      4.8265   0.8013  14.6596   H         1 RES1   0.0000
    54 H14      6.5035  -0.5987  15.7878   H         1 RES1   0.0000
    55 H15      9.7068  -0.3904  13.8994   H         1 RES1   0.0000
    56 H16      9.3745  -0.3346  15.4133   H         1 RES1   0.0000
    57 H17      8.9515  -1.5662  14.5704   H         1 RES1   0.0000
    58 H18      9.3315   1.5446  12.6805   H         1 RES1   0.0000
    59 H19      8.8839   0.3164  11.8457   H         1 RES1   0.0000
    60 H20     10.7800   1.7768   9.0545   H         1 RES1   0.0000
    61 H21     10.9515   1.6880  10.5927   H         1 RES1   0.0000
    62 H22     10.2180   0.5555   9.8276   H         1 RES1   0.0000
    63 H23      8.9422   3.4398   8.3996   H         1 RES1   0.0000
    64 H24      6.8193   4.1534   9.3835   H         1 RES1   0.0000
    65 H25      7.6726   3.4807  14.5234   H         1 RES1   0.0000
    66 H26      7.9121   5.5478  15.8396   H         1 RES1   0.0000
    67 H27      5.5051   8.0781  14.5931   H         1 RES1   0.0000
    68 H28      6.0098   7.6922  16.0082   H         1 RES1   0.0000
    69 H29      7.0204   8.1487  14.9238   H         1 RES1   0.0000
    70 H30      4.7066   7.2495  12.9025   H         1 RES1   0.0000
    71 H31      3.7603   6.1226  13.3953   H         1 RES1   0.0000
    72 H32      3.2265   8.4013   9.8325   H         1 RES1   0.0000
    73 H33      4.3505   8.5653  10.8910   H         1 RES1   0.0000
    74 H34      2.9086   8.2113  11.3383   H         1 RES1   0.0000
    75 H35      3.4126   6.2159   8.5763   H         1 RES1   0.0000
    76 H36      4.1833   3.9429   9.1096   H         1 RES1   0.0000
    77 C28     12.8863   2.1854  13.3920   C.3       2 RES2   0.0000
    78 O1      12.2169   4.3299  14.6272   O.2       2 RES2   0.0000
    79 O2      10.8491   3.5832  12.7907   O.3       2 RES2  -1.0000
    80 O3      10.8493   2.3846  14.8768   O.2       2 RES2   0.0000
    81 S1      11.5467   3.2438  13.9911   S.o2      2 RES2   0.0000
    82 F1      13.6525   2.8240  12.5216   F         2 RES2   0.0000
    83 F2      13.6864   1.7916  14.3921   F         2 RES2   0.0000
    84 F3      12.4323   1.1086  12.7907   F         2 RES2   0.0000
    85 C29      1.8393  -1.2919  13.8443   C.3       3 RES3   0.0000
    86 O4       2.7757  -3.0573  15.3923   O.2       3 RES3   0.0000
    87 O5       1.5450  -3.7994  13.4437   O.3       3 RES3  -1.0000
    88 O6       0.4090  -2.7921  15.2901   O.2       3 RES3   0.0000
    89 S2       1.6177  -2.9195  14.5792   S.o2      3 RES3   0.0000
    90 F4       2.9976  -1.2566  13.1521   F         3 RES3   0.0000
    91 F5       1.9126  -0.3415  14.7325   F         3 RES3   0.0000
    92 F6       0.8695  -1.0301  12.9819   F         3 RES3   0.0000
@<TRIPOS>BOND
     1     1    29    1
     2     2     3    2
     3     3    35    1
     4     4    35    1
     5     5     6    1
     6     6     7    1
     7     7    30    2
     8     8    36    1
     9     9    10    2
    10    10    30    1
    11    11    12    2
    12    12    37    1
    13    13    37    1
    14    14    15    1
    15    15    16    1
    16    16    32    2
    17    17    38    1
    18    18    19    2
    19    19    32    1
    20    20    21    2
    21    21    39    1
    22    22    39    1
    23    23    24    1
    24    24    25    1
    25    25    34    2
    26    26    40    1
    27    27    28    2
    28    28    34    1
    29    29     2    1
    30    30     1    1
    31    31     1    1
    32    32     1    1
    33    33     1    1
    34    34     1    1
    35    35     5    1
    36    36     7    1
    37    37    14    1
    38    38    16    1
    39    39    23    1
    40    40    25    1
    41    41     2    1
    42    42     3    1
    43    43     4    1
    44    44     4    1
    45    45     4    1
    46    46     6    1
    47    47     6    1
    48    48     8    1
    49    49     8    1
    50    50     8    1
    51    51     9    1
    52    52    10    1
    53    53    11    1
    54    54    12    1
    55    55    13    1
    56    56    13    1
    57    57    13    1
    58    58    15    1
    59    59    15    1
    60    60    17    1
    61    61    17    1
    62    62    17    1
    63    63    18    1
    64    64    19    1
    65    65    20    1
    66    66    21    1
    67    67    22    1
    68    68    22    1
    69    69    22    1
    70    70    24    1
    71    71    24    1
    72    72    26    1
    73    73    26    1
    74    74    26    1
    75    75    27    1
    76    76    28    1
    77     5    29    2
    78     9    36    1
    79    11    31    1
    80    14    31    2
    81    18    38    1
    82    20    33    1
    83    23    33    2
    84    27    40    1
    85    77    81    1
    86    78    81    2
    87    79    81    1
    88    80    81    2
    89    82    77    1
    90    83    77    1
    91    84    77    1
    92    85    89    1
    93    86    89    2
    94    87    89    1
    95    88    89    2
    96    90    85    1
    97    91    85    1
    98    92    85    1
@<TRIPOS>SUBSTRUCTURE
     1 RES1        1 GROUP             0 ****  ****    0  
     2 RES2       77 GROUP             0 ****  ****    0  
     3 RES3       85 GROUP             0 ****  ****    0  
@<TRIPOS>CRYSIN
   20.5632   11.3824   16.2092   90.0000   90.0470   90.0000    14     1
