@<TRIPOS>MOLECULE
WEPTUI
   123   131     5     0     0
SMALL
USER_CHARGES
****
Generated from the CSD

@<TRIPOS>ATOM
     1 Fe1      3.7465   5.7329  10.9518   Fe        1 RES1   1.0000
     2 P1       3.0770   3.7461  10.2745   P.3       1 RES1   0.0000
     3 P2       3.2063   5.6730  13.1020   P.3       1 RES1   0.0000
     4 O1       6.4844   4.8702  11.5540   O.2       1 RES1   0.0000
     5 N1       4.2076   6.2740   9.1033   N.2       1 RES1   0.0000
     6 N2       3.3652   7.6798  11.0761   N.3       1 RES1   0.0000
     7 H1       3.4205   8.2018  11.9215   H         1 RES1   0.0000
     8 C1       3.9890   8.5017   9.9956   C.3       1 RES1   0.0000
     9 H2       4.5174   9.2393  10.3900   H         1 RES1   0.0000
    10 H3       3.2869   8.8924   9.4166   H         1 RES1   0.0000
    11 C2       4.8858   7.5907   9.1859   C.3       1 RES1   0.0000
    12 H4       5.0251   7.9636   8.2795   H         1 RES1   0.0000
    13 H5       5.7664   7.4967   9.6280   H         1 RES1   0.0000
    14 C3       4.0018   5.8133   7.9313   C.2       1 RES1   0.0000
    15 H6       4.3738   6.3129   7.2154   H         1 RES1   0.0000
    16 C4       3.2656   4.6158   7.5622   C.ar      1 RES1   0.0000
    17 C5       3.0302   4.4721   6.1855   C.ar      1 RES1   0.0000
    18 H7       3.4051   5.0984   5.5782   H         1 RES1   0.0000
    19 C6       2.2641   3.4352   5.7033   C.ar      1 RES1   0.0000
    20 H8       2.0981   3.3585   4.7701   H         1 RES1   0.0000
    21 C7       1.7374   2.5092   6.5754   C.ar      1 RES1   0.0000
    22 H9       1.2066   1.7930   6.2480   H         1 RES1   0.0000
    23 C8       1.9900   2.6309   7.9417   C.ar      1 RES1   0.0000
    24 H10      1.6291   1.9837   8.5370   H         1 RES1   0.0000
    25 C9       2.7544   3.6717   8.4596   C.ar      1 RES1   0.0000
    26 C10      2.1556   6.9574  10.8067   C.3       1 RES1   0.0000
    27 H11      1.7829   7.1490   9.9271   H         1 RES1   0.0000
    28 C11      1.1523   6.9539  11.9215   C.ar      1 RES1   0.0000
    29 C12     -0.1347   7.4666  11.7964   C.ar      1 RES1   0.0000
    30 H12     -0.4138   7.8293  10.9645   H         1 RES1   0.0000
    31 C13     -1.0162   7.4592  12.8606   C.ar      1 RES1   0.0000
    32 H13     -1.8916   7.8150  12.7549   H         1 RES1   0.0000
    33 C14     -0.6222   6.9315  14.0855   C.ar      1 RES1   0.0000
    34 H14     -1.2183   6.9403  14.8267   H         1 RES1   0.0000
    35 C15      0.6515   6.3915  14.2179   C.ar      1 RES1   0.0000
    36 H15      0.9198   6.0205  15.0514   H         1 RES1   0.0000
    37 C16      1.5353   6.3869  13.1508   C.ar      1 RES1   0.0000
    38 C17      5.4155   5.2235  11.3068   C.1       1 RES1   0.0000
    39 C18      4.3246   2.4282  10.4927   C.ar      1 RES1   0.0000
    40 C19      5.2075   2.1319   9.4836   C.ar      1 RES1   0.0000
    41 H16      5.1211   2.5598   8.6397   H         1 RES1   0.0000
    42 C20      6.2279   1.2078   9.6934   C.ar      1 RES1   0.0000
    43 H17      6.8467   1.0251   8.9954   H         1 RES1   0.0000
    44 C21      0.1763   1.1509  11.6982   C.ar      1 RES1   0.0000
    45 H18      0.0966   0.2396  11.9527   H         1 RES1   0.0000
    46 C22      6.3513   0.5559  10.9064   C.ar      1 RES1   0.0000
    47 H19      7.0170  -0.1109  11.0285   H         1 RES1   0.0000
    48 C23      5.5067   0.8797  11.9244   C.ar      1 RES1   0.0000
    49 H20      5.5918   0.4501  12.7668   H         1 RES1   0.0000
    50 C24      4.5320   1.8270  11.7310   C.ar      1 RES1   0.0000
    51 H21      3.9843   2.0811  12.4647   H         1 RES1   0.0000
    52 C25      1.5296   2.9807  10.8796   C.ar      1 RES1   0.0000
    53 C26      0.3947   3.7953  10.9392   C.ar      1 RES1   0.0000
    54 H22      0.4583   4.7038  10.6698   H         1 RES1   0.0000
    55 C27     -0.8266   3.2980  11.3872   C.ar      1 RES1   0.0000
    56 H23     -1.5903   3.8619  11.4184   H         1 RES1   0.0000
    57 C28     -0.9214   1.9792  11.7845   C.ar      1 RES1   0.0000
    58 H24     -1.7455   1.6420  12.1164   H         1 RES1   0.0000
    59 C29      1.3893   1.6279  11.2487   C.ar      1 RES1   0.0000
    60 H25      2.1340   1.0408  11.1862   H         1 RES1   0.0000
    61 C30      4.1997   6.7964  14.1748   C.ar      1 RES1   0.0000
    62 C31      5.4002   7.3571  13.7357   C.ar      1 RES1   0.0000
    63 H26      5.7040   7.1890  12.8502   H         1 RES1   0.0000
    64 C32      6.1565   8.1617  14.5885   C.ar      1 RES1   0.0000
    65 H27      6.9840   8.5228  14.2924   H         1 RES1   0.0000
    66 C33      5.7008   8.4317  15.8596   C.ar      1 RES1   0.0000
    67 H28      6.2098   8.9911  16.4341   H         1 RES1   0.0000
    68 C34      4.5115   7.8991  16.3031   C.ar      1 RES1   0.0000
    69 H29      4.2019   8.0942  17.1797   H         1 RES1   0.0000
    70 C35      3.7688   7.0804  15.4741   C.ar      1 RES1   0.0000
    71 H30      2.9551   6.7060  15.7911   H         1 RES1   0.0000
    72 C36      3.1594   4.1702  14.1301   C.ar      1 RES1   0.0000
    73 C37      2.0750   3.3016  14.0885   C.ar      1 RES1   0.0000
    74 H31      1.2971   3.5351  13.5958   H         1 RES1   0.0000
    75 C38      2.1290   2.0896  14.7686   C.ar      1 RES1   0.0000
    76 H32      1.3927   1.4913  14.7225   H         1 RES1   0.0000
    77 C39      3.2485   1.7458  15.5113   C.ar      1 RES1   0.0000
    78 H33      3.2799   0.9125  15.9652   H         1 RES1   0.0000
    79 C40      4.3144   2.6182  15.5887   C.ar      1 RES1   0.0000
    80 H34      5.0730   2.3941  16.1156   H         1 RES1   0.0000
    81 C41      4.2788   3.8223  14.8966   C.ar      1 RES1   0.0000
    82 H35      5.0203   4.4151  14.9442   H         1 RES1   0.0000
    83 F1       5.3203   8.5284   3.4723   F         2 RES2   0.0000
    84 F2       5.7528   6.4895   4.0661   F         2 RES2   0.0000
    85 F3       3.6522   7.1689   4.0066   F         2 RES2   0.0000
    86 F4       5.0790   7.9233   5.6065   F         2 RES2   0.0000
    87 B1       4.9210   7.5845   4.2953   B         2 RES2  -1.0000
    88 C42      1.3234  11.4044  11.5792   C.ar      3 RES3   0.0000
    89 H36      0.5978  11.6791  11.0314   H         3 RES3   0.0000
    90 C43      1.0993  10.5495  12.6522   C.ar      3 RES3   0.0000
    91 H37      0.2210  10.2389  12.8368   H         3 RES3   0.0000
    92 C44      2.1608  10.1482  13.4544   C.ar      3 RES3   0.0000
    93 H38      2.0083   9.5645  14.1882   H         3 RES3   0.0000
    94 C45      3.4465  10.6034  13.1851   C.ar      3 RES3   0.0000
    95 H39      4.1721  10.3289  13.7342   H         3 RES3   0.0000
    96 C46      3.6706  11.4582  12.1120   C.ar      3 RES3   0.0000
    97 H40      4.5489  11.7689  11.9274   H         3 RES3   0.0000
    98 C47      2.6091  11.8596  11.3098   C.ar      3 RES3   0.0000
    99 H41      2.7616  12.4432  10.5760   H         3 RES3   0.0000
   100 C48      8.6857   3.8366   8.2706   C.ar      4 RES4   0.0000
   101 H42      9.1479   3.1876   8.7885   H         4 RES4   0.0000
   102 C49      8.1122   3.4784   7.0561   C.ar      4 RES4   0.0000
   103 H43      8.1836   2.5842   6.7436   H         4 RES4   0.0000
   104 C50      7.4369   4.4278   6.3001   C.ar      4 RES4   0.0000
   105 H44      7.0449   4.1827   5.4696   H         4 RES4   0.0000
   106 C51      7.3328   5.7370   6.7585   C.ar      4 RES4   0.0000
   107 H45      6.8706   6.3860   6.2405   H         4 RES4   0.0000
   108 C52      7.9063   6.0952   7.9729   C.ar      4 RES4   0.0000
   109 H46      7.8350   6.9894   8.2855   H         4 RES4   0.0000
   110 C53      8.5827   5.1443   8.7290   C.ar      4 RES4   0.0000
   111 H47      8.9736   5.3895   9.5595   H         4 RES4   0.0000
   112 C54      1.3298   7.7331   6.5590   C.ar      5 RES5   0.0000
   113 H48      1.7439   7.1399   5.9429   H         5 RES5   0.0000
   114 C55      1.8764   8.9620   6.7987   C.ar      5 RES5   0.0000
   115 H49      2.6735   9.2229   6.3522   H         5 RES5   0.0000
   116 C56      0.1839   7.3614   7.2079   C.ar      5 RES5   0.0000
   117 H50     -0.1947   6.5053   7.0427   H         5 RES5   0.0000
   118 C54A     0.1304   9.4366   8.3242   C.ar      5 RES5   0.0000
   119 H48A    -0.2837  10.0299   8.9404   H         5 RES5   0.0000
   120 C55A    -0.4163   8.2078   8.0846   C.ar      5 RES5   0.0000
   121 H49A    -1.2133   7.9468   8.5311   H         5 RES5   0.0000
   122 C56A     1.2763   9.8083   7.6753   C.ar      5 RES5   0.0000
   123 H50A     1.6549  10.6645   7.8405   H         5 RES5   0.0000
@<TRIPOS>BOND
     1     1     2    1
     2     2    25    1
     3     3     1    1
     4     4    38    3
     5     5     1    1
     6     6     1    1
     7     7     6    1
     8     8     6    1
     9     9     8    1
    10    10     8    1
    11    11     5    1
    12    12    11    1
    13    13    11    1
    14    14     5    2
    15    15    14    1
    16    16    14    1
    17    17    16   ar
    18    18    17    1
    19    19    17   ar
    20    20    19    1
    21    21    19   ar
    22    22    21    1
    23    23    21   ar
    24    24    23    1
    25    25    16   ar
    26    26     1    1
    27    27    26    1
    28    28    26    1
    29    29    28   ar
    30    30    29    1
    31    31    29   ar
    32    32    31    1
    33    33    31   ar
    34    34    33    1
    35    35    33   ar
    36    36    35    1
    37    37     3    1
    38    38     1    1
    39    39     2    1
    40    40    39   ar
    41    41    40    1
    42    42    40   ar
    43    43    42    1
    44    44    45    1
    45    46    42   ar
    46    47    46    1
    47    48    46   ar
    48    49    48    1
    49    50    39   ar
    50    51    50    1
    51    52     2    1
    52    53    52   ar
    53    54    53    1
    54    55    53   ar
    55    56    55    1
    56    57    44   ar
    57    58    57    1
    58    59    44   ar
    59    60    59    1
    60    61     3    1
    61    62    61   ar
    62    63    62    1
    63    64    62   ar
    64    65    64    1
    65    66    64   ar
    66    67    66    1
    67    68    66   ar
    68    69    68    1
    69    70    61   ar
    70    71    70    1
    71    72     3    1
    72    73    72   ar
    73    74    73    1
    74    75    73   ar
    75    76    75    1
    76    77    75   ar
    77    78    77    1
    78    79    77   ar
    79    80    79    1
    80    81    72   ar
    81    82    81    1
    82     6    26    1
    83     8    11    1
    84    23    25   ar
    85    28    37   ar
    86    35    37   ar
    87    48    50   ar
    88    52    59   ar
    89    55    57   ar
    90    68    70   ar
    91    79    81   ar
    92    83    87    1
    93    84    87    1
    94    85    87    1
    95    86    87    1
    96    88    89    1
    97    90    88   ar
    98    91    90    1
    99    92    90   ar
   100    93    92    1
   101    94    92   ar
   102    95    94    1
   103    96    94   ar
   104    97    96    1
   105    98    88   ar
   106    99    98    1
   107    96    98   ar
   108   100   101    1
   109   102   100   ar
   110   103   102    1
   111   104   102   ar
   112   105   104    1
   113   106   104   ar
   114   107   106    1
   115   108   106   ar
   116   109   108    1
   117   110   100   ar
   118   111   110    1
   119   108   110   ar
   120   112   113    1
   121   114   112   ar
   122   115   114    1
   123   116   112   ar
   124   117   116    1
   125   118   119    1
   126   120   116   ar
   127   121   120    1
   128   122   114   ar
   129   123   122    1
   130   118   120   ar
   131   118   122   ar
@<TRIPOS>SUBSTRUCTURE
     1 RES1        1 GROUP             0 ****  ****    0  
     2 RES2       83 GROUP             0 ****  ****    0  
     3 RES3       88 GROUP             0 ****  ****    0  
     4 RES4      100 GROUP             0 ****  ****    0  
     5 RES5      112 GROUP             0 ****  ****    0  
@<TRIPOS>CRYSIN
   11.2394   14.3881   15.1528   79.1850   88.7320   85.5160     2     1
