@<TRIPOS>MOLECULE
WERBOK
    79    89     2     0     0
SMALL
USER_CHARGES
****
Generated from the CSD

@<TRIPOS>ATOM
     1 Fe1      6.1878   3.0882   4.2406   Fe        1 RES1   2.0000
     2 N1       7.2575   3.3270   5.9214   N.ar      1 RES1   0.0000
     3 N2       5.5269   1.4939   5.2027   N.ar      1 RES1   0.0000
     4 C1       8.1502   4.2736   6.2209   C.ar      1 RES1   0.0000
     5 C2       8.9211   4.2402   7.4024   C.ar      1 RES1   0.0000
     6 C3       8.7097   3.2093   8.2663   C.ar      1 RES1   0.0000
     7 C4       7.8367   2.1984   7.9788   C.ar      1 RES1   0.0000
     8 C5       7.5382   1.0522   8.8397   C.ar      1 RES1   0.0000
     9 C6       6.6027   0.1239   8.4554   C.ar      1 RES1   0.0000
    10 C7       5.8759   0.2177   7.2678   C.ar      1 RES1   0.0000
    11 C8       4.8986  -0.6828   6.8427   C.ar      1 RES1   0.0000
    12 C9       4.2385  -0.4773   5.6445   C.ar      1 RES1   0.0000
    13 C10      4.6118   0.6140   4.8412   C.ar      1 RES1   0.0000
    14 C11      6.1525   1.3077   6.3979   C.ar      1 RES1   0.0000
    15 C12      7.1146   2.2705   6.7867   C.ar      1 RES1   0.0000
    16 N3       4.6635   4.1619   4.8578   N.ar      1 RES1   0.0000
    17 N4       5.0049   2.7383   2.6687   N.ar      1 RES1   0.0000
    18 C13      4.4655   4.8125   5.9985   C.ar      1 RES1   0.0000
    19 C14      3.3611   5.5329   6.2602   C.ar      1 RES1   0.0000
    20 C15      2.3219   5.6029   5.3722   C.ar      1 RES1   0.0000
    21 C16      2.4196   4.8780   4.1604   C.ar      1 RES1   0.0000
    22 C17      1.3805   4.8210   3.1483   C.ar      1 RES1   0.0000
    23 C18      1.5909   4.0192   2.0651   C.ar      1 RES1   0.0000
    24 C19      2.7646   3.2780   1.8200   C.ar      1 RES1   0.0000
    25 C20      3.0011   2.4180   0.7640   C.ar      1 RES1   0.0000
    26 C21      4.1787   1.7653   0.6445   C.ar      1 RES1   0.0000
    27 C22      5.2028   1.9656   1.6127   C.ar      1 RES1   0.0000
    28 C23      3.8157   3.3768   2.7973   C.ar      1 RES1   0.0000
    29 C24      3.6139   4.1907   3.9743   C.ar      1 RES1   0.0000
    30 N5       7.0659   4.6763   3.3994   N.ar      1 RES1   0.0000
    31 N6       7.6876   2.1220   3.3752   N.ar      1 RES1   0.0000
    32 C25      6.7993   5.9502   3.4811   C.ar      1 RES1   0.0000
    33 C26      7.5359   6.9605   2.8835   C.ar      1 RES1   0.0000
    34 C27      8.6152   6.6330   2.1301   C.ar      1 RES1   0.0000
    35 C28      8.9526   5.2631   2.0439   C.ar      1 RES1   0.0000
    36 C29     10.1270   4.7790   1.2996   C.ar      1 RES1   0.0000
    37 C30     10.3881   3.5005   1.2602   C.ar      1 RES1   0.0000
    38 C31      9.5929   2.4999   1.9486   C.ar      1 RES1   0.0000
    39 C32      9.8617   1.1241   1.9002   C.ar      1 RES1   0.0000
    40 C33      9.0375   0.2812   2.6566   C.ar      1 RES1   0.0000
    41 C34      7.9735   0.8442   3.3616   C.ar      1 RES1   0.0000
    42 C35      8.4838   2.9708   2.6445   C.ar      1 RES1   0.0000
    43 C36      8.1431   4.3457   2.6732   C.ar      1 RES1   0.0000
    44 H1       8.2765   5.0347   5.5840   H         1 RES1   0.0000
    45 H2       9.5979   4.9491   7.5976   H         1 RES1   0.0000
    46 H3       9.2083   3.1910   9.1332   H         1 RES1   0.0000
    47 H4       8.0171   0.9454   9.7111   H         1 RES1   0.0000
    48 H5       6.4334  -0.6570   9.0575   H         1 RES1   0.0000
    49 H6       4.6746  -1.4783   7.4055   H         1 RES1   0.0000
    50 H7       3.5072  -1.0959   5.3555   H         1 RES1   0.0000
    51 H8       4.1630   0.7288   3.9531   H         1 RES1   0.0000
    52 H9       5.1749   4.7629   6.7005   H         1 RES1   0.0000
    53 H10      3.2980   6.0313   7.1241   H         1 RES1   0.0000
    54 H11      1.5124   6.1540   5.5749   H         1 RES1   0.0000
    55 H12      0.5382   5.3511   3.2421   H         1 RES1   0.0000
    56 H13      0.8543   3.9530   1.3903   H         1 RES1   0.0000
    57 H14      2.2881   2.2751   0.0772   H         1 RES1   0.0000
    58 H15      4.3306   1.1420  -0.1225   H         1 RES1   0.0000
    59 H16      6.0891   1.5167   1.4917   H         1 RES1   0.0000
    60 H17      5.9989   6.2191   4.0167   H         1 RES1   0.0000
    61 H18      7.2740   7.9182   3.0045   H         1 RES1   0.0000
    62 H19      9.1522   7.3319   1.6566   H         1 RES1   0.0000
    63 H20     10.7243   5.4279   0.8275   H         1 RES1   0.0000
    64 H21     11.1768   3.1943   0.7277   H         1 RES1   0.0000
    65 H22     10.6125   0.7593   1.3495   H         1 RES1   0.0000
    66 H23      9.2074  -0.7039   2.6899   H         1 RES1   0.0000
    67 H24      7.3905   0.2313   3.8941   H         1 RES1   0.0000
    68 I1      11.1028   5.9544  10.0651   I         2 RES2  -1.0000
    69 I2      12.9954   4.2080   8.9804   I         2 RES2   0.0000
    70 I3      15.1118   2.2963   7.8215   I         2 RES2   0.0000
    71 I4      17.2323   3.0472   9.7973   I         2 RES2   0.0000
    72 I5      19.3447   3.5451  11.6672   I         2 RES2   0.0000
    73 I6      17.8074   5.5035  13.9047   I         2 RES2   0.0000
    74 I7      16.6200   7.2906  15.5991   I         2 RES2   0.0000
    75 I8      15.5859   9.8837  17.8276   I         2 RES2   0.0000
    76 I9      12.8302  10.4584  17.2845   I         2 RES2   0.0000
    77 I10      9.9631  11.0129  16.7913   I         2 RES2   0.0000
    78 I11      9.3646  13.3531  18.9078   I         2 RES2   0.0000
    79 I12      8.3218  15.4755  20.2996   I         2 RES2  -1.0000
@<TRIPOS>BOND
     1     1     2    1
     2     2     4   ar
     3     3     1    1
     4     4     5   ar
     5     5     6   ar
     6     6     7   ar
     7     7     8   ar
     8     8     9   ar
     9     9    10   ar
    10    10    11   ar
    11    11    12   ar
    12    12    13   ar
    13    13     3   ar
    14    14     3   ar
    15    15     2   ar
    16    16     1    1
    17    17     1    1
    18    18    16   ar
    19    19    18   ar
    20    20    19   ar
    21    21    20   ar
    22    22    21   ar
    23    23    22   ar
    24    24    23   ar
    25    25    24   ar
    26    26    25   ar
    27    27    17   ar
    28    28    17   ar
    29    29    16   ar
    30    30     1    1
    31    31     1    1
    32    32    30   ar
    33    33    32   ar
    34    34    33   ar
    35    35    34   ar
    36    36    35   ar
    37    37    36   ar
    38    38    37   ar
    39    39    38   ar
    40    40    39   ar
    41    41    31   ar
    42    42    31   ar
    43    43    30   ar
    44    44     4    1
    45    45     5    1
    46    46     6    1
    47    47     8    1
    48    48     9    1
    49    49    11    1
    50    50    12    1
    51    51    13    1
    52    52    18    1
    53    53    19    1
    54    54    20    1
    55    55    22    1
    56    56    23    1
    57    57    25    1
    58    58    26    1
    59    59    27    1
    60    60    32    1
    61    61    33    1
    62    62    34    1
    63    63    36    1
    64    64    37    1
    65    65    39    1
    66    66    40    1
    67    67    41    1
    68     7    15   ar
    69    10    14   ar
    70    14    15   ar
    71    21    29   ar
    72    24    28   ar
    73    26    27   ar
    74    28    29   ar
    75    35    43   ar
    76    38    42   ar
    77    40    41   ar
    78    42    43   ar
    79    68    69    1
    80    69    70    1
    81    70    71    1
    82    71    72    1
    83    72    73    1
    84    73    74    1
    85    74    75    1
    86    75    76    1
    87    76    77    1
    88    77    78    1
    89    78    79    1
@<TRIPOS>SUBSTRUCTURE
     1 RES1        1 GROUP             0 ****  ****    0  
     2 RES2       68 GROUP             0 ****  ****    0  
@<TRIPOS>CRYSIN
   12.7960   13.9920   15.5740   85.5600   76.3100   66.3700     2     1
