@<TRIPOS>MOLECULE
WERBUQ
    79    88     3     0     0
SMALL
USER_CHARGES
****
Generated from the CSD

@<TRIPOS>ATOM
     1 Fe1      7.8512   4.7054   3.8817   Fe        1 RES1   2.0000
     2 N1       9.0347   5.3895   5.3135   N.ar      1 RES1   0.0000
     3 N2       7.0605   3.6788   5.3704   N.ar      1 RES1   0.0000
     4 C1      10.0453   6.2606   5.2627   C.ar      1 RES1   0.0000
     5 C2      10.7537   6.6567   6.3900   C.ar      1 RES1   0.0000
     6 C3      10.4212   6.1644   7.6388   C.ar      1 RES1   0.0000
     7 C4       9.3337   5.2604   7.7280   C.ar      1 RES1   0.0000
     8 C5       8.8783   4.6998   8.9444   C.ar      1 RES1   0.0000
     9 C6       7.8849   3.8260   8.9783   C.ar      1 RES1   0.0000
    10 C7       7.2060   3.3968   7.7956   C.ar      1 RES1   0.0000
    11 C8       6.1858   2.4748   7.7310   C.ar      1 RES1   0.0000
    12 C9       5.6389   2.1234   6.5192   C.ar      1 RES1   0.0000
    13 C10      6.0829   2.7804   5.3473   C.ar      1 RES1   0.0000
    14 C11      7.6249   3.9710   6.5745   C.ar      1 RES1   0.0000
    15 C12      8.7040   4.8974   6.5515   C.ar      1 RES1   0.0000
    16 N3       9.0062   3.1708   3.4357   N.ar      1 RES1   0.0000
    17 N4       6.6944   3.9100   2.4976   N.ar      1 RES1   0.0000
    18 C13     10.1698   2.8057   3.9693   C.ar      1 RES1   0.0000
    19 C14     10.8581   1.6541   3.5403   C.ar      1 RES1   0.0000
    20 C15     10.3663   0.8709   2.5498   C.ar      1 RES1   0.0000
    21 C16      9.1264   1.2404   1.9516   C.ar      1 RES1   0.0000
    22 C17      8.4841   0.5438   0.8674   C.ar      1 RES1   0.0000
    23 C18      7.3087   0.9604   0.3460   C.ar      1 RES1   0.0000
    24 C19      6.6505   2.0969   0.8551   C.ar      1 RES1   0.0000
    25 C20      5.4377   2.5803   0.3891   C.ar      1 RES1   0.0000
    26 C21      4.8577   3.6756   0.9858   C.ar      1 RES1   0.0000
    27 C22      5.5047   4.3139   2.0423   C.ar      1 RES1   0.0000
    28 C23      7.2493   2.8046   1.9193   C.ar      1 RES1   0.0000
    29 C24      8.4943   2.3877   2.4453   C.ar      1 RES1   0.0000
    30 N5       8.6512   5.8844   2.5083   N.ar      1 RES1   0.0000
    31 N6       6.6447   6.2489   4.1523   N.ar      1 RES1   0.0000
    32 C25      9.6459   5.6576   1.6932   C.ar      1 RES1   0.0000
    33 C26     10.1266   6.5979   0.7551   C.ar      1 RES1   0.0000
    34 C27      9.5077   7.8060   0.7074   C.ar      1 RES1   0.0000
    35 C28      8.4122   8.1241   1.5825   C.ar      1 RES1   0.0000
    36 C29      7.7105   9.3399   1.5948   C.ar      1 RES1   0.0000
    37 C30      6.6128   9.5298   2.4268   C.ar      1 RES1   0.0000
    38 C31      6.1876   8.4695   3.3142   C.ar      1 RES1   0.0000
    39 C32      5.1181   8.5853   4.1785   C.ar      1 RES1   0.0000
    40 C33      4.8306   7.5511   5.0059   C.ar      1 RES1   0.0000
    41 C34      5.6245   6.3867   4.9874   C.ar      1 RES1   0.0000
    42 C35      6.9210   7.2831   3.3249   C.ar      1 RES1   0.0000
    43 C36      8.0202   7.1160   2.4437   C.ar      1 RES1   0.0000
    44 H1      10.3024   6.6425   4.3753   H         1 RES1   0.0000
    45 H2      11.5100   7.3045   6.2977   H         1 RES1   0.0000
    46 H3      10.9326   6.4381   8.4539   H         1 RES1   0.0000
    47 H4       9.3189   4.9708   9.8011   H         1 RES1   0.0000
    48 H5       7.6001   3.4531   9.8610   H         1 RES1   0.0000
    49 H6       5.8407   2.0562   8.5723   H         1 RES1   0.0000
    50 H7       4.9363   1.4144   6.4669   H         1 RES1   0.0000
    51 H8       5.6470   2.5595   4.4738   H         1 RES1   0.0000
    52 H9      10.5665   3.3657   4.6968   H         1 RES1   0.0000
    53 H10     11.7246   1.4092   3.9739   H         1 RES1   0.0000
    54 H11     10.8615   0.0579   2.2469   H         1 RES1   0.0000
    55 H12      8.9205  -0.2721   0.4891   H         1 RES1   0.0000
    56 H13      6.9002   0.4540  -0.4137   H         1 RES1   0.0000
    57 H14      4.9832   2.1328  -0.3814   H         1 RES1   0.0000
    58 H15      3.9743   4.0125   0.6613   H         1 RES1   0.0000
    59 H16      5.0638   5.1007   2.4745   H         1 RES1   0.0000
    60 H17     10.0936   4.7637   1.7348   H         1 RES1   0.0000
    61 H18     10.8932   6.3830   0.1507   H         1 RES1   0.0000
    62 H19      9.8190   8.4884   0.0461   H         1 RES1   0.0000
    63 H20      8.0051  10.0829   0.9935   H         1 RES1   0.0000
    64 H21      6.1168  10.3976   2.4099   H         1 RES1   0.0000
    65 H22      4.5659   9.4190   4.1954   H         1 RES1   0.0000
    66 H23      4.0520   7.6125   5.6303   H         1 RES1   0.0000
    67 H24      5.4127   5.6433   5.6226   H         1 RES1   0.0000
    68 I1       1.5257   9.1394   8.7983   I         2 RES2  -1.0000
    69 I2       2.9237  10.5612   6.9482   I         2 RES2   0.0000
    70 I3       4.6679  12.4746   4.7875   I         2 RES2   0.0000
    71 I4       6.1105  13.6539   6.8760   I         2 RES2   0.0000
    72 I5       7.5113  15.2395   9.0736   I         2 RES2   0.0000
    73 I6       7.3251  13.4432  11.5312   I         2 RES2   0.0000
    74 I7       7.0424  11.7143  13.7135   I         2 RES2   0.0000
    75 I8      15.0974  11.8296   0.4368   I         3 RES3  -1.0000
    76 I9      13.0514  11.0761   2.2238   I         3 RES3   0.0000
    77 I10     10.7328  10.2505   4.0278   I         3 RES3   0.0000
    78 I11      9.1061  12.8787   3.5556   I         3 RES3   0.0000
    79 I12      7.7966  15.3088   3.2065   I         3 RES3   0.0000
@<TRIPOS>BOND
     1     1     2    1
     2     2     4   ar
     3     3     1    1
     4     4     5   ar
     5     5     6   ar
     6     6     7   ar
     7     7     8   ar
     8     8     9   ar
     9     9    10   ar
    10    10    11   ar
    11    11    12   ar
    12    12    13   ar
    13    13     3   ar
    14    14     3   ar
    15    15     2   ar
    16    16     1    1
    17    17     1    1
    18    18    16   ar
    19    19    18   ar
    20    20    19   ar
    21    21    20   ar
    22    22    21   ar
    23    23    22   ar
    24    24    23   ar
    25    25    24   ar
    26    26    25   ar
    27    27    17   ar
    28    28    17   ar
    29    29    16   ar
    30    30     1    1
    31    31     1    1
    32    32    30   ar
    33    33    32   ar
    34    34    33   ar
    35    35    34   ar
    36    36    35   ar
    37    37    36   ar
    38    38    37   ar
    39    39    38   ar
    40    40    39   ar
    41    41    31   ar
    42    42    31   ar
    43    43    30   ar
    44    44     4    1
    45    45     5    1
    46    46     6    1
    47    47     8    1
    48    48     9    1
    49    49    11    1
    50    50    12    1
    51    51    13    1
    52    52    18    1
    53    53    19    1
    54    54    20    1
    55    55    22    1
    56    56    23    1
    57    57    25    1
    58    58    26    1
    59    59    27    1
    60    60    32    1
    61    61    33    1
    62    62    34    1
    63    63    36    1
    64    64    37    1
    65    65    39    1
    66    66    40    1
    67    67    41    1
    68     7    15   ar
    69    10    14   ar
    70    14    15   ar
    71    21    29   ar
    72    24    28   ar
    73    26    27   ar
    74    28    29   ar
    75    35    43   ar
    76    38    42   ar
    77    40    41   ar
    78    42    43   ar
    79    68    69    1
    80    69    70    1
    81    70    71    1
    82    71    72    1
    83    72    73    1
    84    73    74    1
    85    75    76    1
    86    76    77    1
    87    77    78    1
    88    78    79    1
@<TRIPOS>SUBSTRUCTURE
     1 RES1        1 GROUP             0 ****  ****    0  
     2 RES2       68 GROUP             0 ****  ****    0  
     3 RES3       75 GROUP             0 ****  ****    0  
@<TRIPOS>CRYSIN
   11.2190   15.3100   16.6870   71.9200   71.8500   73.5200     2     1
