@<TRIPOS>MOLECULE
WEVJOA
    75    82     1     0     0
SMALL
NO_CHARGES
****
Generated from the CSD

@<TRIPOS>ATOM
     1 Fe1      7.0432   7.0432   6.2246   Fe        1 RES1   0.0000
     2 S1      11.7215   6.8503   5.6532   S.2       1 RES1   0.0000
     3 N1       6.7139   7.2016   4.2738   N.ar      1 RES1   0.0000
     4 N2       5.0831   7.0950   6.2047   N.2       1 RES1   0.0000
     5 N3       8.9898   7.0460   6.0603   N.2       1 RES1   0.0000
     6 C1       7.6526   7.2575   3.2928   C.ar      1 RES1   0.0000
     7 H1       8.5549   7.2019   3.5116   H         1 RES1   0.0000
     8 C2       7.2698   7.3974   1.9620   C.ar      1 RES1   0.0000
     9 H2       7.9188   7.4107   1.2962   H         1 RES1   0.0000
    10 C3       5.9605   7.5145   1.6234   C.ar      1 RES1   0.0000
    11 H3       5.7156   7.6623   0.7391   H         1 RES1   0.0000
    12 C4       5.0079   7.4114   2.5944   C.ar      1 RES1   0.0000
    13 H4       4.1040   7.4215   2.3759   H         1 RES1   0.0000
    14 C5       5.4292   7.2855   3.9464   C.ar      1 RES1   0.0000
    15 C6       4.4940   7.1998   5.0506   C.2       1 RES1   0.0000
    16 C7       3.0292   7.2942   4.8178   C.ar      1 RES1   0.0000
    17 C8       2.3772   8.4794   4.8975   C.ar      1 RES1   0.0000
    18 H5       2.8486   9.2380   5.1580   H         1 RES1   0.0000
    19 C9       1.0680   8.5877   4.6099   C.ar      1 RES1   0.0000
    20 H6       0.6445   9.4133   4.6676   H         1 RES1   0.0000
    21 C10      0.3601   7.4760   4.2315   C.ar      1 RES1   0.0000
    22 H7      -0.5519   7.5319   4.0582   H         1 RES1   0.0000
    23 C11      0.9911   6.3311   4.1170   C.ar      1 RES1   0.0000
    24 H8       0.5168   5.5807   3.8396   H         1 RES1   0.0000
    25 C12      2.3440   6.2070   4.3995   C.ar      1 RES1   0.0000
    26 H9       2.7722   5.3878   4.3019   H         1 RES1   0.0000
    27 C13      4.2947   7.0985   7.4384   C.ar      1 RES1   0.0000
    28 C14      4.1234   8.2189   8.1119   C.ar      1 RES1   0.0000
    29 H10      4.4152   9.0301   7.7635   H         1 RES1   0.0000
    30 C15      3.4854   8.1630   9.3842   C.ar      1 RES1   0.0000
    31 H11      3.3768   8.9405   9.8827   H         1 RES1   0.0000
    32 C16      3.0327   6.9796   9.8722   C.ar      1 RES1   0.0000
    33 H12      2.5887   6.9447  10.6885   H         1 RES1   0.0000
    34 C17      3.2267   5.9133   9.1888   C.ar      1 RES1   0.0000
    35 H13      2.9454   5.1057   9.5562   H         1 RES1   0.0000
    36 C18      3.8350   5.8819   7.9227   C.ar      1 RES1   0.0000
    37 H14      3.9231   5.0933   7.4370   H         1 RES1   0.0000
    38 C19     10.1050   6.9499   5.9084   C.1       1 RES1   0.0000
    39 S1F      6.8503  11.7215   6.7960   S.2       1 RES1   0.0000
    40 N1F      7.2016   6.7139   8.1754   N.ar      1 RES1   0.0000
    41 N2F      7.0950   5.0831   6.2445   N.2       1 RES1   0.0000
    42 N3F      7.0460   8.9898   6.3889   N.2       1 RES1   0.0000
    43 C1F      7.2575   7.6526   9.1564   C.ar      1 RES1   0.0000
    44 H1F      7.2019   8.5549   8.9376   H         1 RES1   0.0000
    45 C2F      7.3974   7.2698  10.4872   C.ar      1 RES1   0.0000
    46 H2F      7.4107   7.9188  11.1530   H         1 RES1   0.0000
    47 C3F      7.5145   5.9605  10.8258   C.ar      1 RES1   0.0000
    48 H3F      7.6623   5.7156  11.7101   H         1 RES1   0.0000
    49 C4F      7.4114   5.0079   9.8548   C.ar      1 RES1   0.0000
    50 H4F      7.4215   4.1040  10.0733   H         1 RES1   0.0000
    51 C5F      7.2855   5.4292   8.5028   C.ar      1 RES1   0.0000
    52 C6F      7.1998   4.4940   7.3986   C.2       1 RES1   0.0000
    53 C7F      7.2942   3.0292   7.6314   C.ar      1 RES1   0.0000
    54 C8F      8.4794   2.3772   7.5517   C.ar      1 RES1   0.0000
    55 H5F      9.2380   2.8486   7.2912   H         1 RES1   0.0000
    56 C9F      8.5877   1.0680   7.8393   C.ar      1 RES1   0.0000
    57 H6F      9.4133   0.6445   7.7816   H         1 RES1   0.0000
    58 C10F     7.4760   0.3601   8.2177   C.ar      1 RES1   0.0000
    59 H7F      7.5319  -0.5519   8.3910   H         1 RES1   0.0000
    60 C11F     6.3311   0.9911   8.3322   C.ar      1 RES1   0.0000
    61 H8F      5.5807   0.5168   8.6096   H         1 RES1   0.0000
    62 C12F     6.2070   2.3440   8.0497   C.ar      1 RES1   0.0000
    63 H9F      5.3878   2.7722   8.1473   H         1 RES1   0.0000
    64 C13F     7.0985   4.2947   5.0108   C.ar      1 RES1   0.0000
    65 C14F     8.2189   4.1234   4.3373   C.ar      1 RES1   0.0000
    66 H10F     9.0301   4.4152   4.6857   H         1 RES1   0.0000
    67 C15F     8.1630   3.4854   3.0650   C.ar      1 RES1   0.0000
    68 H11F     8.9405   3.3768   2.5665   H         1 RES1   0.0000
    69 C16F     6.9796   3.0327   2.5770   C.ar      1 RES1   0.0000
    70 H12F     6.9447   2.5887   1.7607   H         1 RES1   0.0000
    71 C17F     5.9133   3.2267   3.2604   C.ar      1 RES1   0.0000
    72 H13F     5.1057   2.9454   2.8930   H         1 RES1   0.0000
    73 C18F     5.8819   3.8350   4.5265   C.ar      1 RES1   0.0000
    74 H14F     5.0933   3.9231   5.0122   H         1 RES1   0.0000
    75 C19F     6.9499  10.1050   6.5408   C.1       1 RES1   0.0000
@<TRIPOS>BOND
     1     1     3    1
     2     2    38    2
     3     3     6   ar
     4     4     1    1
     5     5     1    1
     6     6     7    1
     7     8     6   ar
     8     9     8    1
     9    10     8   ar
    10    11    10    1
    11    12    10   ar
    12    13    12    1
    13    14     3   ar
    14    15     4    2
    15    16    15    1
    16    17    16   ar
    17    18    17    1
    18    19    17   ar
    19    20    19    1
    20    21    19   ar
    21    22    21    1
    22    23    21   ar
    23    24    23    1
    24    25    16   ar
    25    26    25    1
    26    27     4    1
    27    28    27   ar
    28    29    28    1
    29    30    28   ar
    30    31    30    1
    31    32    30   ar
    32    33    32    1
    33    34    32   ar
    34    35    34    1
    35    36    27   ar
    36    37    36    1
    37    38     5    2
    38    39    75    2
    39    40     1    1
    40    41     1    1
    41    42     1    1
    42    43    40   ar
    43    44    43    1
    44    45    43   ar
    45    46    45    1
    46    47    45   ar
    47    48    47    1
    48    49    47   ar
    49    50    49    1
    50    51    40   ar
    51    52    41    2
    52    53    52    1
    53    54    53   ar
    54    55    54    1
    55    56    54   ar
    56    57    56    1
    57    58    56   ar
    58    59    58    1
    59    60    58   ar
    60    61    60    1
    61    62    53   ar
    62    63    62    1
    63    64    41    1
    64    65    64   ar
    65    66    65    1
    66    67    65   ar
    67    68    67    1
    68    69    67   ar
    69    70    69    1
    70    71    69   ar
    71    72    71    1
    72    73    64   ar
    73    74    73    1
    74    75    42    2
    75    12    14   ar
    76    14    15    1
    77    23    25   ar
    78    34    36   ar
    79    49    51   ar
    80    51    52    1
    81    60    62   ar
    82    71    73   ar
@<TRIPOS>SUBSTRUCTURE
     1 RES1        1 GROUP             0 ****  ****    0  
@<TRIPOS>CRYSIN
   17.4796   17.4796   12.4492   90.0000   90.0000   90.0000    96     1
