@<TRIPOS>MOLECULE
WEVXAA
   105   112     3     0     0
SMALL
USER_CHARGES
****
Generated from the CSD

@<TRIPOS>ATOM
     1 Fe1      8.7035   7.8219  13.4797   Fe        1 RES1   1.0000
     2 N1      11.4945   7.3519  14.0435   N.pl3     1 RES1   0.0000
     3 N2      11.5159   9.2029  12.9711   N.pl3     1 RES1   0.0000
     4 N3       9.0418   6.1564  10.7986   N.pl3     1 RES1   0.0000
     5 N4       8.2378   8.1179  10.6466   N.pl3     1 RES1   0.0000
     6 N5       7.7157  10.2731  14.6386   N.pl3     1 RES1   0.0000
     7 N6       8.3913   9.1371  16.3231   N.pl3     1 RES1   0.0000
     8 N7       5.7480   6.8491  14.0071   N.pl3     1 RES1   0.0000
     9 N8       7.3491   5.5804  14.6707   N.pl3     1 RES1   0.0000
    10 C1       9.4958   6.2992  14.3988   C.ar      1 RES1   0.0000
    11 C2      10.8647   6.2110  14.5915   C.ar      1 RES1   0.0000
    12 C3      11.4590   5.1533  15.2550   C.ar      1 RES1   0.0000
    13 H1      12.4004   5.1104  15.3715   H         1 RES1   0.0000
    14 C4      10.6208   4.1477  15.7495   C.ar      1 RES1   0.0000
    15 H2      11.0079   3.4055  16.1988   H         1 RES1   0.0000
    16 C5       9.2375   4.1986  15.6018   C.ar      1 RES1   0.0000
    17 H3       8.6783   3.5169  15.9546   H         1 RES1   0.0000
    18 C6       8.7043   5.2886  14.9190   C.ar      1 RES1   0.0000
    19 C7       6.1652   4.9609  15.0816   C.2       1 RES1   0.0000
    20 H4       6.0852   4.1491  15.5675   H         1 RES1   0.0000
    21 C8       5.1796   5.7281  14.6578   C.2       1 RES1   0.0000
    22 H5       4.2525   5.5578  14.7679   H         1 RES1   0.0000
    23 C9       7.0880   6.7486  14.0178   C.3       1 RES1   0.0000
    24 C10      8.3060   9.0627  14.9660   C.3       1 RES1   0.0000
    25 C11      7.8890  10.3401  16.8026   C.2       1 RES1   0.0000
    26 H6       7.8646  10.6138  17.7112   H         1 RES1   0.0000
    27 C12      7.4498  11.0415  15.7602   C.2       1 RES1   0.0000
    28 H7       7.0351  11.8966  15.7826   H         1 RES1   0.0000
    29 C13      7.4956  10.4742  13.2473   C.ar      1 RES1   0.0000
    30 C14      6.9785  11.5952  12.6073   C.ar      1 RES1   0.0000
    31 H8       6.7001  12.3591  13.0974   H         1 RES1   0.0000
    32 C15      6.8846  11.5543  11.2138   C.ar      1 RES1   0.0000
    33 H9       6.5348  12.3099  10.7570   H         1 RES1   0.0000
    34 C16      7.2860  10.4494  10.4711   C.ar      1 RES1   0.0000
    35 H10      7.2201  10.4430   9.5235   H         1 RES1   0.0000
    36 C17      7.7884   9.3432  11.1710   C.ar      1 RES1   0.0000
    37 C18      7.9215   9.3395  12.5431   C.ar      1 RES1   0.0000
    38 C19      8.2782   7.6114   9.3581   C.2       1 RES1   0.0000
    39 H11      7.9958   8.0519   8.5650   H         1 RES1   0.0000
    40 C20      8.7978   6.3749   9.4480   C.2       1 RES1   0.0000
    41 H12      8.9627   5.7719   8.7339   H         1 RES1   0.0000
    42 C21      8.7207   7.2327  11.5713   C.3       1 RES1   0.0000
    43 C22     12.8228   7.7206  13.9643   C.2       1 RES1   0.0000
    44 H13     13.5707   7.2494  14.3113   H         1 RES1   0.0000
    45 C23     12.8377   8.8802  13.2965   C.2       1 RES1   0.0000
    46 H14     13.6088   9.3920  13.0825   H         1 RES1   0.0000
    47 C24     10.6617   8.2520  13.4356   C.3       1 RES1   0.0000
    48 C25     11.1222  10.4332  12.3012   C.3       1 RES1   0.0000
    49 H15     10.3399  10.2510  11.7222   H         1 RES1   0.0000
    50 H16     11.8645  10.7380  11.7208   H         1 RES1   0.0000
    51 C26     10.7700  11.5419  13.2836   C.3       1 RES1   0.0000
    52 H17     10.0628  11.2163  13.8973   H         1 RES1   0.0000
    53 H18     11.5674  11.7558  13.8296   H         1 RES1   0.0000
    54 C27     10.2878  12.7982  12.6008   C.3       1 RES1   0.0000
    55 H19     11.0294  13.1874  12.0736   H         1 RES1   0.0000
    56 H20      9.5555  12.5697  11.9757   H         1 RES1   0.0000
    57 C28      9.7925  13.8249  13.5940   C.3       1 RES1   0.0000
    58 H21      9.0835  13.4303  14.1456   H         1 RES1   0.0000
    59 H22      9.4372  14.6008  13.1131   H         1 RES1   0.0000
    60 H23     10.5332  14.1076  14.1698   H         1 RES1   0.0000
    61 C29      8.9510   8.0769  17.1921   C.3       1 RES1   0.0000
    62 H24      9.5503   8.4870  17.8642   H         1 RES1   0.0000
    63 H25      9.4886   7.4535  16.6427   H         1 RES1   0.0000
    64 C30      7.8545   7.2973  17.9070   C.3       1 RES1   0.0000
    65 H26      7.2652   6.8726  17.2342   H         1 RES1   0.0000
    66 H27      7.3052   7.9235  18.4417   H         1 RES1   0.0000
    67 C31      8.4308   6.2234  18.8231   C.3       1 RES1   0.0000
    68 H28      9.0326   5.6387  18.2970   H         1 RES1   0.0000
    69 H29      8.9705   6.6567  19.5301   H         1 RES1   0.0000
    70 C32      7.3539   5.3743  19.4696   C.3       1 RES1   0.0000
    71 H30      6.6952   5.9562  19.9033   H         1 RES1   0.0000
    72 H31      7.7600   4.7847  20.1383   H         1 RES1   0.0000
    73 H32      6.9089   4.8326  18.7839   H         1 RES1   0.0000
    74 C33      9.7063   4.9485  11.2930   C.3       1 RES1   0.0000
    75 H33      9.4343   4.1751  10.7378   H         1 RES1   0.0000
    76 H34      9.4170   4.7733  12.2231   H         1 RES1   0.0000
    77 C34     11.2219   5.0863  11.2545   C.3       1 RES1   0.0000
    78 H35     11.4899   5.8597  11.8112   H         1 RES1   0.0000
    79 H36     11.5063   5.2691  10.3246   H         1 RES1   0.0000
    80 C35     11.9443   3.8386  11.7575   C.3       1 RES1   0.0000
    81 H37     11.6041   3.6032  12.6581   H         1 RES1   0.0000
    82 H38     11.7521   3.0805  11.1512   H         1 RES1   0.0000
    83 C36     13.4494   4.0621  11.8281   C.3       1 RES1   0.0000
    84 H39     13.7686   4.4099  10.9702   H         1 RES1   0.0000
    85 H40     13.8970   3.2118  12.0234   H         1 RES1   0.0000
    86 H41     13.6513   4.7070  12.5383   H         1 RES1   0.0000
    87 C37      4.9603   7.9106  13.4057   C.3       1 RES1   0.0000
    88 H42      5.4147   8.7761  13.5640   H         1 RES1   0.0000
    89 H43      4.0777   7.9477  13.8522   H         1 RES1   0.0000
    90 C38      4.7498   7.7331  11.9159   C.3       1 RES1   0.0000
    91 H44      5.6299   7.6343  11.4733   H         1 RES1   0.0000
    92 H45      4.2370   6.9005  11.7582   H         1 RES1   0.0000
    93 C39      4.0137   8.8876  11.2909   C.3       1 RES1   0.0000
    94 H46      4.4813   9.7299  11.5194   H         1 RES1   0.0000
    95 H47      3.1020   8.9348  11.6750   H         1 RES1   0.0000
    96 C40      3.9066   8.7746   9.7669   C.3       1 RES1   0.0000
    97 H48      4.8058   8.7629   9.3776   H         1 RES1   0.0000
    98 H49      3.4083   9.5416   9.4169   H         1 RES1   0.0000
    99 H50      3.4387   7.9459   9.5339   H         1 RES1   0.0000
   100 Cl1      1.2291   8.0136  14.8500   Cl        2 RES2  -1.0000
   101 C41      3.4481   7.9180  17.4040   C.3       3 RES3   0.0000
   102 H51      2.9271   8.3507  18.1268   H         3 RES3   0.0000
   103 H52      2.8429   7.7786  16.6335   H         3 RES3   0.0000
   104 Cl2      4.7747   8.9807  16.9226   Cl        3 RES3   0.0000
   105 Cl3      4.0400   6.3550  17.9700   Cl        3 RES3   0.0000
@<TRIPOS>BOND
     1     1    10    1
     2     2    11    1
     3     3    45    1
     4     4    40    1
     5     5    36    1
     6     6    24    1
     7     7    24    1
     8     8    21    1
     9     9    18    1
    10    10    11   ar
    11    11    12   ar
    12    12    13    1
    13    14    12   ar
    14    15    14    1
    15    16    14   ar
    16    17    16    1
    17    18    10   ar
    18    19     9    1
    19    20    19    1
    20    21    19    2
    21    22    21    1
    22    23     1    1
    23    24     1    1
    24    25     7    1
    25    26    25    1
    26    27     6    1
    27    28    27    1
    28    29     6    1
    29    30    29   ar
    30    31    30    1
    31    32    30   ar
    32    33    32    1
    33    34    32   ar
    34    35    34    1
    35    36    34   ar
    36    37     1    1
    37    38     5    1
    38    39    38    1
    39    40    38    2
    40    41    40    1
    41    42     1    1
    42    43     2    1
    43    44    43    1
    44    45    43    2
    45    46    45    1
    46    47     1    1
    47    48     3    1
    48    49    48    1
    49    50    48    1
    50    51    48    1
    51    52    51    1
    52    53    51    1
    53    54    51    1
    54    55    54    1
    55    56    54    1
    56    57    54    1
    57    58    57    1
    58    59    57    1
    59    60    57    1
    60    61     7    1
    61    62    61    1
    62    63    61    1
    63    64    61    1
    64    65    64    1
    65    66    64    1
    66    67    64    1
    67    68    67    1
    68    69    67    1
    69    70    67    1
    70    71    70    1
    71    72    70    1
    72    73    70    1
    73    74     4    1
    74    75    74    1
    75    76    74    1
    76    77    74    1
    77    78    77    1
    78    79    77    1
    79    80    77    1
    80    81    80    1
    81    82    80    1
    82    83    80    1
    83    84    83    1
    84    85    83    1
    85    86    83    1
    86    87     8    1
    87    88    87    1
    88    89    87    1
    89    90    87    1
    90    91    90    1
    91    92    90    1
    92    93    90    1
    93    94    93    1
    94    95    93    1
    95    96    93    1
    96    97    96    1
    97    98    96    1
    98    99    96    1
    99     2    47    1
   100     3    47    1
   101     4    42    1
   102     5    42    1
   103     8    23    1
   104     9    23    1
   105    16    18   ar
   106    25    27    2
   107    29    37   ar
   108    36    37   ar
   109   101   102    1
   110   103   101    1
   111   104   101    1
   112   105   101    1
@<TRIPOS>SUBSTRUCTURE
     1 RES1        1 GROUP             0 ****  ****    0  
     2 RES2      100 GROUP             0 ****  ****    0  
     3 RES3      101 GROUP             0 ****  ****    0  
@<TRIPOS>CRYSIN
   14.9816   12.4146   21.9151   90.0000  102.3920   90.0000    14     1
