@<TRIPOS>MOLECULE
WEYWEC
    77    86     3     0     0
SMALL
USER_CHARGES
****
Generated from the CSD

@<TRIPOS>ATOM
     1 Fe1      3.6581   1.3559   2.4015   Fe        1 RES1   2.0000
     2 S1      -0.8198   1.1820   1.5737   S.3       1 RES1   0.0000
     3 N1       3.6415   2.6853   0.6907   N.ar      1 RES1   0.0000
     4 N2       1.7282   1.2866   1.7643   N.2       1 RES1   0.0000
     5 N3       0.6244  -0.1600   3.3314   N.2       1 RES1  -1.0000
     6 N4       2.4089  -2.0162   5.7881   N.ar      1 RES1   0.0000
     7 N5       2.9949  -0.1046   3.8046   N.ar      1 RES1   0.0000
     8 C1       4.6898   3.3304   0.1723   C.ar      1 RES1   0.0000
     9 C2       4.5936   4.1810  -0.9349   C.ar      1 RES1   0.0000
    10 C3       3.3695   4.3310  -1.5152   C.ar      1 RES1   0.0000
    11 C4       2.2786   3.6833  -1.0034   C.ar      1 RES1   0.0000
    12 C5       2.4339   2.8579   0.1087   C.ar      1 RES1   0.0000
    13 C6       1.3504   2.1384   0.7325   C.2       1 RES1   0.0000
    14 C7       0.0206   2.1800   0.5067   C.2       1 RES1   0.0000
    15 C8       0.6868   0.6880   2.3263   C.2       1 RES1   0.0000
    16 C9       1.7175  -0.5431   4.0036   C.ar      1 RES1   0.0000
    17 C10      1.4958  -1.4894   5.0439   C.ar      1 RES1   0.0000
    18 C11      3.6728  -1.6104   5.5355   C.ar      1 RES1   0.0000
    19 C12      3.9454  -0.6805   4.5840   C.ar      1 RES1   0.0000
    20 S2       7.9759   1.9746   3.7428   S.3       1 RES1   0.0000
    21 N6       3.3074   3.0898   3.6591   N.ar      1 RES1   0.0000
    22 N7       5.5030   1.8208   3.0972   N.2       1 RES1   0.0000
    23 N8       6.9205   0.1159   2.1707   N.2       1 RES1  -1.0000
    24 N9       5.6904  -2.1699  -0.3094   N.ar      1 RES1   0.0000
    25 N10      4.6820  -0.0832   1.2760   N.ar      1 RES1   0.0000
    26 C13      2.1183   3.6908   3.8899   C.ar      1 RES1   0.0000
    27 C14      1.9938   4.8312   4.6458   C.ar      1 RES1   0.0000
    28 C15      3.1319   5.3970   5.1843   C.ar      1 RES1   0.0000
    29 C16      4.3542   4.8060   4.9669   C.ar      1 RES1   0.0000
    30 C17      4.4066   3.6543   4.1993   C.ar      1 RES1   0.0000
    31 C18      5.6460   2.9285   3.9167   C.2       1 RES1   0.0000
    32 C19      6.8961   3.1654   4.3582   C.2       1 RES1   0.0000
    33 C20      6.6586   1.1845   2.8949   C.2       1 RES1   0.0000
    34 C21      5.9865  -0.4473   1.3713   C.ar      1 RES1   0.0000
    35 C22      6.4325  -1.5285   0.5435   C.ar      1 RES1   0.0000
    36 C23      4.4257  -1.7629  -0.3997   C.ar      1 RES1   0.0000
    37 C24      3.9362  -0.7712   0.3763   C.ar      1 RES1   0.0000
    38 H1       5.5868   3.1994   0.5954   H         1 RES1   0.0000
    39 H2       5.3961   4.6611  -1.2860   H         1 RES1   0.0000
    40 H3       3.2654   4.9194  -2.3179   H         1 RES1   0.0000
    41 H4       1.3796   3.8005  -1.4215   H         1 RES1   0.0000
    42 H5      -0.4124   2.7294  -0.2074   H         1 RES1   0.0000
    43 H6       0.5544  -1.7704   5.2128   H         1 RES1   0.0000
    44 H7       4.4261  -2.0036   6.0607   H         1 RES1   0.0000
    45 H8       4.8959  -0.4045   4.4502   H         1 RES1   0.0000
    46 H9       1.2937   3.2901   3.4919   H         1 RES1   0.0000
    47 H10      1.0976   5.2420   4.8081   H         1 RES1   0.0000
    48 H11      3.0692   6.2350   5.7262   H         1 RES1   0.0000
    49 H12      5.1854   5.1979   5.3566   H         1 RES1   0.0000
    50 H13      7.1582   3.9227   4.9552   H         1 RES1   0.0000
    51 H14      7.3864  -1.8108   0.6271   H         1 RES1   0.0000
    52 H15      3.8156  -2.2039  -1.0586   H         1 RES1   0.0000
    53 H16      2.9727  -0.5280   0.2810   H         1 RES1   0.0000
    54 C25      6.2909   0.1789   9.6378   C.ar      2 RES2   0.0000
    55 C26      7.0023   1.1732   9.0475   C.ar      2 RES2   0.0000
    56 C27      6.0734  -0.9993   8.9304   C.ar      2 RES2   0.0000
    57 H17      5.9368   0.3012  10.5643   H         2 RES2   0.0000
    58 H18      7.1747   2.0250   9.5375   H         2 RES2   0.0000
    59 H19      5.5483  -1.7276   9.3686   H         2 RES2   0.0000
    60 C27B     7.4839   0.9993   7.7932   C.ar      2 RES2   0.0000
    61 C26B     6.5549  -1.1732   7.6762   C.ar      2 RES2   0.0000
    62 C25B     7.2664  -0.1789   7.0858   C.ar      2 RES2   0.0000
    63 H19B     8.0089   1.7276   7.3551   H         2 RES2   0.0000
    64 H18B     6.3826  -2.0250   7.1862   H         2 RES2   0.0000
    65 H17B     7.6204  -0.3012   6.1593   H         2 RES2   0.0000
    66 C28     13.4339   0.8859   6.0623   C.ar      3 RES3   0.0000
    67 C29     12.8834   1.8788   5.4770   C.ar      3 RES3   0.0000
    68 C30     11.7215   2.3413   5.8700   C.ar      3 RES3   0.0000
    69 C31     11.1156   1.8221   6.8550   C.ar      3 RES3   0.0000
    70 C32     11.7081   0.8065   7.4922   C.ar      3 RES3   0.0000
    71 C33     12.8183   0.3012   7.0373   C.ar      3 RES3   0.0000
    72 H20     14.3362   0.5544   5.7864   H         3 RES3   0.0000
    73 H21     13.3576   2.2984   4.7060   H         3 RES3   0.0000
    74 H22     11.3224   3.1162   5.3850   H         3 RES3   0.0000
    75 H23     10.2238   2.1812   7.1293   H         3 RES3   0.0000
    76 H24     11.2355   0.4259   8.2799   H         3 RES3   0.0000
    77 H25     13.1804  -0.5166   7.4822   H         3 RES3   0.0000
@<TRIPOS>BOND
     1     1     3    1
     2     2    14    1
     3     3     8   ar
     4     4     1    1
     5     5    15    1
     6     6    17   ar
     7     7     1    1
     8     8     9   ar
     9     9    10   ar
    10    10    11   ar
    11    11    12   ar
    12    12     3   ar
    13    13     4    1
    14    14    13    2
    15    15     2    1
    16    16     5    1
    17    17    16   ar
    18    18     6   ar
    19    19     7   ar
    20    20    32    1
    21    21     1    1
    22    22     1    1
    23    23    33    1
    24    24    35   ar
    25    25     1    1
    26    26    21   ar
    27    27    26   ar
    28    28    27   ar
    29    29    28   ar
    30    30    21   ar
    31    31    22    1
    32    32    31    2
    33    33    20    1
    34    34    23    1
    35    35    34   ar
    36    36    24   ar
    37    37    25   ar
    38    38     8    1
    39    39     9    1
    40    40    10    1
    41    41    11    1
    42    42    14    1
    43    43    17    1
    44    44    18    1
    45    45    19    1
    46    46    26    1
    47    47    27    1
    48    48    28    1
    49    49    29    1
    50    50    32    1
    51    51    35    1
    52    52    36    1
    53    53    37    1
    54     4    15    2
    55     7    16   ar
    56    12    13    1
    57    18    19   ar
    58    22    33    2
    59    25    34   ar
    60    29    30   ar
    61    30    31    1
    62    36    37   ar
    63    54    55   ar
    64    55    58    1
    65    56    54   ar
    66    57    54    1
    67    59    56    1
    68    60    55   ar
    69    61    56   ar
    70    62    60   ar
    71    63    60    1
    72    64    61    1
    73    65    62    1
    74    61    62   ar
    75    66    67   ar
    76    67    68   ar
    77    68    69   ar
    78    69    70   ar
    79    70    71   ar
    80    71    66   ar
    81    72    66    1
    82    73    67    1
    83    74    68    1
    84    75    69    1
    85    76    70    1
    86    77    71    1
@<TRIPOS>SUBSTRUCTURE
     1 RES1        1 GROUP             0 ****  ****    0  
     2 RES2       54 GROUP             0 ****  ****    0  
     3 RES3       66 GROUP             0 ****  ****    0  
@<TRIPOS>CRYSIN
   14.8940   12.6010   16.7770   90.0000   94.5700   90.0000    14     1
