@<TRIPOS>MOLECULE
WEZRAW
    89    96     5     0     0
SMALL
USER_CHARGES
****
Generated from the CSD

@<TRIPOS>ATOM
     1 Fe1     10.9201  14.0504   1.3246   Fe        1 RES1   2.0000
     2 O1      13.3689  12.9373   7.1085   O.2       1 RES1   0.0000
     3 O2      13.3869  15.6659   6.9833   O.2       1 RES1   0.0000
     4 O3       5.4056  16.7794  -0.3121   O.2       1 RES1   0.0000
     5 O4       7.2254  18.2301  -1.7658   O.2       1 RES1   0.0000
     6 O5      12.8535  10.0246  -3.2401   O.2       1 RES1   0.0000
     7 O6      15.2039  10.9653  -2.2422   O.2       1 RES1   0.0000
     8 N1      11.2520  12.8438   2.8582   N.ar      1 RES1   0.0000
     9 N2      11.3543  15.4109   2.6857   N.ar      1 RES1   0.0000
    10 N3       9.0149  14.3838   1.6447   N.ar      1 RES1   0.0000
    11 N4      10.6426  15.3896  -0.0945   N.ar      1 RES1   0.0000
    12 N5      10.5528  12.6327  -0.0021   N.ar      1 RES1   0.0000
    13 N6      12.7886  13.6853   0.7782   N.ar      1 RES1   0.0000
    14 C1      11.1415  11.4979   2.9157   C.ar      1 RES1   0.0000
    15 H1      10.7628  11.0559   2.1909   H         1 RES1   0.0000
    16 C2      11.5560  10.7542   3.9793   C.ar      1 RES1   0.0000
    17 H2      11.4192   9.8347   3.9834   H         1 RES1   0.0000
    18 C3      12.1681  11.3520   5.0265   C.ar      1 RES1   0.0000
    19 H3      12.5011  10.8491   5.7349   H         1 RES1   0.0000
    20 C4      12.2870  12.7687   5.0162   C.ar      1 RES1   0.0000
    21 C5      12.8798  13.5167   6.1435   C.2       1 RES1   0.0000
    22 C6      12.9005  15.0482   6.0819   C.2       1 RES1   0.0000
    23 C7      12.3035  15.7070   4.8889   C.ar      1 RES1   0.0000
    24 C8      12.1640  17.0415   4.7760   C.ar      1 RES1   0.0000
    25 H4      12.4321  17.5954   5.4741   H         1 RES1   0.0000
    26 C9      11.6292  17.5897   3.6384   C.ar      1 RES1   0.0000
    27 H5      11.5284  18.5106   3.5563   H         1 RES1   0.0000
    28 C10     11.2437  16.7496   2.6200   C.ar      1 RES1   0.0000
    29 H6      10.8900  17.1265   1.8480   H         1 RES1   0.0000
    30 C11     11.8462  14.9051   3.8335   C.ar      1 RES1   0.0000
    31 C12     11.8089  13.4473   3.9321   C.ar      1 RES1   0.0000
    32 C13      8.2093  13.8582   2.5872   C.ar      1 RES1   0.0000
    33 H7       8.5713  13.2561   3.1970   H         1 RES1   0.0000
    34 C14      6.8786  14.1713   2.6857   C.ar      1 RES1   0.0000
    35 H8       6.3535  13.7802   3.3448   H         1 RES1   0.0000
    36 C15      6.3300  15.0595   1.8069   C.ar      1 RES1   0.0000
    37 H9       5.4319  15.2947   1.8685   H         1 RES1   0.0000
    38 C16      7.1273  15.6007   0.8295   C.ar      1 RES1   0.0000
    39 C17      6.5732  16.5853  -0.1725   C.2       1 RES1   0.0000
    40 C18      7.6013  17.3050  -1.0780   C.2       1 RES1   0.0000
    41 C19      9.0080  16.8502  -1.0677   C.ar      1 RES1   0.0000
    42 C20      9.9794  17.3702  -1.9219   C.ar      1 RES1   0.0000
    43 H10      9.7666  18.0502  -2.5194   H         1 RES1   0.0000
    44 C21     11.2161  16.8814  -1.8726   C.ar      1 RES1   0.0000
    45 H11     11.8683  17.1973  -2.4557   H         1 RES1   0.0000
    46 C22     11.5228  15.9053  -0.9548   C.ar      1 RES1   0.0000
    47 H12     12.3961  15.5851  -0.9301   H         1 RES1   0.0000
    48 C23      9.3949  15.8515  -0.1684   C.ar      1 RES1   0.0000
    49 C24      8.4539  15.2706   0.7905   C.ar      1 RES1   0.0000
    50 C25      9.3589  12.1199  -0.3819   C.ar      1 RES1   0.0000
    51 H13      8.5851  12.4188   0.0390   H         1 RES1   0.0000
    52 C26      9.2539  11.1636  -1.3798   C.ar      1 RES1   0.0000
    53 H14      8.4193  10.8236  -1.6118   H         1 RES1   0.0000
    54 C27     10.3801  10.7159  -2.0287   C.ar      1 RES1   0.0000
    55 H15     10.3193  10.0742  -2.7001   H         1 RES1   0.0000
    56 C28     11.5961  11.2358  -1.6652   C.ar      1 RES1   0.0000
    57 C29     12.8466  10.7868  -2.3202   C.2       1 RES1   0.0000
    58 C30     14.1814  11.3492  -1.7966   C.2       1 RES1   0.0000
    59 C31     14.1303  12.4032  -0.7351   C.ar      1 RES1   0.0000
    60 C32     15.2357  12.9741  -0.2341   C.ar      1 RES1   0.0000
    61 H16     16.0703  12.7305  -0.5667   H         1 RES1   0.0000
    62 C33     15.1514  13.9162   0.7659   C.ar      1 RES1   0.0000
    63 H17     15.9156  14.3243   1.1026   H         1 RES1   0.0000
    64 C34     13.9120  14.2350   1.2505   C.ar      1 RES1   0.0000
    65 H18     13.8484  14.8612   1.9342   H         1 RES1   0.0000
    66 C35     12.9019  12.7687  -0.1930   C.ar      1 RES1   0.0000
    67 C36     11.6513  12.1808  -0.6509   C.ar      1 RES1   0.0000
    68 Cl1      9.0480   0.2306   6.2264   Cl        2 RES2   0.0000
    69 O7       9.0660   1.2679   5.2380   O.2       2 RES2   0.0000
    70 O8       8.9195  -1.0370   5.5993   O.2       2 RES2   0.0000
    71 O9      10.2709   0.2692   6.9833   O.3       2 RES2  -1.0000
    72 O10      7.9454   0.4080   7.1167   O.2       2 RES2   0.0000
    73 Cl2      2.5044  14.1538   4.3286   Cl        3 RES3   0.0000
    74 O11      3.4130  14.4319   3.3859   O.2       3 RES3   0.0000
    75 O12      1.5352  15.1332   4.2257   O.2       3 RES3   0.0000
    76 O13      1.8862  12.9940   4.0039   O.2       3 RES3   0.0000
    77 O14      3.0234  14.1925   5.6137   O.3       3 RES3  -1.0000
    78 N7       5.6751  11.5971   8.7019   N.1       4 RES4   0.0000
    79 C37      5.6806  11.7204   7.6157   C.1       4 RES4   0.0000
    80 C38      5.7331  11.8734   6.2236   C.3       4 RES4   0.0000
    81 H19      6.6368  11.7600   5.9217   H         4 RES4   0.0000
    82 H20      5.4236  12.7517   5.9874   H         4 RES4   0.0000
    83 H21      5.1721  11.2146   5.8088   H         4 RES4   0.0000
    84 N8       0.9742   2.1180   9.9626   N.1       5 RES5   0.0000
    85 C39      1.4868   1.3657   9.3651   C.1       5 RES5   0.0000
    86 C40      2.1763   0.3528   8.6115   C.3       5 RES5   0.0000
    87 H22      1.5490  -0.1105   8.0510   H         5 RES5   0.0000
    88 H23      2.5853  -0.2720   9.2152   H         5 RES5   0.0000
    89 H24      2.8520   0.7622   8.0674   H         5 RES5   0.0000
@<TRIPOS>BOND
     1     1     8    1
     2     2    21    2
     3     3    22    2
     4     4    39    2
     5     5    40    2
     6     6    57    2
     7     7    58    2
     8     8    14   ar
     9     9     1    1
    10    10     1    1
    11    11     1    1
    12    12     1    1
    13    13     1    1
    14    14    15    1
    15    16    14   ar
    16    17    16    1
    17    18    16   ar
    18    19    18    1
    19    20    18   ar
    20    21    20    1
    21    22    21    1
    22    23    22    1
    23    24    23   ar
    24    25    24    1
    25    26    24   ar
    26    27    26    1
    27    28     9   ar
    28    29    28    1
    29    30     9   ar
    30    31     8   ar
    31    32    10   ar
    32    33    32    1
    33    34    32   ar
    34    35    34    1
    35    36    34   ar
    36    37    36    1
    37    38    36   ar
    38    39    38    1
    39    40    39    1
    40    41    40    1
    41    42    41   ar
    42    43    42    1
    43    44    42   ar
    44    45    44    1
    45    46    11   ar
    46    47    46    1
    47    48    11   ar
    48    49    10   ar
    49    50    12   ar
    50    51    50    1
    51    52    50   ar
    52    53    52    1
    53    54    52   ar
    54    55    54    1
    55    56    54   ar
    56    57    56    1
    57    58    57    1
    58    59    58    1
    59    60    59   ar
    60    61    60    1
    61    62    60   ar
    62    63    62    1
    63    64    13   ar
    64    65    64    1
    65    66    13   ar
    66    67    12   ar
    67    20    31   ar
    68    23    30   ar
    69    26    28   ar
    70    30    31    1
    71    38    49   ar
    72    41    48   ar
    73    44    46   ar
    74    48    49    1
    75    56    67   ar
    76    59    66   ar
    77    62    64   ar
    78    66    67    1
    79    68    69    2
    80    70    68    2
    81    71    68    1
    82    72    68    2
    83    73    74    2
    84    75    73    2
    85    76    73    2
    86    77    73    1
    87    78    79    3
    88    79    80    1
    89    80    81    1
    90    82    80    1
    91    83    80    1
    92    84    85    3
    93    85    86    1
    94    86    87    1
    95    88    86    1
    96    89    86    1
@<TRIPOS>SUBSTRUCTURE
     1 RES1        1 GROUP             0 ****  ****    0  
     2 RES2       68 GROUP             0 ****  ****    0  
     3 RES3       73 GROUP             0 ****  ****    0  
     4 RES4       78 GROUP             0 ****  ****    0  
     5 RES5       84 GROUP             0 ****  ****    0  
@<TRIPOS>CRYSIN
   13.8180   14.1670   20.5330   90.0000   90.0000   90.0000    19     1
