@<TRIPOS>MOLECULE
WEZVON
    82    87     3     0     0
SMALL
USER_CHARGES
****
Generated from the CSD

@<TRIPOS>ATOM
     1 H1       6.1480  12.3053  13.4682   H         1 RES1   0.0000
     2 Fe1      8.8631  15.2628  14.1042   Fe        1 RES1   1.0000
     3 N1       8.5098  17.3950  14.5521   N.ar      1 RES1   0.0000
     4 N2       8.3777  15.2995  16.2607   N.3       1 RES1   0.0000
     5 N3      10.8636  14.8145  14.8889   N.3       1 RES1   0.0000
     6 N4      10.1765  15.9027  12.5448   N.ar      1 RES1   0.0000
     7 C1       7.9767  10.9178  13.8816   C.ar      1 RES1   0.0000
     8 H2       7.2298  10.3739  13.7674   H         1 RES1   0.0000
     9 C2       7.8824  12.3017  13.7549   C.ar      1 RES1   0.0000
    10 C3      11.7190  15.9433  14.4245   C.3       1 RES1   0.0000
    11 H3      12.6546  15.6990  14.5063   H         1 RES1   0.0000
    12 H4      11.5602  16.7227  14.9800   H         1 RES1   0.0000
    13 C4      10.1403  12.5621  14.1770   C.ar      1 RES1   0.0000
    14 C5      11.9313  17.2095  10.8480   C.ar      1 RES1   0.0000
    15 H5      12.5178  17.6554  10.2813   H         1 RES1   0.0000
    16 C6      11.4061  16.2786  12.9809   C.ar      1 RES1   0.0000
    17 C7       9.1969  10.3810  14.1799   C.ar      1 RES1   0.0000
    18 H6       9.2897   9.4626  14.2819   H         1 RES1   0.0000
    19 C8       9.8432  16.1698  11.2719   C.ar      1 RES1   0.0000
    20 H7       9.0051  15.9041  10.9681   H         1 RES1   0.0000
    21 C9      10.6812  16.8154  10.3992   C.ar      1 RES1   0.0000
    22 H8      10.4155  16.9848   9.5220   H         1 RES1   0.0000
    23 C10     10.2976  11.2192  14.3270   C.ar      1 RES1   0.0000
    24 H9      11.1325  10.8625  14.5267   H         1 RES1   0.0000
    25 C11     12.2914  16.9260  12.1581   C.ar      1 RES1   0.0000
    26 H10     13.1279  17.1756  12.4754   H         1 RES1   0.0000
    27 C12     11.2803  13.5322  14.2660   C.3       1 RES1   0.0000
    28 H11     11.9958  13.1399  14.7896   H         1 RES1   0.0000
    29 H12     11.6231  13.7052  13.3753   H         1 RES1   0.0000
    30 N5       8.9249  13.1263  13.9043   N.ar      1 RES1   0.0000
    31 O1       7.0539  15.0688  13.2535   O.3       1 RES1   0.0000
    32 N6       6.6198  12.8581  13.4616   N.pl3     1 RES1   1.0000
    33 C13      6.2707  14.1065  13.1742   C.2       1 RES1   0.0000
    34 C14      4.8288  14.3954  12.7723   C.3       1 RES1   0.0000
    35 C15      3.9703  13.1470  12.5774   C.3       1 RES1   0.0000
    36 H13      3.8539  12.7047  13.4206   H         1 RES1   0.0000
    37 H14      4.4043  12.5531  11.9609   H         1 RES1   0.0000
    38 H15      3.1133  13.4002  12.2261   H         1 RES1   0.0000
    39 C16      4.2360  15.2763  13.8839   C.3       1 RES1   0.0000
    40 H16      4.7612  16.0753  13.9737   H         1 RES1   0.0000
    41 H17      4.2455  14.7948  14.7148   H         1 RES1   0.0000
    42 H18      3.3335  15.5118  13.6586   H         1 RES1   0.0000
    43 C17      4.8728  15.1693  11.4466   C.3       1 RES1   0.0000
    44 H19      5.2376  14.6076  10.7596   H         1 RES1   0.0000
    45 H20      5.4232  15.9487  11.5484   H         1 RES1   0.0000
    46 H21      3.9829  15.4369  11.2039   H         1 RES1   0.0000
    47 C18      7.7377  17.6019  15.6392   C.ar      1 RES1   0.0000
    48 C19      7.4390  16.4088  16.4941   C.3       1 RES1   0.0000
    49 H22      7.4799  16.6692  17.4280   H         1 RES1   0.0000
    50 H23      6.5364  16.1038  16.3105   H         1 RES1   0.0000
    51 C20     10.7913  14.7164  16.3581   C.3       1 RES1   0.0000
    52 H24     11.6404  14.9892  16.7434   H         1 RES1   0.0000
    53 H25     10.6309  13.7926  16.6120   H         1 RES1   0.0000
    54 C21      9.6875  15.5867  16.9112   C.3       1 RES1   0.0000
    55 H26      9.6089  15.4386  17.8654   H         1 RES1   0.0000
    56 H27      9.9155  16.5194  16.7706   H         1 RES1   0.0000
    57 C22      7.7896  14.0458  16.7978   C.3       1 RES1   0.0000
    58 H28      6.9735  13.8497  16.3309   H         1 RES1   0.0000
    59 H29      7.6057  14.1546  17.7340   H         1 RES1   0.0000
    60 H30      8.4091  13.3236  16.6754   H         1 RES1   0.0000
    61 C23      8.2944  19.7080  14.0122   C.ar      1 RES1   0.0000
    62 H31      8.5098  20.4178  13.4523   H         1 RES1   0.0000
    63 C24      8.7834  18.4543  13.7737   C.ar      1 RES1   0.0000
    64 H32      9.3353  18.3295  13.0353   H         1 RES1   0.0000
    65 C25      7.2110  18.8413  15.9365   C.ar      1 RES1   0.0000
    66 H33      6.6858  18.9572  16.6958   H         1 RES1   0.0000
    67 C26      7.4704  19.8971  15.1070   C.ar      1 RES1   0.0000
    68 H34      7.0962  20.7317  15.2770   H         1 RES1   0.0000
    69 P1       7.8519  14.8023  21.1559   P.3       2 RES2  -1.0000
    70 F1       8.7996  14.1774  20.0325   F         2 RES2   0.0000
    71 F2       6.8916  15.4092  22.2760   F         2 RES2   0.0000
    72 F3       8.1028  13.5030  22.0652   F         2 RES2   0.0000
    73 F4       7.5567  16.0621  20.2234   F         2 RES2   0.0000
    74 F5       9.0897  15.5187  21.8236   F         2 RES2   0.0000
    75 F6       6.5926  14.0574  20.4840   F         2 RES2   0.0000
    76 P2      12.5917  16.2599   6.3914   P.3       3 RES3  -1.0000
    77 F7      11.2841  15.3899   6.1126   F         3 RES3   0.0000
    78 F8      13.9035  17.1303   6.6836   F         3 RES3   0.0000
    79 F9      12.7348  16.6281   4.8682   F         3 RES3   0.0000
    80 F10     11.7024  17.5614   6.5963   F         3 RES3   0.0000
    81 F11     13.4974  14.9967   6.2454   F         3 RES3   0.0000
    82 F12     12.4785  15.9879   7.9640   F         3 RES3   0.0000
@<TRIPOS>BOND
     1     1    32    1
     2     2     3    1
     3     3    47   ar
     4     4     2    1
     5     5     2    1
     6     6     2    1
     7     7     8    1
     8     9     7   ar
     9    10     5    1
    10    11    10    1
    11    12    10    1
    12    13    23   ar
    13    14    15    1
    14    16     6   ar
    15    17     7   ar
    16    18    17    1
    17    19     6   ar
    18    20    19    1
    19    21    14   ar
    20    22    21    1
    21    23    17   ar
    22    24    23    1
    23    25    14   ar
    24    26    25    1
    25    27     5    1
    26    28    27    1
    27    29    27    1
    28    30     2    1
    29    31     2    1
    30    32     9    1
    31    33    31    1
    32    34    33    1
    33    35    34    1
    34    36    35    1
    35    37    35    1
    36    38    35    1
    37    39    34    1
    38    40    39    1
    39    41    39    1
    40    42    39    1
    41    43    34    1
    42    44    43    1
    43    45    43    1
    44    46    43    1
    45    47    48    1
    46    48     4    1
    47    49    48    1
    48    50    48    1
    49    51     5    1
    50    52    51    1
    51    53    51    1
    52    54     4    1
    53    55    54    1
    54    56    54    1
    55    57     4    1
    56    58    57    1
    57    59    57    1
    58    60    57    1
    59    61    62    1
    60    63     3   ar
    61    64    63    1
    62    65    47   ar
    63    66    65    1
    64    67    61   ar
    65    68    67    1
    66     9    30   ar
    67    10    16    1
    68    13    27    1
    69    13    30   ar
    70    16    25   ar
    71    19    21   ar
    72    32    33    2
    73    51    54    1
    74    61    63   ar
    75    65    67   ar
    76    69    70    1
    77    71    69    1
    78    72    69    1
    79    73    69    1
    80    74    69    1
    81    75    69    1
    82    76    77    1
    83    78    76    1
    84    79    76    1
    85    80    76    1
    86    81    76    1
    87    82    76    1
@<TRIPOS>SUBSTRUCTURE
     1 RES1        1 GROUP             0 ****  ****    0  
     2 RES2       69 GROUP             0 ****  ****    0  
     3 RES3       76 GROUP             0 ****  ****    0  
@<TRIPOS>CRYSIN
   15.7239   17.8337   22.6661   90.0000   90.0000   90.0000    61     1
