@<TRIPOS>MOLECULE
WIHQIQ05
   110   111     2     0     0
SMALL
USER_CHARGES
****
Generated from the CSD

@<TRIPOS>ATOM
     1 C1      13.9270   2.3261   2.7875   C.3       1 RES1   0.0000
     2 C2      13.1887   3.6049   2.7875   C.2       1 RES1   0.0000
     3 C3      11.1349   2.3936   2.4597   C.3       1 RES1   0.0000
     4 H1      10.4783   2.6686   1.7862   H         1 RES1   0.0000
     5 H2      11.7426   1.7509   2.0405   H         1 RES1   0.0000
     6 C4      10.4454   1.7469   3.5502   C.3       1 RES1   0.0000
     7 H3      11.0845   1.2563   4.0909   H         1 RES1   0.0000
     8 H4       9.7835   1.1320   3.1956   H         1 RES1   0.0000
     9 H5      10.0041   2.4161   4.0965   H         1 RES1   0.0000
    10 C5      11.0769   4.6258   3.5189   C.3       1 RES1   0.0000
    11 H6      11.1089   5.4299   2.9614   H         1 RES1   0.0000
    12 H7      10.1446   4.3283   3.5624   H         1 RES1   0.0000
    13 C6      11.5395   4.9617   4.8748   C.3       1 RES1   0.0000
    14 H8      11.8381   4.1564   5.3241   H         1 RES1   0.0000
    15 H9      10.8089   5.3598   5.3754   H         1 RES1   0.0000
    16 H10     12.2733   5.5925   4.8190   H         1 RES1   0.0000
    17 Fe1     15.2700   0.0000   2.7875   Fe        1 RES1   0.0000
    18 N1      11.8969   3.5600   2.8789   N.pl3     1 RES1   0.0000
    19 S1      14.8999   1.8405   1.5643   S.2       1 RES1  -1.0000
    20 C3D     15.2647   4.7779   3.1153   C.3       1 RES1   0.0000
    21 H1D     15.3547   5.4841   3.7888   H         1 RES1   0.0000
    22 H2D     15.5174   3.9302   3.5346   H         1 RES1   0.0000
    23 C4D     16.1694   5.0516   2.0248   C.3       1 RES1   0.0000
    24 H3D     16.2748   4.2529   1.4841   H         1 RES1   0.0000
    25 H4D     17.0329   5.3175   2.3794   H         1 RES1   0.0000
    26 H5D     15.8106   5.7684   1.4785   H         1 RES1   0.0000
    27 C5D     13.3605   5.9443   2.0561   C.3       1 RES1   0.0000
    28 H6D     12.6481   6.3185   2.6136   H         1 RES1   0.0000
    29 H7D     14.0843   6.6028   2.0126   H         1 RES1   0.0000
    30 C6D     12.8383   5.7115   0.7002   C.3       1 RES1   0.0000
    31 H8D     13.3864   5.0503   0.2509   H         1 RES1   0.0000
    32 H9D     12.8589   6.5433   0.1996   H         1 RES1   0.0000
    33 H10D    11.9251   5.3915   0.7560   H         1 RES1   0.0000
    34 N1D     13.8736   4.7012   2.6961   N.pl3     1 RES1   1.0000
    35 S1D     13.8611   1.2408   4.0107   S.2       1 RES1   0.0000
    36 C1A     13.9270  -2.3261   2.7875   C.3       1 RES1   0.0000
    37 C2A     13.1887  -3.6049   2.7875   C.2       1 RES1   0.0000
    38 C3A     15.2647  -4.7779   2.4597   C.3       1 RES1   0.0000
    39 H1A     15.3547  -5.4841   1.7862   H         1 RES1   0.0000
    40 H2A     15.5174  -3.9302   2.0405   H         1 RES1   0.0000
    41 C4A     16.1694  -5.0516   3.5502   C.3       1 RES1   0.0000
    42 H3A     16.2748  -4.2529   4.0909   H         1 RES1   0.0000
    43 H4A     17.0329  -5.3175   3.1956   H         1 RES1   0.0000
    44 H5A     15.8106  -5.7684   4.0965   H         1 RES1   0.0000
    45 C5A     13.3605  -5.9443   3.5189   C.3       1 RES1   0.0000
    46 H6A     12.6481  -6.3185   2.9614   H         1 RES1   0.0000
    47 H7A     14.0843  -6.6028   3.5624   H         1 RES1   0.0000
    48 C6A     12.8383  -5.7115   4.8748   C.3       1 RES1   0.0000
    49 H8A     13.3864  -5.0503   5.3241   H         1 RES1   0.0000
    50 H9A     12.8589  -6.5433   5.3754   H         1 RES1   0.0000
    51 H10A    11.9251  -5.3915   4.8190   H         1 RES1   0.0000
    52 N1A     13.8736  -4.7012   2.8789   N.pl3     1 RES1   0.0000
    53 S1A     13.8611  -1.2408   1.5643   S.2       1 RES1   0.0000
    54 C3C     11.1349  -2.3936   3.1153   C.3       1 RES1   0.0000
    55 H1C     10.4783  -2.6686   3.7888   H         1 RES1   0.0000
    56 H2C     11.7426  -1.7509   3.5346   H         1 RES1   0.0000
    57 C4C     10.4454  -1.7469   2.0248   C.3       1 RES1   0.0000
    58 H3C     11.0845  -1.2563   1.4841   H         1 RES1   0.0000
    59 H4C      9.7835  -1.1320   2.3794   H         1 RES1   0.0000
    60 H5C     10.0041  -2.4161   1.4785   H         1 RES1   0.0000
    61 C5C     11.0769  -4.6258   2.0561   C.3       1 RES1   0.0000
    62 H6C     11.1089  -5.4299   2.6136   H         1 RES1   0.0000
    63 H7C     10.1446  -4.3283   2.0126   H         1 RES1   0.0000
    64 C6C     11.5395  -4.9617   0.7002   C.3       1 RES1   0.0000
    65 H8C     11.8381  -4.1564   0.2509   H         1 RES1   0.0000
    66 H9C     10.8089  -5.3598   0.1996   H         1 RES1   0.0000
    67 H10C    12.2733  -5.5925   0.7560   H         1 RES1   0.0000
    68 N1C     11.8969  -3.5600   2.6961   N.pl3     1 RES1   1.0000
    69 S1C     14.8999  -1.8405   4.0107   S.2       1 RES1   0.0000
    70 C1B     17.9560   0.0000   2.7875   C.3       1 RES1   0.0000
    71 C2B     19.4326   0.0000   2.7875   C.2       1 RES1   0.0000
    72 C3B     19.4105   2.3843   2.4597   C.3       1 RES1   0.0000
    73 H1B     19.9770   2.8154   1.7862   H         1 RES1   0.0000
    74 H2B     18.5500   2.1793   2.0405   H         1 RES1   0.0000
    75 C4B     19.1952   3.3047   3.5502   C.3       1 RES1   0.0000
    76 H3B     18.4507   2.9966   4.0909   H         1 RES1   0.0000
    77 H4B     18.9936   4.1855   3.1956   H         1 RES1   0.0000
    78 H5B     19.9953   3.3523   4.0965   H         1 RES1   0.0000
    79 C5B     21.3727   1.3185   3.5189   C.3       1 RES1   0.0000
    80 H6B     22.0529   0.8887   2.9614   H         1 RES1   0.0000
    81 H7B     21.5811   2.2746   3.5624   H         1 RES1   0.0000
    82 C6B     21.4322   0.7498   4.8748   C.3       1 RES1   0.0000
    83 H8B     20.5855   0.8940   5.3241   H         1 RES1   0.0000
    84 H9B     22.1423   1.1836   5.3754   H         1 RES1   0.0000
    85 H10B    21.6116  -0.2010   4.8190   H         1 RES1   0.0000
    86 N1B     20.0396   1.1412   2.8789   N.pl3     1 RES1   0.0000
    87 S1B     17.0490  -0.5997   1.5643   S.2       1 RES1   0.0000
    88 C3E     19.4105  -2.3843   3.1153   C.3       1 RES1   0.0000
    89 H1E     19.9770  -2.8154   3.7888   H         1 RES1   0.0000
    90 H2E     18.5500  -2.1793   3.5346   H         1 RES1   0.0000
    91 C4E     19.1952  -3.3047   2.0248   C.3       1 RES1   0.0000
    92 H3E     18.4507  -2.9966   1.4841   H         1 RES1   0.0000
    93 H4E     18.9936  -4.1855   2.3794   H         1 RES1   0.0000
    94 H5E     19.9953  -3.3523   1.4785   H         1 RES1   0.0000
    95 C5E     21.3727  -1.3185   2.0561   C.3       1 RES1   0.0000
    96 H6E     22.0529  -0.8887   2.6136   H         1 RES1   0.0000
    97 H7E     21.5811  -2.2746   2.0126   H         1 RES1   0.0000
    98 C6E     21.4322  -0.7498   0.7002   C.3       1 RES1   0.0000
    99 H8E     20.5855  -0.8940   0.2509   H         1 RES1   0.0000
   100 H9E     22.1423  -1.1836   0.1996   H         1 RES1   0.0000
   101 H10E    21.6116   0.2010   0.7560   H         1 RES1   0.0000
   102 N1E     20.0396  -1.1412   2.6961   N.pl3     1 RES1   1.0000
   103 S1E     17.0490   0.5997   4.0107   S.2       1 RES1   0.0000
   104 F1       6.7982   3.4515  -0.0145   F         2 RES2   0.0000
   105 F2       6.4058   4.6311   1.6926   F         2 RES2   0.0000
   106 P1       7.6358   4.4076   0.7917   P.3       2 RES2  -1.0000
   107 F1A      8.8818   4.1617  -0.0145   F         2 RES2   0.0000
   108 F2A      8.0565   3.2320   1.6926   F         2 RES2   0.0000
   109 F1B      7.2250   5.6110  -0.0145   F         2 RES2   0.0000
   110 F2B      8.4428   5.3611   1.6926   F         2 RES2   0.0000
@<TRIPOS>BOND
     1     1     2    1
     2     2    18    1
     3     3     4    1
     4     5     3    1
     5     6     3    1
     6     7     6    1
     7     8     6    1
     8     9     6    1
     9    10    11    1
    10    12    10    1
    11    13    10    1
    12    14    13    1
    13    15    13    1
    14    16    13    1
    15    17    19    1
    16    18     3    1
    17    19     1   un
    18    20    21    1
    19    22    20    1
    20    23    20    1
    21    24    23    1
    22    25    23    1
    23    26    23    1
    24    27    28    1
    25    29    27    1
    26    30    27    1
    27    31    30    1
    28    32    30    1
    29    33    30    1
    30    34     2    2
    31    35     1   un
    32    36    37    1
    33    37    52    1
    34    38    39    1
    35    40    38    1
    36    41    38    1
    37    42    41    1
    38    43    41    1
    39    44    41    1
    40    45    46    1
    41    47    45    1
    42    48    45    1
    43    49    48    1
    44    50    48    1
    45    51    48    1
    46    52    38    1
    47    53    17    1
    48    54    55    1
    49    56    54    1
    50    57    54    1
    51    58    57    1
    52    59    57    1
    53    60    57    1
    54    61    62    1
    55    63    61    1
    56    64    61    1
    57    65    64    1
    58    66    64    1
    59    67    64    1
    60    68    37    2
    61    69    17    1
    62    70    71    1
    63    71    86    1
    64    72    73    1
    65    74    72    1
    66    75    72    1
    67    76    75    1
    68    77    75    1
    69    78    75    1
    70    79    80    1
    71    81    79    1
    72    82    79    1
    73    83    82    1
    74    84    82    1
    75    85    82    1
    76    86    72    1
    77    87    17    1
    78    88    89    1
    79    90    88    1
    80    91    88    1
    81    92    91    1
    82    93    91    1
    83    94    91    1
    84    95    96    1
    85    97    95    1
    86    98    95    1
    87    99    98    1
    88   100    98    1
    89   101    98    1
    90   102    71    2
    91   103    17    1
    92    10    18    1
    93    17    35    1
    94    20    34    1
    95    27    34    1
    96    36    53   un
    97    36    69   un
    98    45    52    1
    99    54    68    1
   100    61    68    1
   101    70    87   un
   102    70   103   un
   103    79    86    1
   104    88   102    1
   105    95   102    1
   106   104   106    1
   107   105   106    1
   108   106   107    1
   109   108   106    1
   110   109   106    1
   111   110   106    1
@<TRIPOS>SUBSTRUCTURE
     1 RES1        1 GROUP             0 ****  ****    0  
     2 RES2      104 GROUP             0 ****  ****    0  
@<TRIPOS>CRYSIN
   15.2700   15.2700   11.1500   90.0000   90.0000  120.0000   165     1
