@<TRIPOS>MOLECULE
WIHQIQ
   110   111     2     0     0
SMALL
USER_CHARGES
****
Generated from the CSD

@<TRIPOS>ATOM
     1 Fe1      0.0000   0.0000   2.7165   Fe        1 RES1  -1.0000
     2 S1       1.4735   1.2434   3.9462   S.2       1 RES1   0.0000
     3 C1       1.3767   2.3845   2.7165   C.3       1 RES1   0.0000
     4 C2       2.1189   3.6701   2.7165   C.2       1 RES1   0.0000
     5 C3       4.2878   4.7042   3.3522   C.3       1 RES1   0.0000
     6 H1       4.2339   5.5085   2.7773   H         1 RES1   0.0000
     7 H2       5.2321   4.4068   3.3739   H         1 RES1   0.0000
     8 C4       4.9520   1.7235   3.3674   C.3       1 RES1   0.0000
     9 H3       5.4514   2.3643   3.9161   H         1 RES1   0.0000
    10 H4       5.5755   1.0841   2.9632   H         1 RES1   0.0000
    11 H5       4.3104   1.2423   3.9302   H         1 RES1   0.0000
    12 C5       3.8500   5.0624   4.7484   C.3       1 RES1   0.0000
    13 H6       2.9337   5.4085   4.7235   H         1 RES1   0.0000
    14 H7       4.4478   5.7491   5.1125   H         1 RES1   0.0000
    15 H8       3.8827   4.2649   5.3167   H         1 RES1   0.0000
    16 C6       4.2144   2.4602   2.2808   C.3       1 RES1   0.0000
    17 H9       4.8653   2.7630   1.5995   H         1 RES1   0.0000
    18 H10      3.5862   1.8344   1.8396   H         1 RES1   0.0000
    19 N1       3.4537   3.6337   2.7708   N.pl3     1 RES1   0.0000
    20 S1C      0.3400   1.8978   1.4868   S.2       1 RES1   0.0000
    21 C3C      1.9301   6.0654   2.0808   C.3       1 RES1   0.0000
    22 H1C      2.6535   6.4210   2.6557   H         1 RES1   0.0000
    23 H2C      1.2003   6.7346   2.0591   H         1 RES1   0.0000
    24 C4C     -0.9834   5.1503   2.0656   C.3       1 RES1   0.0000
    25 H3C     -0.6782   5.9032   1.5169   H         1 RES1   0.0000
    26 H4C     -1.8489   5.3706   2.4698   H         1 RES1   0.0000
    27 H5C     -1.0794   4.3541   1.5028   H         1 RES1   0.0000
    28 C5C      2.4592   5.8654   0.6846   C.3       1 RES1   0.0000
    29 H6C      3.2170   5.2449   0.7095   H         1 RES1   0.0000
    30 H7C      2.7550   6.7265   0.3205   H         1 RES1   0.0000
    31 H8C      1.7521   5.4950   0.1163   H         1 RES1   0.0000
    32 C6C      0.0234   4.8799   3.1522   C.3       1 RES1   0.0000
    33 H9C     -0.0398   5.5950   3.8335   H         1 RES1   0.0000
    34 H10C    -0.2045   4.0229   3.5934   H         1 RES1   0.0000
    35 N1C      1.4200   4.8079   2.6622   N.pl3     1 RES1   1.0000
    36 S1A     -1.8135   0.6544   3.9462   S.2       1 RES1   0.0000
    37 C1A     -2.7534   0.0000   2.7165   C.3       1 RES1   0.0000
    38 C2A     -4.2378   0.0000   2.7165   C.2       1 RES1   0.0000
    39 C3A     -6.2178   1.3612   3.3522   C.3       1 RES1   0.0000
    40 H1A     -6.8875   0.9125   2.7773   H         1 RES1   0.0000
    41 H2A     -6.4325   2.3278   3.3739   H         1 RES1   0.0000
    42 C4A     -3.9686   3.4268   3.3674   C.3       1 RES1   0.0000
    43 H3A     -4.7732   3.5390   3.9161   H         1 RES1   0.0000
    44 H4A     -3.7266   4.2865   2.9632   H         1 RES1   0.0000
    45 H5A     -3.2311   3.1118   3.9302   H         1 RES1   0.0000
    46 C5A     -6.3092   0.8030   4.7484   C.3       1 RES1   0.0000
    47 H6A     -6.1507  -0.1636   4.7235   H         1 RES1   0.0000
    48 H7A     -7.2028   0.9773   5.1125   H         1 RES1   0.0000
    49 H8A     -5.6348   1.2301   5.3167   H         1 RES1   0.0000
    50 C6A     -4.2378   2.4197   2.2808   C.3       1 RES1   0.0000
    51 H9A     -4.8255   2.8320   1.5995   H         1 RES1   0.0000
    52 H10A    -3.3817   2.1885   1.8396   H         1 RES1   0.0000
    53 N1A     -4.8738   1.1742   2.7708   N.pl3     1 RES1   0.0000
    54 S1E     -1.8135  -0.6544   1.4868   S.2       1 RES1   0.0000
    55 C3E     -6.2178  -1.3612   2.0808   C.3       1 RES1   0.0000
    56 H1E     -6.8875  -0.9125   2.6557   H         1 RES1   0.0000
    57 H2E     -6.4325  -2.3278   2.0591   H         1 RES1   0.0000
    58 C4E     -3.9686  -3.4268   2.0656   C.3       1 RES1   0.0000
    59 H3E     -4.7732  -3.5390   1.5169   H         1 RES1   0.0000
    60 H4E     -3.7266  -4.2865   2.4698   H         1 RES1   0.0000
    61 H5E     -3.2311  -3.1118   1.5028   H         1 RES1   0.0000
    62 C5E     -6.3092  -0.8030   0.6846   C.3       1 RES1   0.0000
    63 H6E     -6.1507   0.1636   0.7095   H         1 RES1   0.0000
    64 H7E     -7.2028  -0.9773   0.3205   H         1 RES1   0.0000
    65 H8E     -5.6348  -1.2301   0.1163   H         1 RES1   0.0000
    66 C6E     -4.2378  -2.4197   3.1522   C.3       1 RES1   0.0000
    67 H9E     -4.8255  -2.8320   3.8335   H         1 RES1   0.0000
    68 H10E    -3.3817  -2.1885   3.5934   H         1 RES1   0.0000
    69 N1E     -4.8738  -1.1742   2.6622   N.pl3     1 RES1   1.0000
    70 S1B      0.3400  -1.8978   3.9462   S.2       1 RES1   0.0000
    71 C1B      1.3767  -2.3845   2.7165   C.3       1 RES1   0.0000
    72 C2B      2.1189  -3.6701   2.7165   C.2       1 RES1   0.0000
    73 C3B      1.9301  -6.0654   3.3522   C.3       1 RES1   0.0000
    74 H1B      2.6535  -6.4210   2.7773   H         1 RES1   0.0000
    75 H2B      1.2003  -6.7346   3.3739   H         1 RES1   0.0000
    76 C4B     -0.9834  -5.1503   3.3674   C.3       1 RES1   0.0000
    77 H3B     -0.6782  -5.9032   3.9161   H         1 RES1   0.0000
    78 H4B     -1.8489  -5.3706   2.9632   H         1 RES1   0.0000
    79 H5B     -1.0794  -4.3541   3.9302   H         1 RES1   0.0000
    80 C5B      2.4592  -5.8654   4.7484   C.3       1 RES1   0.0000
    81 H6B      3.2170  -5.2449   4.7235   H         1 RES1   0.0000
    82 H7B      2.7550  -6.7265   5.1125   H         1 RES1   0.0000
    83 H8B      1.7521  -5.4950   5.3167   H         1 RES1   0.0000
    84 C6B      0.0234  -4.8799   2.2808   C.3       1 RES1   0.0000
    85 H9B     -0.0398  -5.5950   1.5995   H         1 RES1   0.0000
    86 H10B    -0.2045  -4.0229   1.8396   H         1 RES1   0.0000
    87 N1B      1.4200  -4.8079   2.7708   N.pl3     1 RES1   0.0000
    88 S1D      1.4735  -1.2434   1.4868   S.2       1 RES1   0.0000
    89 C3D      4.2878  -4.7042   2.0808   C.3       1 RES1   0.0000
    90 H1D      4.2339  -5.5085   2.6557   H         1 RES1   0.0000
    91 H2D      5.2321  -4.4068   2.0591   H         1 RES1   0.0000
    92 C4D      4.9520  -1.7235   2.0656   C.3       1 RES1   0.0000
    93 H3D      5.4514  -2.3643   1.5169   H         1 RES1   0.0000
    94 H4D      5.5755  -1.0841   2.4698   H         1 RES1   0.0000
    95 H5D      4.3104  -1.2423   1.5028   H         1 RES1   0.0000
    96 C5D      3.8500  -5.0624   0.6846   C.3       1 RES1   0.0000
    97 H6D      2.9337  -5.4085   0.7095   H         1 RES1   0.0000
    98 H7D      4.4478  -5.7491   0.3205   H         1 RES1   0.0000
    99 H8D      3.8827  -4.2649   0.1163   H         1 RES1   0.0000
   100 C6D      4.2144  -2.4602   3.1522   C.3       1 RES1   0.0000
   101 H9D      4.8653  -2.7630   3.8335   H         1 RES1   0.0000
   102 H10D     3.5862  -1.8344   3.5934   H         1 RES1   0.0000
   103 N1D      3.4537  -3.6337   2.6622   N.pl3     1 RES1   1.0000
   104 P1       7.8053   4.5055   0.8615   P.3       2 RES2  -1.0000
   105 F1       6.9963   5.5265   1.7788   F         2 RES2   0.0000
   106 F2       6.5019   4.3027  -0.0293   F         2 RES2   0.0000
   107 F1A      7.3248   3.2958   1.7788   F         2 RES2   0.0000
   108 F2A      8.6318   3.4795  -0.0293   F         2 RES2   0.0000
   109 F1B      9.0924   4.6955   1.7788   F         2 RES2   0.0000
   110 F2B      8.2798   5.7356  -0.0293   F         2 RES2   0.0000
@<TRIPOS>BOND
     1     1     2    1
     2     2     3   un
     3     3     4    1
     4     4    19    1
     5     5     6    1
     6     7     5    1
     7     8     9    1
     8    10     8    1
     9    11     8    1
    10    12     5    1
    11    13    12    1
    12    14    12    1
    13    15    12    1
    14    16     8    1
    15    17    16    1
    16    18    16    1
    17    19     5    1
    18    20     1    1
    19    21    22    1
    20    23    21    1
    21    24    25    1
    22    26    24    1
    23    27    24    1
    24    28    21    1
    25    29    28    1
    26    30    28    1
    27    31    28    1
    28    32    24    1
    29    33    32    1
    30    34    32    1
    31    35     4    2
    32    36     1    1
    33    37    36   un
    34    38    37    1
    35    39    40    1
    36    41    39    1
    37    42    43    1
    38    44    42    1
    39    45    42    1
    40    46    39    1
    41    47    46    1
    42    48    46    1
    43    49    46    1
    44    50    42    1
    45    51    50    1
    46    52    50    1
    47    53    38    1
    48    54     1    1
    49    55    56    1
    50    57    55    1
    51    58    59    1
    52    60    58    1
    53    61    58    1
    54    62    55    1
    55    63    62    1
    56    64    62    1
    57    65    62    1
    58    66    58    1
    59    67    66    1
    60    68    66    1
    61    69    38    2
    62    70     1    1
    63    71    70   un
    64    72    71    1
    65    73    74    1
    66    75    73    1
    67    76    77    1
    68    78    76    1
    69    79    76    1
    70    80    73    1
    71    81    80    1
    72    82    80    1
    73    83    80    1
    74    84    76    1
    75    85    84    1
    76    86    84    1
    77    87    72    1
    78    88     1    1
    79    89    90    1
    80    91    89    1
    81    92    93    1
    82    94    92    1
    83    95    92    1
    84    96    89    1
    85    97    96    1
    86    98    96    1
    87    99    96    1
    88   100    92    1
    89   101   100    1
    90   102   100    1
    91   103    72    2
    92     3    20   un
    93    16    19    1
    94    21    35    1
    95    32    35    1
    96    37    54   un
    97    39    53    1
    98    50    53    1
    99    55    69    1
   100    66    69    1
   101    71    88   un
   102    73    87    1
   103    84    87    1
   104    89   103    1
   105   100   103    1
   106   104   105    1
   107   106   104    1
   108   107   104    1
   109   108   104    1
   110   109   104    1
   111   110   104    1
@<TRIPOS>SUBSTRUCTURE
     1 RES1        1 GROUP             0 ****  ****    0  
     2 RES2      104 GROUP             0 ****  ****    0  
@<TRIPOS>CRYSIN
   15.6090   15.6090   10.8660   90.0000   90.0000  120.0000   165     1
