@<TRIPOS>MOLECULE
WIHQIQ02
   110   111     2     0     0
SMALL
USER_CHARGES
****
Generated from the CSD

@<TRIPOS>ATOM
     1 C1       1.3724   2.3770   2.7863   C.3       1 RES1   0.0000
     2 C2       2.1129   3.6597   2.7863   C.2       1 RES1   0.0000
     3 C3       4.2072   2.4497   3.1574   C.3       1 RES1   0.0000
     4 H1       3.5972   1.8238   3.5987   H         1 RES1   0.0000
     5 H2       4.8639   2.7444   3.8238   H         1 RES1   0.0000
     6 C4       4.9229   1.7323   2.0685   C.3       1 RES1   0.0000
     7 H3       4.2779   1.3016   1.4879   H         1 RES1   0.0000
     8 H4       5.5096   1.0633   2.4541   H         1 RES1   0.0000
     9 H5       5.4475   2.3662   1.5547   H         1 RES1   0.0000
    10 C5       4.2601   4.6921   2.1220   C.3       1 RES1   0.0000
    11 H6       5.1949   4.4000   2.0819   H         1 RES1   0.0000
    12 H7       4.2158   5.4822   2.6993   H         1 RES1   0.0000
    13 C6       3.7969   5.0582   0.7467   C.3       1 RES1   0.0000
    14 H8       3.7612   4.2614   0.1950   H         1 RES1   0.0000
    15 H9       4.4170   5.6935   0.3555   H         1 RES1   0.0000
    16 H10      2.9141   5.4566   0.7980   H         1 RES1   0.0000
    17 Fe1      0.0000   0.0000   2.7863   Fe        1 RES1  -1.0000
    18 N1       3.4402   3.6166   2.7049   N.pl3     1 RES1   1.0000
    19 S1       0.3596   1.8772   4.0248   S.2       1 RES1   0.0000
    20 C3C      0.0179   4.8684   2.4151   C.3       1 RES1   0.0000
    21 H1C     -0.2191   4.0272   1.9738   H         1 RES1   0.0000
    22 H2C     -0.0552   5.5845   1.7487   H         1 RES1   0.0000
    23 C4C     -0.9613   5.1295   3.5040   C.3       1 RES1   0.0000
    24 H3C     -1.0118   4.3556   4.0846   H         1 RES1   0.0000
    25 H4C     -1.8340   5.3031   3.1184   H         1 RES1   0.0000
    26 H5C     -0.6745   5.9008   4.0178   H         1 RES1   0.0000
    27 C5C      1.9334   6.0354   3.4505   C.3       1 RES1   0.0000
    28 H6C      1.2131   6.6989   3.4906   H         1 RES1   0.0000
    29 H7C      2.6398   6.3920   2.8732   H         1 RES1   0.0000
    30 C6C      2.4821   5.8173   4.8258   C.3       1 RES1   0.0000
    31 H8C      1.8099   5.3879   5.3775   H         1 RES1   0.0000
    32 H9C      2.7222   6.6720   5.2170   H         1 RES1   0.0000
    33 H10C     3.2685   5.2520   4.7745   H         1 RES1   0.0000
    34 N1C      1.4120   4.7876   2.8676   N.pl3     1 RES1   0.0000
    35 S1C      1.4459   1.2500   1.5477   S.2       1 RES1   0.0000
    36 C1A     -2.7447   0.0000   2.7863   C.3       1 RES1   0.0000
    37 C2A     -4.2259   0.0000   2.7863   C.2       1 RES1   0.0000
    38 C3A     -4.2251   2.4187   3.1574   C.3       1 RES1   0.0000
    39 H1A     -3.3781   2.2034   3.5987   H         1 RES1   0.0000
    40 H2A     -4.8087   2.8400   3.8238   H         1 RES1   0.0000
    41 C4A     -3.9617   3.3972   2.0685   C.3       1 RES1   0.0000
    42 H3A     -3.2662   3.0540   1.4879   H         1 RES1   0.0000
    43 H4A     -3.6757   4.2398   2.4541   H         1 RES1   0.0000
    44 H5A     -4.7729   3.5345   1.5547   H         1 RES1   0.0000
    45 C5A     -6.1935   1.3433   2.1220   C.3       1 RES1   0.0000
    46 H6A     -6.4080   2.2989   2.0819   H         1 RES1   0.0000
    47 H7A     -6.8556   0.9099   2.6993   H         1 RES1   0.0000
    48 C6A     -6.2790   0.7591   0.7467   C.3       1 RES1   0.0000
    49 H8A     -5.5710   1.1266   0.1950   H         1 RES1   0.0000
    50 H9A     -7.1392   0.9785   0.3555   H         1 RES1   0.0000
    51 H10A    -6.1826  -0.2046   0.7980   H         1 RES1   0.0000
    52 N1A     -4.8522   1.1710   2.7049   N.pl3     1 RES1   1.0000
    53 S1A     -1.8055  -0.6272   4.0248   S.2       1 RES1   0.0000
    54 C3E     -4.2251  -2.4187   2.4151   C.3       1 RES1   0.0000
    55 H1E     -3.3781  -2.2034   1.9738   H         1 RES1   0.0000
    56 H2E     -4.8087  -2.8400   1.7487   H         1 RES1   0.0000
    57 C4E     -3.9617  -3.3972   3.5040   C.3       1 RES1   0.0000
    58 H3E     -3.2662  -3.0540   4.0846   H         1 RES1   0.0000
    59 H4E     -3.6757  -4.2398   3.1184   H         1 RES1   0.0000
    60 H5E     -4.7729  -3.5345   4.0178   H         1 RES1   0.0000
    61 C5E     -6.1935  -1.3433   3.4505   C.3       1 RES1   0.0000
    62 H6E     -6.4080  -2.2989   3.4906   H         1 RES1   0.0000
    63 H7E     -6.8556  -0.9099   2.8732   H         1 RES1   0.0000
    64 C6E     -6.2790  -0.7591   4.8258   C.3       1 RES1   0.0000
    65 H8E     -5.5710  -1.1266   5.3775   H         1 RES1   0.0000
    66 H9E     -7.1392  -0.9785   5.2170   H         1 RES1   0.0000
    67 H10E    -6.1826   0.2046   4.7745   H         1 RES1   0.0000
    68 N1E     -4.8522  -1.1710   2.8676   N.pl3     1 RES1   0.0000
    69 S1E     -1.8055   0.6272   1.5477   S.2       1 RES1   0.0000
    70 C1B      1.3724  -2.3770   2.7863   C.3       1 RES1   0.0000
    71 C2B      2.1129  -3.6597   2.7863   C.2       1 RES1   0.0000
    72 C3B      0.0179  -4.8684   3.1574   C.3       1 RES1   0.0000
    73 H1B     -0.2191  -4.0272   3.5987   H         1 RES1   0.0000
    74 H2B     -0.0552  -5.5845   3.8238   H         1 RES1   0.0000
    75 C4B     -0.9613  -5.1295   2.0685   C.3       1 RES1   0.0000
    76 H3B     -1.0118  -4.3556   1.4879   H         1 RES1   0.0000
    77 H4B     -1.8340  -5.3031   2.4541   H         1 RES1   0.0000
    78 H5B     -0.6745  -5.9008   1.5547   H         1 RES1   0.0000
    79 C5B      1.9334  -6.0354   2.1220   C.3       1 RES1   0.0000
    80 H6B      1.2131  -6.6989   2.0819   H         1 RES1   0.0000
    81 H7B      2.6398  -6.3920   2.6993   H         1 RES1   0.0000
    82 C6B      2.4821  -5.8173   0.7467   C.3       1 RES1   0.0000
    83 H8B      1.8099  -5.3879   0.1950   H         1 RES1   0.0000
    84 H9B      2.7222  -6.6720   0.3555   H         1 RES1   0.0000
    85 H10B     3.2685  -5.2520   0.7980   H         1 RES1   0.0000
    86 N1B      1.4120  -4.7876   2.7049   N.pl3     1 RES1   0.0000
    87 S1B      1.4459  -1.2500   4.0248   S.2       1 RES1   0.0000
    88 C3D      4.2072  -2.4497   2.4151   C.3       1 RES1   0.0000
    89 H1D      3.5972  -1.8238   1.9738   H         1 RES1   0.0000
    90 H2D      4.8639  -2.7444   1.7487   H         1 RES1   0.0000
    91 C4D      4.9229  -1.7323   3.5040   C.3       1 RES1   0.0000
    92 H3D      4.2779  -1.3016   4.0846   H         1 RES1   0.0000
    93 H4D      5.5096  -1.0633   3.1184   H         1 RES1   0.0000
    94 H5D      5.4475  -2.3662   4.0178   H         1 RES1   0.0000
    95 C5D      4.2601  -4.6921   3.4505   C.3       1 RES1   0.0000
    96 H6D      5.1949  -4.4000   3.4906   H         1 RES1   0.0000
    97 H7D      4.2158  -5.4822   2.8732   H         1 RES1   0.0000
    98 C6D      3.7969  -5.0582   4.8258   C.3       1 RES1   0.0000
    99 H8D      3.7612  -4.2614   5.3775   H         1 RES1   0.0000
   100 H9D      4.4170  -5.6935   5.2170   H         1 RES1   0.0000
   101 H10D     2.9141  -5.4566   4.7745   H         1 RES1   0.0000
   102 N1D      3.4402  -3.6166   2.8676   N.pl3     1 RES1   1.0000
   103 S1D      0.3596  -1.8772   1.5477   S.2       1 RES1   0.0000
   104 F1       7.3296   3.2788   3.8339   F         2 RES2   0.0000
   105 F2       8.6336   3.4888   5.5647   F         2 RES2   0.0000
   106 P1       7.7718   4.4861   4.7434   P.3       2 RES2  -1.0000
   107 F1A      9.0377   4.7082   3.8339   F         2 RES2   0.0000
   108 F2A      8.2038   5.7325   5.5647   F         2 RES2   0.0000
   109 F1B      6.9457   5.4727   3.8339   F         2 RES2   0.0000
   110 F2B      6.4756   4.2385   5.5647   F         2 RES2   0.0000
@<TRIPOS>BOND
     1     1     2    1
     2     2    18    2
     3     3     4    1
     4     5     3    1
     5     6     3    1
     6     7     6    1
     7     8     6    1
     8     9     6    1
     9    10    11    1
    10    12    10    1
    11    13    10    1
    12    14    13    1
    13    15    13    1
    14    16    13    1
    15    17    19    1
    16    18     3    1
    17    19     1   un
    18    20    21    1
    19    22    20    1
    20    23    20    1
    21    24    23    1
    22    25    23    1
    23    26    23    1
    24    27    28    1
    25    29    27    1
    26    30    27    1
    27    31    30    1
    28    32    30    1
    29    33    30    1
    30    34     2    1
    31    35     1   un
    32    36    37    1
    33    37    52    2
    34    38    39    1
    35    40    38    1
    36    41    38    1
    37    42    41    1
    38    43    41    1
    39    44    41    1
    40    45    46    1
    41    47    45    1
    42    48    45    1
    43    49    48    1
    44    50    48    1
    45    51    48    1
    46    52    38    1
    47    53    17    1
    48    54    55    1
    49    56    54    1
    50    57    54    1
    51    58    57    1
    52    59    57    1
    53    60    57    1
    54    61    62    1
    55    63    61    1
    56    64    61    1
    57    65    64    1
    58    66    64    1
    59    67    64    1
    60    68    37    1
    61    69    17    1
    62    70    71    1
    63    71    86    1
    64    72    73    1
    65    74    72    1
    66    75    72    1
    67    76    75    1
    68    77    75    1
    69    78    75    1
    70    79    80    1
    71    81    79    1
    72    82    79    1
    73    83    82    1
    74    84    82    1
    75    85    82    1
    76    86    72    1
    77    87    17    1
    78    88    89    1
    79    90    88    1
    80    91    88    1
    81    92    91    1
    82    93    91    1
    83    94    91    1
    84    95    96    1
    85    97    95    1
    86    98    95    1
    87    99    98    1
    88   100    98    1
    89   101    98    1
    90   102    71    2
    91   103    17    1
    92    10    18    1
    93    17    35    1
    94    20    34    1
    95    27    34    1
    96    36    53   un
    97    36    69   un
    98    45    52    1
    99    54    68    1
   100    61    68    1
   101    70    87   un
   102    70   103   un
   103    79    86    1
   104    88   102    1
   105    95   102    1
   106   104   106    1
   107   105   106    1
   108   106   107    1
   109   108   106    1
   110   109   106    1
   111   110   106    1
@<TRIPOS>SUBSTRUCTURE
     1 RES1        1 GROUP             0 ****  ****    0  
     2 RES2      104 GROUP             0 ****  ****    0  
@<TRIPOS>CRYSIN
   15.5420   15.5420   11.1450   90.0000   90.0000  120.0000   165     1
