@<TRIPOS>MOLECULE
WIHVAO
    83    90     1     0     0
SMALL
NO_CHARGES
****
Generated from the CSD

@<TRIPOS>ATOM
     1 Fe1     17.7065  10.3202   7.3276   Fe        1 RES1   0.0000
     2 C1      15.6812   7.8103   5.3494   C.3       1 RES1   0.0000
     3 H1      15.6217   8.1220   4.4334   H         1 RES1   0.0000
     4 H2      15.2184   6.9594   5.4073   H         1 RES1   0.0000
     5 O1      18.7596  11.5308   6.2272   O.3       1 RES1   0.0000
     6 N1      16.5609   9.0223   8.6461   N.2       1 RES1   0.0000
     7 N2      15.0365   8.7658   6.2240   N.3       1 RES1   0.0000
     8 O2      19.2827   9.3912   7.9948   O.3       1 RES1   0.0000
     9 C2      17.1434   7.6155   5.7223   C.3       1 RES1   0.0000
    10 H3      17.2082   7.2495   6.6186   H         1 RES1   0.0000
    11 H4      17.5584   6.9894   5.1083   H         1 RES1   0.0000
    12 O3      17.6759  11.5554   8.8397   O.3       1 RES1   0.0000
    13 C3      14.3697   9.8869   5.6095   C.3       1 RES1   0.0000
    14 H5      13.6777  10.2142   6.2058   H         1 RES1   0.0000
    15 H6      13.9443   9.5961   4.7884   H         1 RES1   0.0000
    16 N3      17.8433   8.9172   5.6608   N.2       1 RES1   0.0000
    17 N4      16.0089  11.4458   6.5544   N.2       1 RES1   0.0000
    18 O4      20.3065  13.6427   5.3914   O.3       1 RES1   0.0000
    19 C4      15.3379  11.0132   5.3007   C.3       1 RES1   0.0000
    20 H7      16.0022  10.7101   4.6616   H         1 RES1   0.0000
    21 H8      14.8598  11.7610   4.9102   H         1 RES1   0.0000
    22 O5      18.3686  12.9505  11.1123   O.3       1 RES1   0.0000
    23 C5      14.5342   8.2899   7.4888   C.3       1 RES1   0.0000
    24 H9      14.7773   7.3568   7.5983   H         1 RES1   0.0000
    25 H10     13.5652   8.3467   7.4893   H         1 RES1   0.0000
    26 C6      18.8199   7.1627  10.8550   C.ar      1 RES1   0.0000
    27 H11     18.1368   6.7927  11.3663   H         1 RES1   0.0000
    28 C7      18.4902   8.0636   9.8225   C.ar      1 RES1   0.0000
    29 C8      17.0880   8.3209   9.6041   C.2       1 RES1   0.0000
    30 H12     16.4969   7.9436  10.2151   H         1 RES1   0.0000
    31 O6      21.8857   8.7029   8.5617   O.3       1 RES1   0.0000
    32 C9      15.0847   9.0935   8.6560   C.3       1 RES1   0.0000
    33 H13     14.7998  10.0176   8.5831   H         1 RES1   0.0000
    34 H14     14.7444   8.7358   9.4914   H         1 RES1   0.0000
    35 C10     20.1038   6.8187  11.1226   C.ar      1 RES1   0.0000
    36 H15     20.2961   6.2186  11.8068   H         1 RES1   0.0000
    37 C11     21.1206   7.3662  10.3694   C.ar      1 RES1   0.0000
    38 H16     22.0032   7.1353  10.5532   H         1 RES1   0.0000
    39 C12     20.8481   8.2600   9.3388   C.ar      1 RES1   0.0000
    40 C13     19.5108   8.6171   9.0247   C.ar      1 RES1   0.0000
    41 C14     22.1527  10.0698   8.6484   C.3       1 RES1   0.0000
    42 H17     22.2529  10.3189   9.5812   H         1 RES1   0.0000
    43 H18     21.4039  10.5675   8.2854   H         1 RES1   0.0000
    44 C15     23.3711  10.4285   7.9190   C.3       1 RES1   0.0000
    45 H19     24.1079   9.9107   8.2525   H         1 RES1   0.0000
    46 H20     23.5553  11.3627   8.0429   H         1 RES1   0.0000
    47 H21     23.2497  10.2472   6.9846   H         1 RES1   0.0000
    48 C16     15.6600  12.6073   6.9952   C.2       1 RES1   0.0000
    49 H22     15.0376  13.0736   6.4853   H         1 RES1   0.0000
    50 C17     15.5069  14.4807   8.5433   C.ar      1 RES1   0.0000
    51 H23     14.8502  14.8287   7.9851   H         1 RES1   0.0000
    52 C18     15.8425  15.1583   9.6747   C.ar      1 RES1   0.0000
    53 H24     15.4159  15.9569   9.8864   H         1 RES1   0.0000
    54 C19     16.8230  14.6512  10.5071   C.ar      1 RES1   0.0000
    55 H25     17.0545  15.1166  11.2784   H         1 RES1   0.0000
    56 C20     17.4660  13.4554  10.2090   C.ar      1 RES1   0.0000
    57 C21     19.6869  12.8783  10.6620   C.3       1 RES1   0.0000
    58 H26     19.9534  13.7410  10.3072   H         1 RES1   0.0000
    59 H27     19.7471  12.2281   9.9449   H         1 RES1   0.0000
    60 C22     20.6031  12.4948  11.7426   C.3       1 RES1   0.0000
    61 H28     20.3891  11.6091  12.0449   H         1 RES1   0.0000
    62 H29     20.5141  13.1123  12.4725   H         1 RES1   0.0000
    63 H30     21.5069  12.5120  11.4180   H         1 RES1   0.0000
    64 C23     17.1146  12.7146   9.0442   C.ar      1 RES1   0.0000
    65 C24     18.6804   9.0461   4.6797   C.2       1 RES1   0.0000
    66 H31     18.7768   8.3124   4.1169   H         1 RES1   0.0000
    67 C25     19.4776  10.2030   4.3697   C.ar      1 RES1   0.0000
    68 C26     20.2287  10.1488   3.1722   C.ar      1 RES1   0.0000
    69 H32     20.2075   9.3732   2.6580   H         1 RES1   0.0000
    70 C27     20.9753  11.1974   2.7560   C.ar      1 RES1   0.0000
    71 H33     21.4551  11.1454   1.9606   H         1 RES1   0.0000
    72 C28     21.0212  12.3495   3.5244   C.ar      1 RES1   0.0000
    73 H34     21.5414  13.0673   3.2416   H         1 RES1   0.0000
    74 C29     20.3029  12.4503   4.7111   C.ar      1 RES1   0.0000
    75 C30     19.4887  11.3746   5.1560   C.ar      1 RES1   0.0000
    76 C31     20.9028  13.6120   6.6608   C.3       1 RES1   0.0000
    77 H35     21.7870  13.2176   6.5910   H         1 RES1   0.0000
    78 H36     20.3731  13.0560   7.2523   H         1 RES1   0.0000
    79 C32     21.0170  14.9552   7.2319   C.3       1 RES1   0.0000
    80 H37     21.5510  15.5042   6.6532   H         1 RES1   0.0000
    81 H38     21.4326  14.9012   8.0953   H         1 RES1   0.0000
    82 H39     20.1421  15.3395   7.3208   H         1 RES1   0.0000
    83 C33     16.1307  13.2643   8.1963   C.ar      1 RES1   0.0000
@<TRIPOS>BOND
     1     1     5    1
     2     2     3    1
     3     4     2    1
     4     5    75    1
     5     6     1    1
     6     7     2    1
     7     8     1    1
     8     9     2    1
     9    10     9    1
    10    11     9    1
    11    12     1    1
    12    13     7    1
    13    14    13    1
    14    15    13    1
    15    16     1    1
    16    17     1    1
    17    18    74    1
    18    19    13    1
    19    20    19    1
    20    21    19    1
    21    22    56    1
    22    23     7    1
    23    24    23    1
    24    25    23    1
    25    26    27    1
    26    28    26   ar
    27    29     6    2
    28    30    29    1
    29    31    39    1
    30    32     6    1
    31    33    32    1
    32    34    32    1
    33    35    26   ar
    34    36    35    1
    35    37    35   ar
    36    38    37    1
    37    39    37   ar
    38    40     8    1
    39    41    31    1
    40    42    41    1
    41    43    41    1
    42    44    41    1
    43    45    44    1
    44    46    44    1
    45    47    44    1
    46    48    17    2
    47    49    48    1
    48    50    51    1
    49    52    50   ar
    50    53    52    1
    51    54    52   ar
    52    55    54    1
    53    56    54   ar
    54    57    22    1
    55    58    57    1
    56    59    57    1
    57    60    57    1
    58    61    60    1
    59    62    60    1
    60    63    60    1
    61    64    12    1
    62    65    16    2
    63    66    65    1
    64    67    65    1
    65    68    67   ar
    66    69    68    1
    67    70    68   ar
    68    71    70    1
    69    72    70   ar
    70    73    72    1
    71    74    72   ar
    72    75    67   ar
    73    76    18    1
    74    77    76    1
    75    78    76    1
    76    79    76    1
    77    80    79    1
    78    81    79    1
    79    82    79    1
    80    83    48    1
    81     9    16    1
    82    17    19    1
    83    23    32    1
    84    28    29    1
    85    28    40   ar
    86    39    40   ar
    87    50    83   ar
    88    56    64   ar
    89    64    83   ar
    90    74    75   ar
@<TRIPOS>SUBSTRUCTURE
     1 RES1        1 GROUP             0 ****  ****    0  
@<TRIPOS>CRYSIN
   13.1700   13.1760   13.2070   60.4100   60.4100   60.4600     2     1
