@<TRIPOS>MOLECULE
WIJTOB
    76    82     4     0     0
SMALL
USER_CHARGES
****
Generated from the CSD

@<TRIPOS>ATOM
     1 Fe1      7.6536   8.1239  10.4016   Fe        1 RES1   2.0000
     2 Br1     13.2857   4.3087  10.3074   Br        1 RES1   0.0000
     3 N1       8.8108   8.8030  11.8920   N.2       1 RES1   0.0000
     4 N2       9.7736   7.9208  12.1868   N.pl3     1 RES1   0.0000
     5 N3       8.8710   6.7477  10.3951   N.ar      1 RES1   0.0000
     6 N4       7.7363   5.9060   8.5787   N.pl3     1 RES1   0.0000
     7 N5       6.9449   6.9654   8.8948   N.2       1 RES1   0.0000
     8 C1       8.9960   9.8217  12.7404   C.2       1 RES1   0.0000
     9 H1       8.4480  10.5984  12.7567   H         1 RES1   0.0000
    10 C2      10.0859   9.6268  13.6051   C.2       1 RES1   0.0000
    11 H2      10.4150  10.2003  14.2881   H         1 RES1   0.0000
    12 C3      10.5467   8.4147  13.2202   C.2       1 RES1   0.0000
    13 H3      11.2921   7.9695  13.6051   H         1 RES1   0.0000
    14 C4       9.8318   6.7720  11.3417   C.ar      1 RES1   0.0000
    15 C5      10.7334   5.7956  11.3990   C.ar      1 RES1   0.0000
    16 H4      11.4069   5.7826  12.0689   H         1 RES1   0.0000
    17 C6      10.6431   4.7622  10.4049   C.ar      1 RES1   0.0000
    18 C7       9.6634   4.7297   9.4058   C.ar      1 RES1   0.0000
    19 H5       9.6160   4.0424   8.7523   H         1 RES1   0.0000
    20 C8       8.7925   5.7614   9.4517   C.ar      1 RES1   0.0000
    21 C9       7.2862   5.1830   7.4700   C.2       1 RES1   0.0000
    22 H6       7.7011   4.4194   7.0851   H         1 RES1   0.0000
    23 C10      6.1719   5.7696   7.0605   C.2       1 RES1   0.0000
    24 H7       5.6132   5.5258   6.3317   H         1 RES1   0.0000
    25 C11      6.0065   6.8630   7.9810   C.2       1 RES1   0.0000
    26 H8       5.2733   7.4658   7.9318   H         1 RES1   0.0000
    27 C12     11.5738   3.6346  10.4344   C.3       1 RES1   0.0000
    28 H9      11.3931   3.0221   9.6761   H         1 RES1   0.0000
    29 H10     11.4697   3.1277  11.2778   H         1 RES1   0.0000
    30 Br1A     2.0215  11.9390  10.3074   Br        1 RES1   0.0000
    31 N1A      6.4964   7.4447  11.8920   N.2       1 RES1   0.0000
    32 N2A      5.5336   8.3269  12.1868   N.pl3     1 RES1   0.0000
    33 N3A      6.4362   9.5000  10.3951   N.ar      1 RES1   0.0000
    34 N4A      7.5709  10.3417   8.5787   N.pl3     1 RES1   0.0000
    35 N5A      8.3623   9.2823   8.8948   N.2       1 RES1   0.0000
    36 C1A      6.3112   6.4260  12.7404   C.2       1 RES1   0.0000
    37 H1A      6.8592   5.6493  12.7567   H         1 RES1   0.0000
    38 C2A      5.2213   6.6209  13.6051   C.2       1 RES1   0.0000
    39 H2A      4.8922   6.0474  14.2881   H         1 RES1   0.0000
    40 C3A      4.7605   7.8330  13.2202   C.2       1 RES1   0.0000
    41 H3A      4.0151   8.2782  13.6051   H         1 RES1   0.0000
    42 C4A      5.4754   9.4757  11.3417   C.ar      1 RES1   0.0000
    43 C5A      4.5738  10.4521  11.3990   C.ar      1 RES1   0.0000
    44 H4A      3.9003  10.4651  12.0689   H         1 RES1   0.0000
    45 C6A      4.6641  11.4855  10.4049   C.ar      1 RES1   0.0000
    46 C7A      5.6438  11.5180   9.4058   C.ar      1 RES1   0.0000
    47 H5A      5.6912  12.2053   8.7523   H         1 RES1   0.0000
    48 C8A      6.5147  10.4863   9.4517   C.ar      1 RES1   0.0000
    49 C9A      8.0210  11.0647   7.4700   C.2       1 RES1   0.0000
    50 H6A      7.6061  11.8283   7.0851   H         1 RES1   0.0000
    51 C10A     9.1353  10.4781   7.0605   C.2       1 RES1   0.0000
    52 H7A      9.6940  10.7219   6.3317   H         1 RES1   0.0000
    53 C11A     9.3007   9.3847   7.9810   C.2       1 RES1   0.0000
    54 H8A     10.0339   8.7819   7.9318   H         1 RES1   0.0000
    55 C12A     3.7334  12.6131  10.4344   C.3       1 RES1   0.0000
    56 H9A      3.9141  13.2256   9.6761   H         1 RES1   0.0000
    57 H10A     3.8375  13.1200  11.2778   H         1 RES1   0.0000
    58 B1      13.2576  10.3807   6.3268   B         2 RES2  -1.0000
    59 F1      12.2840   9.9517   7.1883   F         2 RES2   0.0000
    60 F2      13.0524  11.6740   5.9124   F         2 RES2   0.0000
    61 F3      13.3463   9.5618   5.1345   F         2 RES2   0.0000
    62 F4      14.3750  10.3368   7.1064   F         2 RES2   0.0000
    63 C13     13.8974   6.5316   4.9019   C.3       3 RES3   0.0000
    64 H11     13.8898   7.3960   4.4400   H         3 RES3   0.0000
    65 H12     12.9866   6.2992   5.1771   H         3 RES3   0.0000
    66 H13     14.4730   6.5868   5.6930   H         3 RES3   0.0000
    67 N6      14.4270   5.4674   3.9684   N.pl3     3 RES3   0.0000
    68 O1      14.4898   4.3381   4.4155   O.2       3 RES3   0.0000
    69 O2      14.7653   5.7826   2.7695   O.2       3 RES3   0.0000
    70 C14     13.7872   7.7063   9.1143   C.3       4 RES4   0.0000
    71 H14     14.0673   7.0954   8.4002   H         4 RES4   0.0000
    72 H15     14.1240   7.3797   9.9741   H         4 RES4   0.0000
    73 H16     14.1484   8.5999   8.9391   H         4 RES4   0.0000
    74 N7      12.3988   7.7680   9.1536   N.pl3     4 RES4   0.0000
    75 O3      11.9243   8.4602  10.0855   O.2       4 RES4   0.0000
    76 O4      11.7911   7.1457   8.2741   O.2       4 RES4   0.0000
@<TRIPOS>BOND
     1     1     3    1
     2     2    27    1
     3     3     4    1
     4     4    12    1
     5     5     1    1
     6     6     7    1
     7     7     1    1
     8     8     3    2
     9     9     8    1
    10    10     8    1
    11    11    10    1
    12    12    10    2
    13    13    12    1
    14    14     4    1
    15    15    14   ar
    16    16    15    1
    17    17    15   ar
    18    18    17   ar
    19    19    18    1
    20    20     5   ar
    21    21     6    1
    22    22    21    1
    23    23    21    2
    24    24    23    1
    25    25     7    2
    26    26    25    1
    27    27    17    1
    28    28    27    1
    29    29    27    1
    30    30    55    1
    31    31     1    1
    32    32    31    1
    33    33     1    1
    34    34    35    1
    35    35     1    1
    36    36    31    2
    37    37    36    1
    38    38    36    1
    39    39    38    1
    40    40    32    1
    41    41    40    1
    42    42    32    1
    43    43    42   ar
    44    44    43    1
    45    45    43   ar
    46    46    45   ar
    47    47    46    1
    48    48    33   ar
    49    49    34    1
    50    50    49    1
    51    51    49    2
    52    52    51    1
    53    53    35    2
    54    54    53    1
    55    55    45    1
    56    56    55    1
    57    57    55    1
    58     5    14   ar
    59     6    20    1
    60    18    20   ar
    61    23    25    1
    62    33    42   ar
    63    34    48    1
    64    38    40    2
    65    46    48   ar
    66    51    53    1
    67    58    59    1
    68    60    58    1
    69    61    58    1
    70    62    58    1
    71    63    64    1
    72    65    63    1
    73    66    63    1
    74    67    63    1
    75    68    67    2
    76    69    67    2
    77    70    71    1
    78    72    70    1
    79    73    70    1
    80    74    70    1
    81    75    74    2
    82    76    74    2
@<TRIPOS>SUBSTRUCTURE
     1 RES1        1 GROUP             0 ****  ****    0  
     2 RES2       58 GROUP             0 ****  ****    0  
     3 RES3       63 GROUP             0 ****  ****    0  
     4 RES4       70 GROUP             0 ****  ****    0  
@<TRIPOS>CRYSIN
   15.3072   16.2477   16.3779   90.0000   90.0000   90.0000    45     1
