@<TRIPOS>MOLECULE
WIKJAD
   121   130     3     0     0
SMALL
USER_CHARGES
****
Generated from the CSD

@<TRIPOS>ATOM
     1 Fe1      2.7211   5.9304   7.4280   Fe        1 RES1   2.0000
     2 O1       0.7004   5.6947   6.9553   O.2       1 RES1   0.0000
     3 N1       3.0770   3.8990   6.8473   N.2       1 RES1   0.0000
     4 N2       2.9018   2.1052   5.5365   N.pl3     1 RES1   0.0000
     5 N3       3.1385   6.3583   5.3539   N.2       1 RES1   0.0000
     6 N4       2.8307   6.0876   3.1584   N.pl3     1 RES1   0.0000
     7 N5      -1.2072   4.5661   6.6537   N.am      1 RES1   0.0000
     8 H1      -1.6620   4.1038   6.1132   H         1 RES1   0.0000
     9 C1       1.9343   4.2664   4.6456   C.3       1 RES1   0.0000
    10 H2       2.0119   3.7527   3.7912   H         1 RES1   0.0000
    11 C2       2.6300   3.4283   5.6979   C.2       1 RES1   0.0000
    12 C3       3.7256   2.8362   7.4645   C.ar      1 RES1   0.0000
    13 C4       4.4444   2.7861   8.6662   C.ar      1 RES1   0.0000
    14 H3       4.5185   3.5452   9.2315   H         1 RES1   0.0000
    15 C5       5.0420   1.5828   8.9928   C.ar      1 RES1   0.0000
    16 H4       5.5411   1.5194   9.7990   H         1 RES1   0.0000
    17 C6       4.9328   0.4525   8.1666   C.ar      1 RES1   0.0000
    18 H5       5.3627  -0.3546   8.4248   H         1 RES1   0.0000
    19 C7       4.2123   0.4871   6.9836   C.ar      1 RES1   0.0000
    20 H6       4.1266  -0.2787   6.4282   H         1 RES1   0.0000
    21 C8       3.6212   1.7037   6.6497   C.ar      1 RES1   0.0000
    22 C9       2.6533   5.5751   4.4084   C.2       1 RES1   0.0000
    23 C10      3.6746   7.4597   4.6902   C.ar      1 RES1   0.0000
    24 C11      4.3207   8.5927   5.1844   C.ar      1 RES1   0.0000
    25 H7       4.4805   8.7046   6.1147   H         1 RES1   0.0000
    26 C12      4.7202   9.5509   4.2635   C.ar      1 RES1   0.0000
    27 H8       5.1672  10.3307   4.5712   H         1 RES1   0.0000
    28 C13      4.4803   9.3984   2.8917   C.ar      1 RES1   0.0000
    29 H9       4.7582  10.0828   2.2938   H         1 RES1   0.0000
    30 C14      3.8532   8.2822   2.3896   C.ar      1 RES1   0.0000
    31 H10      3.6915   8.1791   1.4589   H         1 RES1   0.0000
    32 C15      3.4626   7.3035   3.3126   C.ar      1 RES1   0.0000
    33 C16      0.4147   4.4589   4.8878   C.3       1 RES1   0.0000
    34 H11      0.0757   5.0989   4.2131   H         1 RES1   0.0000
    35 H12     -0.0333   3.5926   4.7212   H         1 RES1   0.0000
    36 C17     -0.0056   4.9491   6.2495   C.2       1 RES1   0.0000
    37 C18      2.6727   1.2672   4.3647   C.3       1 RES1   0.0000
    38 H13      1.9013   1.6083   3.8655   H         1 RES1   0.0000
    39 H14      2.4947   0.3463   4.6514   H         1 RES1   0.0000
    40 H15      3.4676   1.2833   3.7912   H         1 RES1   0.0000
    41 C19      2.4175   5.5194   1.8784   C.3       1 RES1   0.0000
    42 H16      2.5164   4.5450   1.9060   H         1 RES1   0.0000
    43 H17      2.9782   5.8841   1.1632   H         1 RES1   0.0000
    44 H18      1.4805   5.7477   1.7069   H         1 RES1   0.0000
    45 C20     -1.8182   5.0098   7.9053   C.3       1 RES1   0.0000
    46 H19     -1.1022   5.2021   8.5615   H         1 RES1   0.0000
    47 H20     -2.3740   4.2758   8.2703   H         1 RES1   0.0000
    48 C21     -2.6746   6.2352   7.7446   C.3       1 RES1   0.0000
    49 H21     -3.3556   6.0667   7.0462   H         1 RES1   0.0000
    50 H22     -2.1086   6.9895   7.4413   H         1 RES1   0.0000
    51 C22     -3.3750   6.6230   9.0436   C.3       1 RES1   0.0000
    52 H23     -3.9380   5.8817   9.3444   H         1 RES1   0.0000
    53 H24     -3.9303   7.4153   8.8913   H         1 RES1   0.0000
    54 H25     -2.7038   6.8223   9.7292   H         1 RES1   0.0000
    55 O1B      4.7418   6.1660   7.9007   O.2       1 RES1   0.0000
    56 N1B      2.3651   7.9617   8.0087   N.2       1 RES1   0.0000
    57 N2B      2.5404   9.7555   9.3194   N.pl3     1 RES1   0.0000
    58 N3B      2.3037   5.5024   9.5020   N.2       1 RES1   0.0000
    59 N4B      2.6115   5.7731  11.6976   N.pl3     1 RES1   0.0000
    60 N5B      6.6493   7.2946   8.2023   N.am      1 RES1   0.0000
    61 H1B      7.1042   7.7569   8.7427   H         1 RES1   0.0000
    62 C1B      3.5079   7.5943  10.2103   C.3       1 RES1   0.0000
    63 H2B      3.4303   8.1080  11.0647   H         1 RES1   0.0000
    64 C2B      2.8121   8.4324   9.1581   C.2       1 RES1   0.0000
    65 C3B      1.7165   9.0245   7.3914   C.ar      1 RES1   0.0000
    66 C4B      0.9977   9.0746   6.1897   C.ar      1 RES1   0.0000
    67 H3B      0.9237   8.3155   5.6245   H         1 RES1   0.0000
    68 C5B      0.4002  10.2779   5.8632   C.ar      1 RES1   0.0000
    69 H4B     -0.0990  10.3413   5.0570   H         1 RES1   0.0000
    70 C6B      0.5093  11.4082   6.6893   C.ar      1 RES1   0.0000
    71 H5B      0.0794  12.2153   6.4311   H         1 RES1   0.0000
    72 C7B      1.2298  11.3736   7.8723   C.ar      1 RES1   0.0000
    73 H6B      1.3156  12.1394   8.4278   H         1 RES1   0.0000
    74 C8B      1.8209  10.1570   8.2063   C.ar      1 RES1   0.0000
    75 C9B      2.7889   6.2856  10.4476   C.2       1 RES1   0.0000
    76 C10B     1.7676   4.4010  10.1658   C.ar      1 RES1   0.0000
    77 C11B     1.1215   3.2680   9.6715   C.ar      1 RES1   0.0000
    78 H7B      0.9616   3.1561   8.7412   H         1 RES1   0.0000
    79 C12B     0.7220   2.3098  10.5924   C.ar      1 RES1   0.0000
    80 H8B      0.2750   1.5300  10.2848   H         1 RES1   0.0000
    81 C13B     0.9618   2.4623  11.9642   C.ar      1 RES1   0.0000
    82 H9B      0.6839   1.7779  12.5622   H         1 RES1   0.0000
    83 C14B     1.5889   3.5785  12.4664   C.ar      1 RES1   0.0000
    84 H10B     1.7506   3.6816  13.3971   H         1 RES1   0.0000
    85 C15B     1.9796   4.5572  11.5434   C.ar      1 RES1   0.0000
    86 C16B     5.0274   7.4018   9.9682   C.3       1 RES1   0.0000
    87 H11B     5.3665   6.7618  10.6428   H         1 RES1   0.0000
    88 H12B     5.4754   8.2681  10.1347   H         1 RES1   0.0000
    89 C17B     5.4477   6.9116   8.6065   C.2       1 RES1   0.0000
    90 C18B     2.7694  10.5935  10.4913   C.3       1 RES1   0.0000
    91 H13B     3.5408  10.2524  10.9904   H         1 RES1   0.0000
    92 H14B     2.9474  11.5144  10.2046   H         1 RES1   0.0000
    93 H15B     1.9745  10.5774  11.0647   H         1 RES1   0.0000
    94 C19B     3.0247   6.3413  12.9776   C.3       1 RES1   0.0000
    95 H16B     2.9257   7.3157  12.9499   H         1 RES1   0.0000
    96 H17B     2.4640   5.9766  13.6927   H         1 RES1   0.0000
    97 H18B     3.9617   6.1130  13.1490   H         1 RES1   0.0000
    98 C20B     7.2603   6.8509   6.9507   C.3       1 RES1   0.0000
    99 H19B     6.5443   6.6586   6.2945   H         1 RES1   0.0000
   100 H20B     7.8162   7.5849   6.5856   H         1 RES1   0.0000
   101 C21B     8.1168   5.6255   7.1114   C.3       1 RES1   0.0000
   102 H21B     8.7978   5.7940   7.8098   H         1 RES1   0.0000
   103 H22B     7.5507   4.8712   7.4146   H         1 RES1   0.0000
   104 C22B     8.8172   5.2377   5.8124   C.3       1 RES1   0.0000
   105 H23B     9.3802   5.9790   5.5116   H         1 RES1   0.0000
   106 H24B     9.3724   4.4454   5.9647   H         1 RES1   0.0000
   107 H25B     8.1459   5.0384   5.1268   H         1 RES1   0.0000
   108 S1      -3.4390   1.8384   5.1552   S.o2      2 RES2   0.0000
   109 F1      -2.5930   1.3094   2.7570   F         2 RES2   0.0000
   110 F2      -1.0619   1.2454   4.2599   F         2 RES2   0.0000
   111 F3      -2.4928  -0.3502   4.1054   F         2 RES2   0.0000
   112 O2      -3.1109   3.2234   4.9463   O.3       2 RES2  -1.0000
   113 O3      -3.0627   1.3342   6.4194   O.2       2 RES2   0.0000
   114 O4      -4.7431   1.4669   4.6790   O.2       2 RES2   0.0000
   115 C23     -2.3468   0.9678   4.0069   C.3       2 RES2   0.0000
   116 N6      -4.3212   3.1293   9.4727   N.1       3 RES3   0.0000
   117 C24     -5.1407   2.6677   8.8390   C.1       3 RES3   0.0000
   118 C25     -6.1877   2.0578   8.0276   C.3       3 RES3   0.0000
   119 H26     -6.0735   2.3259   7.0922   H         3 RES3   0.0000
   120 H27     -7.0634   2.3555   8.3476   H         3 RES3   0.0000
   121 H28     -6.1290   1.0817   8.0980   H         3 RES3   0.0000
@<TRIPOS>BOND
     1     1     2    1
     2     2    36    2
     3     3     1    1
     4     4    11    1
     5     5     1    1
     6     6    22    1
     7     7     8    1
     8     9    10    1
     9    11     3    2
    10    12     3    1
    11    13    12   ar
    12    14    13    1
    13    15    13   ar
    14    16    15    1
    15    17    15   ar
    16    18    17    1
    17    19    17   ar
    18    20    19    1
    19    21     4    1
    20    22     5    2
    21    23     5    1
    22    24    23   ar
    23    25    24    1
    24    26    24   ar
    25    27    26    1
    26    28    26   ar
    27    29    28    1
    28    30    28   ar
    29    31    30    1
    30    32     6    1
    31    33     9    1
    32    34    33    1
    33    35    33    1
    34    36     7   am
    35    37     4    1
    36    38    37    1
    37    39    37    1
    38    40    37    1
    39    41     6    1
    40    42    41    1
    41    43    41    1
    42    44    41    1
    43    45     7    1
    44    46    45    1
    45    47    45    1
    46    48    45    1
    47    49    48    1
    48    50    48    1
    49    51    48    1
    50    52    51    1
    51    53    51    1
    52    54    51    1
    53    55     1    1
    54    56     1    1
    55    57    64    1
    56    58     1    1
    57    59    75    1
    58    60    61    1
    59    62    63    1
    60    64    56    2
    61    65    56    1
    62    66    65   ar
    63    67    66    1
    64    68    66   ar
    65    69    68    1
    66    70    68   ar
    67    71    70    1
    68    72    70   ar
    69    73    72    1
    70    74    57    1
    71    75    58    2
    72    76    58    1
    73    77    76   ar
    74    78    77    1
    75    79    77   ar
    76    80    79    1
    77    81    79   ar
    78    82    81    1
    79    83    81   ar
    80    84    83    1
    81    85    59    1
    82    86    62    1
    83    87    86    1
    84    88    86    1
    85    89    55    2
    86    90    57    1
    87    91    90    1
    88    92    90    1
    89    93    90    1
    90    94    59    1
    91    95    94    1
    92    96    94    1
    93    97    94    1
    94    98    60    1
    95    99    98    1
    96   100    98    1
    97   101    98    1
    98   102   101    1
    99   103   101    1
   100   104   101    1
   101   105   104    1
   102   106   104    1
   103   107   104    1
   104     9    11    1
   105     9    22    1
   106    12    21   ar
   107    19    21   ar
   108    23    32   ar
   109    30    32   ar
   110    33    36    1
   111    60    89   am
   112    62    64    1
   113    62    75    1
   114    65    74   ar
   115    72    74   ar
   116    76    85   ar
   117    83    85   ar
   118    86    89    1
   119   108   112    1
   120   109   115    1
   121   110   115    1
   122   111   115    1
   123   113   108    2
   124   114   108    2
   125   115   108    1
   126   116   117    3
   127   117   118    1
   128   118   119    1
   129   120   118    1
   130   121   118    1
@<TRIPOS>SUBSTRUCTURE
     1 RES1        1 GROUP             0 ****  ****    0  
     2 RES2      108 GROUP             0 ****  ****    0  
     3 RES3      116 GROUP             0 ****  ****    0  
@<TRIPOS>CRYSIN
   14.9769   11.8607   17.6525   90.0000  122.6929   90.0000    14     1
