@<TRIPOS>MOLECULE
WIKPAI
    86    99     2     0     0
SMALL
USER_CHARGES
****
Generated from the CSD

@<TRIPOS>ATOM
     1 Ge1      2.4214   4.9480   9.3782   Ge        1 RES1   0.0000
     2 O1       4.1046   4.9419  10.2424   O.co2     1 RES1  -1.0000
     3 O2       1.5984   5.9916  10.7187   O.co2     1 RES1   0.0000
     4 O3       0.7729   4.7592   8.4858   O.co2     1 RES1   0.0000
     5 O4       2.8273   6.5793   8.5398   O.co2     1 RES1  -1.0000
     6 O5       2.0199   3.4395  10.4451   O.co2     1 RES1   0.0000
     7 O6       1.2087   8.1210  11.2593   O.co2     1 RES1   0.0000
     8 O7       3.1612   3.9339   7.9818   O.co2     1 RES1   0.0000
     9 O8       2.4582   8.7839   8.7971   O.co2     1 RES1   0.0000
    10 O9      -0.0702   3.8682   6.6051   O.co2     1 RES1   0.0000
    11 O10      2.5274   2.7964   6.1518   O.co2     1 RES1   0.0000
    12 C1       2.3611   7.6434   9.1721   C.2       1 RES1   0.0000
    13 O11      5.2350   3.8027  11.8050   O.co2     1 RES1   0.0000
    14 C2       0.8499   4.0696   7.3622   C.2       1 RES1   0.0000
    15 C3       4.2387   3.9968  11.1376   C.2       1 RES1   0.0000
    16 C4       2.9708   3.1085  11.2870   C.2       1 RES1   0.0000
    17 O12      2.9061   2.1921  12.0757   O.co2     1 RES1   0.0000
    18 C5       1.6519   7.2801  10.5051   C.2       1 RES1   0.0000
    19 C6       2.2832   3.5234   7.0838   C.2       1 RES1   0.0000
    20 Fe1      7.7416   0.8139  14.3215   Fe        2 RES2   2.0000
    21 N1       7.1344  -0.9248  15.0762   N.ar      2 RES2   0.0000
    22 N2       8.6564   1.3754  16.0000   N.ar      2 RES2   0.0000
    23 N3       6.8871   0.3182  12.6083   N.ar      2 RES2   0.0000
    24 N4       8.2893   2.6136  13.7235   N.ar      2 RES2   0.0000
    25 N5       9.3213  -0.0460  13.4836   N.ar      2 RES2   0.0000
    26 N6       6.0235   1.4550  15.0620   N.ar      2 RES2   0.0000
    27 C7       7.6919  -0.4545  11.8140   C.ar      2 RES2   0.0000
    28 C8       9.4733  -2.0486  10.3383   C.ar      2 RES2   0.0000
    29 H1      10.0635  -2.6094   9.8474   H         2 RES2   0.0000
    30 C9       5.8828  -0.8422  15.6407   C.ar      2 RES2   0.0000
    31 C10      8.1128   3.2094  12.5382   C.ar      2 RES2   0.0000
    32 H2       7.6536   2.7352  11.8551   H         2 RES2   0.0000
    33 C11      9.0234  -0.6567  12.2904   C.ar      2 RES2   0.0000
    34 C12      9.9311  -1.4465  11.5617   C.ar      2 RES2   0.0000
    35 C13      5.2075  -1.9427  16.1885   C.ar      2 RES2   0.0000
    36 C14      5.2887   0.4504  15.6372   C.ar      2 RES2   0.0000
    37 C15      7.1159  -3.2674  15.6097   C.ar      2 RES2   0.0000
    38 H3       7.5744  -4.0997  15.5916   H         2 RES2   0.0000
    39 C16      5.9761  -0.7057  10.1441   C.ar      2 RES2   0.0000
    40 H4       5.6597  -1.0388   9.3125   H         2 RES2   0.0000
    41 C17      8.8129   0.7245  17.1544   C.ar      2 RES2   0.0000
    42 H5       8.5225  -0.1773  17.2115   H         2 RES2   0.0000
    43 C18      9.8094   2.6274  18.2432   C.ar      2 RES2   0.0000
    44 H6      10.1763   3.0423  19.0148   H         2 RES2   0.0000
    45 C19      9.0952   2.6775  15.9473   C.ar      2 RES2   0.0000
    46 C20      8.9318   3.3341  14.6976   C.ar      2 RES2   0.0000
    47 C21      9.4005   4.6475  14.5094   C.ar      2 RES2   0.0000
    48 C22     10.1705   4.6834  16.8265   C.ar      2 RES2   0.0000
    49 H7      10.5834   5.1447  17.5477   H         2 RES2   0.0000
    50 C23      3.3376  -0.4885  16.7706   C.ar      2 RES2   0.0000
    51 H8       2.4822  -0.3710  17.1656   H         2 RES2   0.0000
    52 C24      8.2183  -1.8334   9.8682   C.ar      2 RES2   0.0000
    53 H9       7.9511  -2.2322   9.0489   H         2 RES2   0.0000
    54 C25     10.0502   5.3009  15.6216   C.ar      2 RES2   0.0000
    55 H10     10.3999   6.1773  15.5094   H         2 RES2   0.0000
    56 C26      7.2856  -1.0100  10.5913   C.ar      2 RES2   0.0000
    57 C27     11.2272  -1.5978  12.1011   C.ar      2 RES2   0.0000
    58 H11     11.8751  -2.1271  11.6526   H         2 RES2   0.0000
    59 C28      9.2167   5.2317  13.2356   C.ar      2 RES2   0.0000
    60 H12      9.5298   6.1114  13.0566   H         2 RES2   0.0000
    61 C29     11.5384  -0.9677  13.2842   C.ar      2 RES2   0.0000
    62 H13     12.4097  -1.0533  13.6526   H         2 RES2   0.0000
    63 C30      3.8959  -1.7207  16.7482   C.ar      2 RES2   0.0000
    64 H14      3.4144  -2.4549  17.1083   H         2 RES2   0.0000
    65 C31      9.6884   3.3478  17.0321   C.ar      2 RES2   0.0000
    66 C32      5.8620  -3.1913  16.1635   C.ar      2 RES2   0.0000
    67 H15      5.4431  -3.9657  16.5219   H         2 RES2   0.0000
    68 C33      3.4881   1.9550  16.1629   C.ar      2 RES2   0.0000
    69 H16      2.6343   2.1395  16.5371   H         2 RES2   0.0000
    70 C34      5.4833   2.6803  15.0376   C.ar      2 RES2   0.0000
    71 H17      5.9763   3.3886  14.6403   H         2 RES2   0.0000
    72 C35      5.6476   0.5705  12.1646   C.ar      2 RES2   0.0000
    73 H18      5.0680   1.1007  12.6994   H         2 RES2   0.0000
    74 C36      5.1753   0.0775  10.9347   C.ar      2 RES2   0.0000
    75 H19      4.2942   0.2886  10.6497   H         2 RES2   0.0000
    76 C37      8.5782   4.5047  12.2629   C.ar      2 RES2   0.0000
    77 H20      8.4497   4.8788  11.4004   H         2 RES2   0.0000
    78 C38      9.3910   1.3237  18.2904   C.ar      2 RES2   0.0000
    79 H21      9.4908   0.8224  19.0912   H         2 RES2   0.0000
    80 C39      4.2163   2.9598  15.5763   C.ar      2 RES2   0.0000
    81 H22      3.8643   3.8420  15.5343   H         2 RES2   0.0000
    82 C40      4.0143   0.6429  16.2080   C.ar      2 RES2   0.0000
    83 C41      7.7219  -2.1255  15.0714   C.ar      2 RES2   0.0000
    84 H23      8.5870  -2.2075  14.6861   H         2 RES2   0.0000
    85 C42     10.5657  -0.1962  13.9470   C.ar      2 RES2   0.0000
    86 H24     10.8036   0.2370  14.7587   H         2 RES2   0.0000
@<TRIPOS>BOND
     1     1     2    1
     2     2    15    1
     3     3     1    1
     4     4     1    1
     5     5     1    1
     6     6     1    1
     7     7    18    2
     8     8     1    1
     9     9    12    2
    10    10    14    2
    11    11    19    2
    12    12     5    1
    13    13    15    2
    14    14     4    1
    15    15    16    1
    16    16     6    1
    17    17    16    2
    18    18     3    1
    19    19     8    1
    20    12    18    1
    21    14    19    1
    22    20    21    1
    23    21    30   ar
    24    22    20    1
    25    23    20    1
    26    24    20    1
    27    25    20    1
    28    26    20    1
    29    27    23   ar
    30    28    29    1
    31    30    35   ar
    32    31    24   ar
    33    32    31    1
    34    33    25   ar
    35    34    28   ar
    36    35    63   ar
    37    36    26   ar
    38    37    38    1
    39    39    40    1
    40    41    22   ar
    41    42    41    1
    42    43    44    1
    43    45    22   ar
    44    46    24   ar
    45    47    46   ar
    46    48    49    1
    47    50    51    1
    48    52    28   ar
    49    53    52    1
    50    54    47   ar
    51    55    54    1
    52    56    27   ar
    53    57    34   ar
    54    58    57    1
    55    59    47   ar
    56    60    59    1
    57    61    57   ar
    58    62    61    1
    59    63    50   ar
    60    64    63    1
    61    65    43   ar
    62    66    35   ar
    63    67    66    1
    64    68    69    1
    65    70    26   ar
    66    71    70    1
    67    72    23   ar
    68    73    72    1
    69    74    39   ar
    70    75    74    1
    71    76    31   ar
    72    77    76    1
    73    78    41   ar
    74    79    78    1
    75    80    68   ar
    76    81    80    1
    77    82    36   ar
    78    83    21   ar
    79    84    83    1
    80    85    25   ar
    81    86    85    1
    82    27    33   ar
    83    30    36   ar
    84    33    34   ar
    85    37    66   ar
    86    37    83   ar
    87    39    56   ar
    88    43    78   ar
    89    45    46   ar
    90    45    65   ar
    91    48    54   ar
    92    48    65   ar
    93    50    82   ar
    94    52    56   ar
    95    59    76   ar
    96    61    85   ar
    97    68    82   ar
    98    70    80   ar
    99    72    74   ar
@<TRIPOS>SUBSTRUCTURE
     1 RES1        1 GROUP             0 ****  ****    0  
     2 RES2       20 GROUP             0 ****  ****    0  
@<TRIPOS>CRYSIN
    9.3425   20.6117   19.1881   90.0000   95.4100   90.0000   231     1
