@<TRIPOS>MOLECULE
WIKPEM
    87    99     3     0     0
SMALL
USER_CHARGES
****
Generated from the CSD

@<TRIPOS>ATOM
     1 Ge1     -2.0738   7.5235   4.1819   Ge        1 RES1   0.0000
     2 O1      -0.8503   6.7676   5.4081   O.co2     1 RES1  -1.0000
     3 O2      -3.3955   8.2556   3.0424   O.co2     1 RES1   0.0000
     4 O3      -3.3071   6.1228   4.4781   O.co2     1 RES1  -1.0000
     5 O4      -0.8973   8.8897   3.5917   O.co2     1 RES1   0.0000
     6 O5      -1.2983   6.4651   2.8156   O.co2     1 RES1   0.0000
     7 O6      -2.6655   8.5624   5.6337   O.co2     1 RES1   0.0000
     8 O7       0.2168   6.5963   1.1661   O.co2     1 RES1   0.0000
     9 O8      -5.2010   5.2853   3.6110   O.co2     1 RES1   0.0000
    10 C2      -0.9842   7.1897   6.6575   C.2       1 RES1   0.0000
    11 C6      -0.2489   8.5921   2.4845   C.2       1 RES1   0.0000
    12 O9      -0.3521   6.7859   7.6031   O.co2     1 RES1   0.0000
    13 O10     -2.4033   8.7543   7.8600   O.co2     1 RES1   0.0000
    14 C20     -4.3647   6.1520   3.6891   C.2       1 RES1   0.0000
    15 C31     -0.4169   7.0941   2.0729   C.2       1 RES1   0.0000
    16 C33     -2.1054   8.2610   6.7937   C.2       1 RES1   0.0000
    17 O11     -5.3537   7.7050   2.0974   O.co2     1 RES1   0.0000
    18 C36     -4.4327   7.4587   2.8397   C.2       1 RES1   0.0000
    19 O12      0.4254   9.3644   1.8334   O.co2     1 RES1   0.0000
    20 Fe1      7.1436  13.2287   3.7468   Fe        2 RES2   2.0000
    21 N1       8.4957  12.5591   5.0367   N.ar      2 RES2   0.0000
    22 N2       8.2025  14.8680   3.3748   N.ar      2 RES2   0.0000
    23 N3       6.0070  11.6144   4.0797   N.ar      2 RES2   0.0000
    24 N4       5.6093  13.7652   2.6305   N.ar      2 RES2   0.0000
    25 N5       6.3268  14.0046   5.3808   N.ar      2 RES2   0.0000
    26 N6       8.1235  12.5285   2.1834   N.ar      2 RES2   0.0000
    27 C1       3.6542  10.9196   3.9093   C.ar      2 RES2   0.0000
    28 C3       8.8048  12.2516   7.4501   C.ar      2 RES2   0.0000
    29 C4       8.2148  16.0486   4.0075   C.ar      2 RES2   0.0000
    30 H1       7.5877  16.2025   4.7042   H         2 RES2   0.0000
    31 C5       9.0910  14.6906   2.3386   C.ar      2 RES2   0.0000
    32 C7       3.9470   9.7815   4.6983   C.ar      2 RES2   0.0000
    33 H2       3.2608   9.1678   4.9336   H         2 RES2   0.0000
    34 C8       9.0332  13.4251   1.6781   C.ar      2 RES2   0.0000
    35 C9       5.2773  14.8333   5.5179   C.ar      2 RES2   0.0000
    36 H3       4.8486  15.1592   4.7353   H         2 RES2   0.0000
    37 C10      4.5031  12.9660   2.8345   C.ar      2 RES2   0.0000
    38 C11      9.9791  11.5045   7.1843   C.ar      2 RES2   0.0000
    39 H4      10.4843  11.1324   7.8976   H         2 RES2   0.0000
    40 C12      8.1134  12.7674   6.3406   C.ar      2 RES2   0.0000
    41 C13      9.6150  11.8528   4.8267   C.ar      2 RES2   0.0000
    42 H5       9.9045  11.7017   3.9347   H         2 RES2   0.0000
    43 C14      9.1271  17.0714   3.6758   C.ar      2 RES2   0.0000
    44 H6       9.1168  17.8873   4.1611   H         2 RES2   0.0000
    45 C15      6.9395  13.5579   6.5236   C.ar      2 RES2   0.0000
    46 C16      4.7898  15.2361   6.7774   C.ar      2 RES2   0.0000
    47 H7       4.0623  15.8444   6.8351   H         2 RES2   0.0000
    48 C17     10.0293  16.8972   2.6562   C.ar      2 RES2   0.0000
    49 H8      10.6485  17.5832   2.4387   H         2 RES2   0.0000
    50 C18      5.3737  14.7424   7.9198   C.ar      2 RES2   0.0000
    51 H9       5.0346  14.9890   8.7736   H         2 RES2   0.0000
    52 C19      5.4759  14.8149   1.8058   C.ar      2 RES2   0.0000
    53 H10      6.2325  15.3606   1.6263   H         2 RES2   0.0000
    54 C21      8.0406  11.3202   1.5956   C.ar      2 RES2   0.0000
    55 H11      7.4135  10.6885   1.9252   H         2 RES2   0.0000
    56 C22      8.2541  12.4937   8.7588   C.ar      2 RES2   0.0000
    57 H12      8.6727  12.1031   9.5164   H         2 RES2   0.0000
    58 C23     10.8287  14.1691   0.1850   C.ar      2 RES2   0.0000
    59 H13     11.4135  13.9991  -0.5431   H         2 RES2   0.0000
    60 C24      4.7160  11.8037   3.6278   C.ar      2 RES2   0.0000
    61 C25      3.2336  13.2444   2.2925   C.ar      2 RES2   0.0000
    62 C26      6.4751  13.8701   7.8202   C.ar      2 RES2   0.0000
    63 C27      9.8884  13.1478   0.5938   C.ar      2 RES2   0.0000
    64 C28      3.1265  14.3706   1.4457   C.ar      2 RES2   0.0000
    65 H14      2.2947  14.6013   1.0506   H         2 RES2   0.0000
    66 C29      6.2482  10.5140   4.7945   C.ar      2 RES2   0.0000
    67 H15      7.1327  10.3518   5.0978   H         2 RES2   0.0000
    68 C30      9.7821  11.8594   0.0044   C.ar      2 RES2   0.0000
    69 H16     10.3404  11.6172  -0.7251   H         2 RES2   0.0000
    70 C32     10.0244  15.6709   1.9311   C.ar      2 RES2   0.0000
    71 C34      2.3509  11.2444   3.3931   C.ar      2 RES2   0.0000
    72 H17      1.6154  10.6790   3.5959   H         2 RES2   0.0000
    73 C35      4.2505  15.1265   1.2031   C.ar      2 RES2   0.0000
    74 H18      4.1950  15.8717   0.6171   H         2 RES2   0.0000
    75 C37     10.8904  15.3694   0.8242   C.ar      2 RES2   0.0000
    76 H19     11.5185  16.0200   0.5327   H         2 RES2   0.0000
    77 C38      7.1524  13.2652   8.9364   C.ar      2 RES2   0.0000
    78 H20      6.8218  13.4082   9.8154   H         2 RES2   0.0000
    79 C39      8.8587  10.9655   0.5061   C.ar      2 RES2   0.0000
    80 H21      8.7736  10.1057   0.1125   H         2 RES2   0.0000
    81 C40      2.1513  12.3499   2.6177   C.ar      2 RES2   0.0000
    82 H22      1.2800  12.5339   2.2863   H         2 RES2   0.0000
    83 C41     10.3764  11.3268   5.8851   C.ar      2 RES2   0.0000
    84 H23     11.1724  10.8428   5.6986   H         2 RES2   0.0000
    85 C42      5.2327   9.5780   5.1171   C.ar      2 RES2   0.0000
    86 H24      5.4469   8.8059   5.6276   H         2 RES2   0.0000
    87 O13      6.3409  10.0555   7.9420   O.3       3 RES3   0.0000
@<TRIPOS>BOND
     1     1     2    1
     2     2    10    1
     3     3     1    1
     4     4     1    1
     5     5     1    1
     6     6     1    1
     7     7     1    1
     8     8    15    2
     9     9    14    2
    10    10    12    2
    11    11     5    1
    12    13    16    2
    13    14     4    1
    14    15     6    1
    15    16     7    1
    16    17    18    2
    17    18     3    1
    18    19    11    2
    19    10    16    1
    20    11    15    1
    21    14    18    1
    22    20    21    1
    23    21    40   ar
    24    22    20    1
    25    23    20    1
    26    24    20    1
    27    25    20    1
    28    26    20    1
    29    27    32   ar
    30    28    38   ar
    31    29    22   ar
    32    30    29    1
    33    31    22   ar
    34    32    33    1
    35    34    26   ar
    36    35    25   ar
    37    36    35    1
    38    37    24   ar
    39    38    39    1
    40    40    28   ar
    41    41    21   ar
    42    42    41    1
    43    43    29   ar
    44    44    43    1
    45    45    25   ar
    46    46    35   ar
    47    47    46    1
    48    48    43   ar
    49    49    48    1
    50    50    46   ar
    51    51    50    1
    52    52    24   ar
    53    53    52    1
    54    54    26   ar
    55    55    54    1
    56    56    28   ar
    57    57    56    1
    58    58    59    1
    59    60    23   ar
    60    61    37   ar
    61    62    45   ar
    62    63    34   ar
    63    64    61   ar
    64    65    64    1
    65    66    23   ar
    66    67    66    1
    67    68    63   ar
    68    69    68    1
    69    70    31   ar
    70    71    27   ar
    71    72    71    1
    72    73    52   ar
    73    74    73    1
    74    75    58   ar
    75    76    75    1
    76    77    56   ar
    77    78    77    1
    78    79    54   ar
    79    80    79    1
    80    81    61   ar
    81    82    81    1
    82    83    38   ar
    83    84    83    1
    84    85    32   ar
    85    86    85    1
    86    27    60   ar
    87    31    34   ar
    88    37    60   ar
    89    40    45   ar
    90    41    83   ar
    91    48    70   ar
    92    50    62   ar
    93    58    63   ar
    94    62    77   ar
    95    64    73   ar
    96    66    85   ar
    97    68    79   ar
    98    70    75   ar
    99    71    81   ar
@<TRIPOS>SUBSTRUCTURE
     1 RES1        1 GROUP             0 ****  ****    0  
     2 RES2       20 GROUP             0 ****  ****    0  
     3 RES3       87 GROUP             0 ****  ****    0  
@<TRIPOS>CRYSIN
   11.3137   12.0536   16.0827  109.0590   94.6640  111.5360     2     1
