@<TRIPOS>MOLECULE
WIPJOY
    98   111     2     0     0
SMALL
NO_CHARGES
****
Generated from the CSD

@<TRIPOS>ATOM
     1 Fe1     -0.6821  17.3746   8.7253   Fe        1 RES1   0.0000
     2 N1      -2.5104  16.8973   8.0333   N.2       1 RES1   0.0000
     3 N2      -2.6133  15.5865   7.6900   N.pl3     1 RES1   0.0000
     4 N3      -1.3977  19.1517   9.3317   N.2       1 RES1   0.0000
     5 N4      -1.4899  20.0668   8.3276   N.pl3     1 RES1   0.0000
     6 N5      -1.2492  16.5644  10.4853   N.2       1 RES1   0.0000
     7 N6      -0.3060  16.6552  11.4534   N.pl3     1 RES1   0.0000
     8 C1      -3.7559  17.3667   8.0702   C.2       1 RES1   0.0000
     9 H1      -3.9925  18.2613   8.2853   H         1 RES1   0.0000
    10 C2      -4.6664  16.3547   7.7472   C.2       1 RES1   0.0000
    11 H2      -5.6127  16.4257   7.7031   H         1 RES1   0.0000
    12 C3      -3.9064  15.2398   7.5078   C.2       1 RES1   0.0000
    13 H3      -4.2291  14.3814   7.2596   H         1 RES1   0.0000
    14 C4      -1.3869  14.8845   7.5417   C.ar      1 RES1   0.0000
    15 C5      -1.3509  13.6099   7.0427   C.ar      1 RES1   0.0000
    16 H4      -2.1547  13.1464   6.8386   H         1 RES1   0.0000
    17 C6      -0.0883  12.9950   6.8365   C.ar      1 RES1   0.0000
    18 C7       0.0310  11.6878   6.3034   C.ar      1 RES1   0.0000
    19 H5      -0.7512  11.1730   6.1425   H         1 RES1   0.0000
    20 C8       1.2658  11.1560   6.0162   C.ar      1 RES1   0.0000
    21 H6       1.3333  10.2793   5.6564   H         1 RES1   0.0000
    22 C9       2.4307  11.9110   6.2558   C.ar      1 RES1   0.0000
    23 H7       3.2809  11.5442   6.0449   H         1 RES1   0.0000
    24 C10      2.3472  13.1700   6.7900   C.ar      1 RES1   0.0000
    25 H8       3.1426  13.6642   6.9498   H         1 RES1   0.0000
    26 C11      1.0869  13.7475   7.1089   C.ar      1 RES1   0.0000
    27 C12      0.9737  15.0479   7.6743   C.ar      1 RES1   0.0000
    28 H9       1.7690  15.5245   7.8812   H         1 RES1   0.0000
    29 C13     -0.2390  15.6454   7.9343   C.ar      1 RES1   0.0000
    30 C14     -2.0297  19.6992  10.3725   C.2       1 RES1   0.0000
    31 H10     -2.1274  19.2848  11.2218   H         1 RES1   0.0000
    32 C15     -2.5264  20.9585  10.0474   C.2       1 RES1   0.0000
    33 H11     -3.0098  21.5503  10.6118   H         1 RES1   0.0000
    34 C16     -2.1674  21.1645   8.7327   C.2       1 RES1   0.0000
    35 H12     -2.3600  21.9334   8.2093   H         1 RES1   0.0000
    36 C17     -0.8287  19.7188   7.1222   C.ar      1 RES1   0.0000
    37 C18     -0.7711  20.5965   6.0683   C.ar      1 RES1   0.0000
    38 H13     -1.2066  21.4395   6.1156   H         1 RES1   0.0000
    39 C19     -0.0479  20.2200   4.9065   C.ar      1 RES1   0.0000
    40 C20      0.0507  21.0793   3.7831   C.ar      1 RES1   0.0000
    41 H14     -0.3911  21.9203   3.7924   H         1 RES1   0.0000
    42 C21      0.7797  20.7050   2.6829   C.ar      1 RES1   0.0000
    43 H15      0.8406  21.2869   1.9345   H         1 RES1   0.0000
    44 C22      1.4370  19.4613   2.6603   C.ar      1 RES1   0.0000
    45 H16      1.9441  19.2093   1.8975   H         1 RES1   0.0000
    46 C23      1.3504  18.6107   3.7324   C.ar      1 RES1   0.0000
    47 H17      1.7899  17.7694   3.6968   H         1 RES1   0.0000
    48 C24      0.6173  18.9641   4.8922   C.ar      1 RES1   0.0000
    49 C25      0.5077  18.1021   6.0204   C.ar      1 RES1   0.0000
    50 H18      0.9654  17.2699   6.0028   H         1 RES1   0.0000
    51 C26     -0.2337  18.4230   7.1361   C.ar      1 RES1   0.0000
    52 C27     -2.3520  16.1212  11.0866   C.2       1 RES1   0.0000
    53 H19     -3.1807  15.9614  10.6505   H         1 RES1   0.0000
    54 C28     -2.1159  15.9247  12.4521   C.2       1 RES1   0.0000
    55 H20     -2.7343  15.6155  13.1042   H         1 RES1   0.0000
    56 C29     -0.8043  16.2726  12.6499   C.2       1 RES1   0.0000
    57 H21     -0.3334  16.2489  13.4746   H         1 RES1   0.0000
    58 C30      0.9601  17.1469  11.0417   C.ar      1 RES1   0.0000
    59 C31      2.0073  17.2165  11.9217   C.ar      1 RES1   0.0000
    60 H22      1.9115  16.9018  12.8130   H         1 RES1   0.0000
    61 C32      3.2319  17.7640  11.4804   C.ar      1 RES1   0.0000
    62 C33      4.3414  17.9120  12.3566   C.ar      1 RES1   0.0000
    63 H23      4.2694  17.6269  13.2601   H         1 RES1   0.0000
    64 C34      5.5114  18.4611  11.9106   C.ar      1 RES1   0.0000
    65 H24      6.2469  18.5575  12.5040   H         1 RES1   0.0000
    66 C35      5.6288  18.8832  10.5745   C.ar      1 RES1   0.0000
    67 H25      6.4446  19.2661  10.2740   H         1 RES1   0.0000
    68 C36      4.5826  18.7498   9.6999   C.ar      1 RES1   0.0000
    69 H26      4.6825  19.0350   8.7992   H         1 RES1   0.0000
    70 C37      3.3507  18.1891  10.1277   C.ar      1 RES1   0.0000
    71 C38      2.2277  18.0723   9.2575   C.ar      1 RES1   0.0000
    72 H27      2.3212  18.3473   8.3529   H         1 RES1   0.0000
    73 C39      1.0085  17.5748   9.6771   C.ar      1 RES1   0.0000
    74 N7       0.5723  21.7212  11.5093   N.pl3     2 RES2   0.0000
    75 N8      -0.0784  22.4131  12.4827   N.2       2 RES2   0.0000
    76 C40     -0.1032  21.5615  13.4965   C.2       2 RES2   0.0000
    77 H28     -0.4994  21.7613  14.3370   H         2 RES2   0.0000
    78 C41      0.5090  20.3457  13.2105   C.2       2 RES2   0.0000
    79 H29      0.6135  19.5940  13.7819   H         2 RES2   0.0000
    80 C42      0.9239  20.4834  11.9187   C.2       2 RES2   0.0000
    81 H30      1.3782  19.8284  11.4015   H         2 RES2   0.0000
    82 C43      0.7453  22.2994  10.2214   C.ar      2 RES2   0.0000
    83 C44      0.0509  23.4949   9.9084   C.ar      2 RES2   0.0000
    84 H31     -0.5046  23.9113  10.5567   H         2 RES2   0.0000
    85 C45      0.1879  24.0446   8.6582   C.ar      2 RES2   0.0000
    86 H32     -0.2739  24.8487   8.4522   H         2 RES2   0.0000
    87 C46      1.0004  23.4428   7.6721   C.ar      2 RES2   0.0000
    88 C47      1.1602  23.9823   6.3642   C.ar      2 RES2   0.0000
    89 H33      0.6844  24.7681   6.1224   H         2 RES2   0.0000
    90 C48      1.9791  23.3947   5.4600   C.ar      2 RES2   0.0000
    91 H34      2.0742  23.7722   4.5936   H         2 RES2   0.0000
    92 C49      2.6883  22.2289   5.7967   C.ar      2 RES2   0.0000
    93 H35      3.2637  21.8251   5.1567   H         2 RES2   0.0000
    94 C50      2.5567  21.6709   7.0419   C.ar      2 RES2   0.0000
    95 H36      3.0407  20.8822   7.2573   H         2 RES2   0.0000
    96 C51      1.7124  22.2555   8.0049   C.ar      2 RES2   0.0000
    97 C52      1.5601  21.7034   9.3015   C.ar      2 RES2   0.0000
    98 H37      2.0296  20.9107   9.5330   H         2 RES2   0.0000
@<TRIPOS>BOND
     1     1     2    1
     2     2     3    1
     3     3    12    1
     4     4     1    1
     5     5     4    1
     6     6     1    1
     7     7     6    1
     8     8     2    2
     9     9     8    1
    10    10     8    1
    11    11    10    1
    12    12    10    2
    13    13    12    1
    14    14     3    1
    15    15    14   ar
    16    16    15    1
    17    17    15   ar
    18    18    17   ar
    19    19    18    1
    20    20    18   ar
    21    21    20    1
    22    22    20   ar
    23    23    22    1
    24    24    22   ar
    25    25    24    1
    26    26    17   ar
    27    27    26   ar
    28    28    27    1
    29    29     1    1
    30    30     4    2
    31    31    30    1
    32    32    30    1
    33    33    32    1
    34    34     5    1
    35    35    34    1
    36    36     5    1
    37    37    36   ar
    38    38    37    1
    39    39    37   ar
    40    40    39   ar
    41    41    40    1
    42    42    40   ar
    43    43    42    1
    44    44    42   ar
    45    45    44    1
    46    46    44   ar
    47    47    46    1
    48    48    39   ar
    49    49    48   ar
    50    50    49    1
    51    51     1    1
    52    52     6    2
    53    53    52    1
    54    54    52    1
    55    55    54    1
    56    56     7    1
    57    57    56    1
    58    58     7    1
    59    59    58   ar
    60    60    59    1
    61    61    59   ar
    62    62    61   ar
    63    63    62    1
    64    64    62   ar
    65    65    64    1
    66    66    64   ar
    67    67    66    1
    68    68    66   ar
    69    69    68    1
    70    70    61   ar
    71    71    70   ar
    72    72    71    1
    73    73     1    1
    74    14    29   ar
    75    24    26   ar
    76    27    29   ar
    77    32    34    2
    78    36    51   ar
    79    46    48   ar
    80    49    51   ar
    81    54    56    2
    82    58    73   ar
    83    68    70   ar
    84    71    73   ar
    85    74    75    1
    86    75    76    2
    87    76    77    1
    88    78    76    1
    89    79    78    1
    90    80    74    1
    91    81    80    1
    92    82    74    1
    93    83    82   ar
    94    84    83    1
    95    85    83   ar
    96    86    85    1
    97    87    85   ar
    98    88    87   ar
    99    89    88    1
   100    90    88   ar
   101    91    90    1
   102    92    90   ar
   103    93    92    1
   104    94    92   ar
   105    95    94    1
   106    96    87   ar
   107    97    82   ar
   108    98    97    1
   109    78    80    2
   110    94    96   ar
   111    96    97   ar
@<TRIPOS>SUBSTRUCTURE
     1 RES1        1 GROUP             0 ****  ****    0  
     2 RES2       74 GROUP             0 ****  ****    0  
@<TRIPOS>CRYSIN
   11.3521   30.6550   12.3313   90.0000  110.7230   90.0000   231     1
