@<TRIPOS>MOLECULE
WIRCEJ
    75    84     1     0     0
SMALL
NO_CHARGES
****
Generated from the CSD

@<TRIPOS>ATOM
     1 Fe1     11.9005   8.2088   8.7328   Fe        1 RES1   0.0000
     2 N1      10.3392   9.2001   8.0434   N.ar      1 RES1   0.0000
     3 N2      12.6819   9.6265   9.6911   N.2       1 RES1   0.0000
     4 N3      13.0461   6.6913   9.1476   N.2       1 RES1   0.0000
     5 N4       9.8688   7.0647   7.1462   N.2       1 RES1   0.0000
     6 N5      10.9887   6.8303   7.8147   N.2       1 RES1   0.0000
     7 N6      13.6217  10.1188   7.6755   N.2       1 RES1   0.0000
     8 N7      12.9727   9.0293   7.3373   N.2       1 RES1   0.0000
     9 N8      12.3964   9.8467  10.9637   N.2       1 RES1   0.0000
    10 N9      12.6432   5.5300   8.6925   N.2       1 RES1   0.0000
    11 N10     11.0272   7.9775  10.4926   N.ar      1 RES1   0.0000
    12 C1      14.3232  11.5841   9.4808   C.ar      1 RES1   0.0000
    13 C2      12.9571   7.4404   5.4919   C.ar      1 RES1   0.0000
    14 H1      12.8578   6.7333   6.1185   H         1 RES1   0.0000
    15 C3      13.5159  10.4427   8.9846   C.2       1 RES1   0.0000
    16 C4      13.0141   8.7608   5.9408   C.ar      1 RES1   0.0000
    17 C5      16.1784   7.5229  10.9398   C.ar      1 RES1   0.0000
    18 H2      16.8071   8.2341  10.9846   H         1 RES1   0.0000
    19 C6      10.0308  10.5004   8.2012   C.ar      1 RES1   0.0000
    20 H3      10.5961  11.0468   8.7350   H         1 RES1   0.0000
    21 C7      14.1553   6.5877  10.0275   C.ar      1 RES1   0.0000
    22 C8      13.0451   7.1518   4.1373   C.ar      1 RES1   0.0000
    23 H4      13.0147   6.2497   3.8424   H         1 RES1   0.0000
    24 C9       8.9157  11.0670   7.6104   C.ar      1 RES1   0.0000
    25 H5       8.7197  11.9885   7.7299   H         1 RES1   0.0000
    26 C10      9.5320   8.4015   7.2823   C.ar      1 RES1   0.0000
    27 C11     13.2212   9.4922   3.6510   C.ar      1 RES1   0.0000
    28 H6      13.3131  10.1936   3.0169   H         1 RES1   0.0000
    29 C12     13.1315   9.8008   4.9974   C.ar      1 RES1   0.0000
    30 H7      13.1484  10.7072   5.2834   H         1 RES1   0.0000
    31 C13      9.6298   7.0199  12.1737   C.ar      1 RES1   0.0000
    32 H8       8.9879   6.3656  12.4244   H         1 RES1   0.0000
    33 C14     16.3757   6.3933  11.7020   C.ar      1 RES1   0.0000
    34 H9      17.1321   6.3287  12.2740   H         1 RES1   0.0000
    35 C15     11.1182   4.3403   7.2562   C.ar      1 RES1   0.0000
    36 C16     10.1139   7.0706  10.8843   C.ar      1 RES1   0.0000
    37 H10      9.7928   6.4415  10.2490   H         1 RES1   0.0000
    38 C17     10.1025   7.9551  13.1089   C.ar      1 RES1   0.0000
    39 H11      9.7886   7.9373  14.0045   H         1 RES1   0.0000
    40 C18     11.5290   5.5936   7.9237   C.2       1 RES1   0.0000
    41 C19     11.0285   8.8998  12.7155   C.ar      1 RES1   0.0000
    42 H12     11.3538   9.5416  13.3352   H         1 RES1   0.0000
    43 C20     15.1677  12.2542   8.5668   C.ar      1 RES1   0.0000
    44 H13     15.2009  11.9672   7.6622   H         1 RES1   0.0000
    45 C21     13.1788   8.1754   3.2136   C.ar      1 RES1   0.0000
    46 H14     13.2421   7.9783   2.2859   H         1 RES1   0.0000
    47 C22     15.0747   7.6359  10.1107   C.ar      1 RES1   0.0000
    48 H15     14.9438   8.4248   9.5985   H         1 RES1   0.0000
    49 C23     14.3607   5.4287  10.7946   C.ar      1 RES1   0.0000
    50 H16     13.7459   4.7059  10.7402   H         1 RES1   0.0000
    51 C24     14.3346  12.0093  10.8158   C.ar      1 RES1   0.0000
    52 H17     13.8028  11.5573  11.4605   H         1 RES1   0.0000
    53 C25     11.6969   3.1354   7.6871   C.ar      1 RES1   0.0000
    54 H18     12.2950   3.1361   8.4249   H         1 RES1   0.0000
    55 C26     15.9485  13.3261   8.9764   C.ar      1 RES1   0.0000
    56 H19     16.5039  13.7719   8.3475   H         1 RES1   0.0000
    57 C27     11.4817   8.8986  11.3952   C.ar      1 RES1   0.0000
    58 C28     11.3969   1.9340   7.0359   C.ar      1 RES1   0.0000
    59 H20     11.7922   1.1226   7.3328   H         1 RES1   0.0000
    60 C29     15.4627   5.3450  11.6286   C.ar      1 RES1   0.0000
    61 H21     15.5971   4.5657  12.1562   H         1 RES1   0.0000
    62 C30     15.1220  13.0882  11.2026   C.ar      1 RES1   0.0000
    63 H22     15.1100  13.3742  12.1089   H         1 RES1   0.0000
    64 C31     10.2346   4.3191   6.1693   C.ar      1 RES1   0.0000
    65 H23      9.8344   5.1251   5.8660   H         1 RES1   0.0000
    66 C32     15.9208  13.7501  10.2919   C.ar      1 RES1   0.0000
    67 H24     16.4489  14.4908  10.5668   H         1 RES1   0.0000
    68 C33      8.0859  10.2649   6.8368   C.ar      1 RES1   0.0000
    69 H25      7.3152  10.6362   6.4240   H         1 RES1   0.0000
    70 C34     10.5199   1.9246   5.9571   C.ar      1 RES1   0.0000
    71 H26     10.3172   1.1089   5.5149   H         1 RES1   0.0000
    72 C35      8.3810   8.9280   6.6703   C.ar      1 RES1   0.0000
    73 H27      7.8145   8.3712   6.1489   H         1 RES1   0.0000
    74 C36      9.9444   3.1036   5.5311   C.ar      1 RES1   0.0000
    75 H28      9.3436   3.0929   4.7948   H         1 RES1   0.0000
@<TRIPOS>BOND
     1     1     2    1
     2     2    19   ar
     3     3     1    1
     4     4     1    1
     5     5     6    2
     6     6     1    1
     7     7     8    1
     8     8     1    1
     9     9     3    2
    10    10     4    1
    11    11     1    1
    12    12    15    1
    13    13    14    1
    14    15     3    1
    15    16     8    1
    16    17    18    1
    17    19    20    1
    18    21     4    1
    19    22    13   ar
    20    23    22    1
    21    24    19   ar
    22    25    24    1
    23    26     2   ar
    24    27    28    1
    25    29    16   ar
    26    30    29    1
    27    31    32    1
    28    33    17   ar
    29    34    33    1
    30    35    40    1
    31    36    11   ar
    32    37    36    1
    33    38    31   ar
    34    39    38    1
    35    40     6    1
    36    41    38   ar
    37    42    41    1
    38    43    12   ar
    39    44    43    1
    40    45    22   ar
    41    46    45    1
    42    47    17   ar
    43    48    47    1
    44    49    21   ar
    45    50    49    1
    46    51    12   ar
    47    52    51    1
    48    53    35   ar
    49    54    53    1
    50    55    43   ar
    51    56    55    1
    52    57     9    1
    53    58    53   ar
    54    59    58    1
    55    60    33   ar
    56    61    60    1
    57    62    51   ar
    58    63    62    1
    59    64    35   ar
    60    65    64    1
    61    66    55   ar
    62    67    66    1
    63    68    24   ar
    64    69    68    1
    65    70    58   ar
    66    71    70    1
    67    72    26   ar
    68    73    72    1
    69    74    64   ar
    70    75    74    1
    71     5    26    1
    72     7    15    2
    73    10    40    2
    74    11    57   ar
    75    13    16   ar
    76    21    47   ar
    77    27    29   ar
    78    27    45   ar
    79    31    36   ar
    80    41    57   ar
    81    49    60   ar
    82    62    66   ar
    83    68    72   ar
    84    70    74   ar
@<TRIPOS>SUBSTRUCTURE
     1 RES1        1 GROUP             0 ****  ****    0  
@<TRIPOS>CRYSIN
   16.3023   11.7784   16.3208   90.0000   90.0000   90.0000    33     1
