@<TRIPOS>MOLECULE
WIRCIN
    77    86     1     0     0
SMALL
NO_CHARGES
****
Generated from the CSD

@<TRIPOS>ATOM
     1 Fe1      1.3221   7.3508  14.3846   Fe        1 RES1   0.0000
     2 O1       4.0795   7.5427  10.3004   O.3       1 RES1   0.0000
     3 H1       3.4428   7.1534  10.6861   H         1 RES1   0.0000
     4 N1       2.6447   7.1547  13.0754   N.2       1 RES1   0.0000
     5 N2       2.4856   6.3289  12.0276   N.2       1 RES1   0.0000
     6 N3       3.8093   8.5923  14.3995   N.2       1 RES1   0.0000
     7 N4       0.4101   6.1406  13.1085   N.ar      1 RES1   0.0000
     8 N5      -0.6279   9.3231  14.6570   N.2       1 RES1   0.0000
     9 N6       0.3749   8.9685  13.8879   N.2       1 RES1   0.0000
    10 N7       2.7156   8.4727  15.1071   N.2       1 RES1   0.0000
    11 N8      -0.0022   7.4010  15.6955   N.2       1 RES1   0.0000
    12 N9       1.8224   5.7686  15.4701   N.ar      1 RES1   0.0000
    13 N10     -0.1045   6.4260  16.6216   N.2       1 RES1   0.0000
    14 C1       1.2108   5.7908  12.0624   C.ar      1 RES1   0.0000
    15 O2      -1.1546   7.8637  18.6026   O.3       1 RES1   0.0000
    16 H2      -0.6763   7.3411  18.1508   H         1 RES1   0.0000
    17 C2       3.7996   7.8015  13.2780   C.2       1 RES1   0.0000
    18 C3       5.1574   7.5668  11.1207   C.ar      1 RES1   0.0000
    19 C4       5.0681   7.6913  12.5214   C.ar      1 RES1   0.0000
    20 C5       0.7535   4.9171  11.0671   C.ar      1 RES1   0.0000
    21 H3       1.3100   4.6951  10.3296   H         1 RES1   0.0000
    22 C6       0.8182   9.9908  13.0001   C.ar      1 RES1   0.0000
    23 C7       2.6128   9.4022  16.1926   C.ar      1 RES1   0.0000
    24 C8      -1.3195   4.7278  12.2400   C.ar      1 RES1   0.0000
    25 H4      -2.1963   4.3724  12.3194   H         1 RES1   0.0000
    26 C9       1.3738   9.6598  11.7731   C.ar      1 RES1   0.0000
    27 H5       1.4327   8.7514  11.5008   H         1 RES1   0.0000
    28 C10     -0.5100   4.3850  11.1702   C.ar      1 RES1   0.0000
    29 H6      -0.8272   3.7826  10.5078   H         1 RES1   0.0000
    30 C11     -0.8794   8.4150  15.6524   C.2       1 RES1   0.0000
    31 C12      6.4112   7.4890  10.5148   C.ar      1 RES1   0.0000
    32 H7       6.4714   7.4015   9.5708   H         1 RES1   0.0000
    33 C13     -0.8205   5.5985  13.1890   C.ar      1 RES1   0.0000
    34 H8      -1.3696   5.8253  13.9305   H         1 RES1   0.0000
    35 C14     -2.1040   8.6236  16.4716   C.ar      1 RES1   0.0000
    36 C15      2.9994  10.7228  16.0250   C.ar      1 RES1   0.0000
    37 H9       3.3665  11.0118  15.1979   H         1 RES1   0.0000
    38 C16      0.9412   5.5329  16.4565   C.ar      1 RES1   0.0000
    39 C17      6.2597   7.7410  13.2582   C.ar      1 RES1   0.0000
    40 H10      6.2165   7.8255  14.2035   H         1 RES1   0.0000
    41 C18      2.8724   4.9469  15.3136   C.ar      1 RES1   0.0000
    42 H11      3.4888   5.1232  14.6121   H         1 RES1   0.0000
    43 C19     -3.1963   9.2394  15.8393   C.ar      1 RES1   0.0000
    44 H12     -3.1146   9.5105  14.9325   H         1 RES1   0.0000
    45 C20     -2.2139   8.2971  17.8340   C.ar      1 RES1   0.0000
    46 C21      2.1187   8.9769  17.4064   C.ar      1 RES1   0.0000
    47 H13      1.8673   8.0697  17.5317   H         1 RES1   0.0000
    48 C22      0.7386  11.3371  13.3865   C.ar      1 RES1   0.0000
    49 H14      0.3527  11.5680  14.2234   H         1 RES1   0.0000
    50 C23      2.8465  11.6189  17.0664   C.ar      1 RES1   0.0000
    51 H15      3.1005  12.5268  16.9505   H         1 RES1   0.0000
    52 C24      1.9906   9.8924  18.4467   C.ar      1 RES1   0.0000
    53 H16      1.6641   9.6003  19.2895   H         1 RES1   0.0000
    54 C25      1.8429  10.6781  10.9456   C.ar      1 RES1   0.0000
    55 H17      2.2156  10.4592  10.0994   H         1 RES1   0.0000
    56 C26      2.3271  11.1985  18.2752   C.ar      1 RES1   0.0000
    57 H18      2.2050  11.8192  18.9838   H         1 RES1   0.0000
    58 C27     -3.4325   8.5162  18.5061   C.ar      1 RES1   0.0000
    59 H19     -3.5153   8.2840  19.4236   H         1 RES1   0.0000
    60 C28      3.0915   3.8630  16.1272   C.ar      1 RES1   0.0000
    61 H20      3.8605   3.3168  16.0120   H         1 RES1   0.0000
    62 C29      7.4954   7.6694  12.6452   C.ar      1 RES1   0.0000
    63 H21      8.2899   7.7109  13.1644   H         1 RES1   0.0000
    64 C30      7.5682   7.5382  11.2722   C.ar      1 RES1   0.0000
    65 H22      8.4154   7.4823  10.8462   H         1 RES1   0.0000
    66 C31      1.2218  12.3316  12.5483   C.ar      1 RES1   0.0000
    67 H23      1.1693  13.2422  12.8134   H         1 RES1   0.0000
    68 C32      1.0850   4.4177  17.2851   C.ar      1 RES1   0.0000
    69 H24      0.4395   4.2359  17.9581   H         1 RES1   0.0000
    70 C33      1.7753  12.0036  11.3370   C.ar      1 RES1   0.0000
    71 H25      2.1120  12.6862  10.7688   H         1 RES1   0.0000
    72 C34     -4.3988   9.4630  16.5092   C.ar      1 RES1   0.0000
    73 H26     -5.1320   9.8767  16.0695   H         1 RES1   0.0000
    74 C35     -4.5001   9.0649  17.8404   C.ar      1 RES1   0.0000
    75 H27     -5.3256   9.1743  18.2965   H         1 RES1   0.0000
    76 C36      2.1661   3.5827  17.1208   C.ar      1 RES1   0.0000
    77 H28      2.2775   2.8241  17.6815   H         1 RES1   0.0000
@<TRIPOS>BOND
     1     1     4    1
     2     2     3    1
     3     4     5    2
     4     5    14    1
     5     6    10    1
     6     7     1    1
     7     8     9    1
     8     9     1    1
     9    10     1    1
    10    11     1    1
    11    12     1    1
    12    13    11    2
    13    14     7   ar
    14    15    16    1
    15    17     4    1
    16    18     2    1
    17    19    17    1
    18    20    14   ar
    19    21    20    1
    20    22     9    1
    21    23    10    1
    22    24    25    1
    23    26    22   ar
    24    27    26    1
    25    28    20   ar
    26    29    28    1
    27    30     8    2
    28    31    18   ar
    29    32    31    1
    30    33     7   ar
    31    34    33    1
    32    35    30    1
    33    36    23   ar
    34    37    36    1
    35    38    12   ar
    36    39    19   ar
    37    40    39    1
    38    41    12   ar
    39    42    41    1
    40    43    35   ar
    41    44    43    1
    42    45    15    1
    43    46    23   ar
    44    47    46    1
    45    48    22   ar
    46    49    48    1
    47    50    36   ar
    48    51    50    1
    49    52    46   ar
    50    53    52    1
    51    54    26   ar
    52    55    54    1
    53    56    50   ar
    54    57    56    1
    55    58    45   ar
    56    59    58    1
    57    60    41   ar
    58    61    60    1
    59    62    39   ar
    60    63    62    1
    61    64    31   ar
    62    65    64    1
    63    66    48   ar
    64    67    66    1
    65    68    38   ar
    66    69    68    1
    67    70    54   ar
    68    71    70    1
    69    72    43   ar
    70    73    72    1
    71    74    58   ar
    72    75    74    1
    73    76    60   ar
    74    77    76    1
    75     6    17    2
    76    11    30    1
    77    13    38    1
    78    18    19   ar
    79    24    28   ar
    80    24    33   ar
    81    35    45   ar
    82    52    56   ar
    83    62    64   ar
    84    66    70   ar
    85    68    76   ar
    86    72    74   ar
@<TRIPOS>SUBSTRUCTURE
     1 RES1        1 GROUP             0 ****  ****    0  
@<TRIPOS>CRYSIN
   11.1273   14.9094   20.0684   90.0000  105.3800   90.0000   231     1
