@<TRIPOS>MOLECULE
WIRCAF
    81    90     1     0     0
SMALL
NO_CHARGES
****
Generated from the CSD

@<TRIPOS>ATOM
     1 Fe1     12.5819   8.1043   8.1550   Fe        1 RES1   0.0000
     2 S1       8.9245   8.8374  10.4652   S.3       1 RES1   0.0000
     3 S2      11.5660   8.6430   3.9343   S.3       1 RES1   0.0000
     4 N1      13.7768   6.6543   7.7195   N.2       1 RES1   0.0000
     5 N2      10.7328   6.8747   9.9157   N.2       1 RES1   0.0000
     6 N3      11.8148   6.6874   9.1398   N.2       1 RES1   0.0000
     7 N4      10.9183   8.9877   8.8558   N.2       1 RES1   0.0000
     8 N5      14.2853  10.0522   9.1724   N.2       1 RES1   0.0000
     9 N6      13.4767   5.4721   8.1916   N.2       1 RES1   0.0000
    10 N7      13.3767   9.5280   7.1612   N.2       1 RES1   0.0000
    11 N8      13.6421   8.9615   9.5159   N.2       1 RES1   0.0000
    12 N9      13.1282   9.6982   5.8712   N.2       1 RES1   0.0000
    13 C1      13.8842   7.3670  11.3493   C.ar      1 RES1   0.0000
    14 H1      13.8909   6.6541  10.7215   H         1 RES1   0.0000
    15 C2      13.7309   8.6839  10.9102   C.ar      1 RES1   0.0000
    16 C3      10.3227   8.1517   9.7021   C.2       1 RES1   0.0000
    17 N10     11.7005   7.8707   6.3633   N.2       1 RES1   0.0000
    18 C4      12.0621   4.1883   9.6731   C.ar      1 RES1   0.0000
    19 C5      12.4066   5.4744   9.0272   C.2       1 RES1   0.0000
    20 C6      14.8555   6.6326   6.7768   C.ar      1 RES1   0.0000
    21 C7      15.8165   7.6377   6.8178   C.ar      1 RES1   0.0000
    22 H2      15.7443   8.3412   7.4528   H         1 RES1   0.0000
    23 C8      13.6999   9.7279  11.8534   C.ar      1 RES1   0.0000
    24 H3      13.5841  10.6260  11.5674   H         1 RES1   0.0000
    25 C9      10.2659  10.2201   8.7640   C.2       1 RES1   0.0000
    26 C10     16.9859   6.5732   5.0048   C.ar      1 RES1   0.0000
    27 H4      17.7231   6.5492   4.4046   H         1 RES1   0.0000
    28 C11      9.1775  10.3264   9.5842   C.2       1 RES1   0.0000
    29 C12     14.9313  11.5679   7.3902   C.ar      1 RES1   0.0000
    30 C13     13.8394   9.4400  13.1930   C.ar      1 RES1   0.0000
    31 H5      13.8215  10.1483  13.8266   H         1 RES1   0.0000
    32 C14     11.5386   1.7041  10.8743   C.ar      1 RES1   0.0000
    33 H6      11.3500   0.8635  11.2732   H         1 RES1   0.0000
    34 C15     12.7390   3.0256   9.2630   C.ar      1 RES1   0.0000
    35 H7      13.3865   3.0791   8.5687   H         1 RES1   0.0000
    36 C16     16.8808   7.6069   5.9293   C.ar      1 RES1   0.0000
    37 H8      17.5375   8.2927   5.9530   H         1 RES1   0.0000
    38 C17     16.0283   5.5829   4.9519   C.ar      1 RES1   0.0000
    39 H9      16.0953   4.8895   4.3062   H         1 RES1   0.0000
    40 C18     12.4737   1.8012   9.8576   C.ar      1 RES1   0.0000
    41 H10     12.9353   1.0238   9.5666   H         1 RES1   0.0000
    42 C19     10.7120  11.2458   7.7815   C.3       1 RES1   0.0000
    43 H11     11.6542  11.4646   7.9431   H         1 RES1   0.0000
    44 H12     10.1677  12.0542   7.8815   H         1 RES1   0.0000
    45 H13     10.6107  10.8937   6.8725   H         1 RES1   0.0000
    46 C20     14.9623   5.6012   5.8489   C.ar      1 RES1   0.0000
    47 H14     14.3096   4.9105   5.8263   H         1 RES1   0.0000
    48 C21     14.0254   7.0986  12.7095   C.ar      1 RES1   0.0000
    49 H15     14.1346   6.2009  13.0012   H         1 RES1   0.0000
    50 C22     11.1425   4.0798  10.7273   C.ar      1 RES1   0.0000
    51 H16     10.6947   4.8538  11.0504   H         1 RES1   0.0000
    52 C23     10.7516   7.0472   5.7789   C.2       1 RES1   0.0000
    53 C24      8.2406  11.4902   9.7551   C.3       1 RES1   0.0000
    54 H17      7.6413  11.5441   8.9810   H         1 RES1   0.0000
    55 H18      8.7579  12.3187   9.8261   H         1 RES1   0.0000
    56 H19      7.7096  11.3654  10.5699   H         1 RES1   0.0000
    57 C25     14.1804  10.3709   7.8772   C.2       1 RES1   0.0000
    58 C26     10.5518   7.3316   4.4478   C.2       1 RES1   0.0000
    59 C27     10.0076   6.0615   6.6025   C.3       1 RES1   0.0000
    60 H20     10.6350   5.4093   6.9782   H         1 RES1   0.0000
    61 H21      9.3516   5.5967   6.0408   H         1 RES1   0.0000
    62 H22      9.5439   6.5261   7.3293   H         1 RES1   0.0000
    63 C28     14.0065   8.1254  13.6407   C.ar      1 RES1   0.0000
    64 H23     14.1070   7.9394  14.5664   H         1 RES1   0.0000
    65 C29     15.7821  12.2098   8.2958   C.ar      1 RES1   0.0000
    66 H24     15.8784  11.8574   9.1732   H         1 RES1   0.0000
    67 C30     10.8859   2.8383  11.2998   C.ar      1 RES1   0.0000
    68 H25     10.2461   2.7712  11.9985   H         1 RES1   0.0000
    69 C31      9.5805   6.6783   3.5114   C.3       1 RES1   0.0000
    70 H26      9.2687   7.3356   2.8540   H         1 RES1   0.0000
    71 H27      8.8153   6.3369   4.0193   H         1 RES1   0.0000
    72 H28     10.0221   5.9370   3.0473   H         1 RES1   0.0000
    73 C32     14.8280  12.0876   6.1206   C.ar      1 RES1   0.0000
    74 H29     14.2739  11.6619   5.4762   H         1 RES1   0.0000
    75 C33     12.2171   8.7616   5.5157   C.2       1 RES1   0.0000
    76 C34     16.4916  13.3600   7.9387   C.ar      1 RES1   0.0000
    77 H30     17.0578  13.7875   8.5700   H         1 RES1   0.0000
    78 C35     16.3659  13.8602   6.6931   C.ar      1 RES1   0.0000
    79 H31     16.8507  14.6392   6.4468   H         1 RES1   0.0000
    80 C36     15.5461  13.2537   5.7772   C.ar      1 RES1   0.0000
    81 H32     15.4598  13.6213   4.9045   H         1 RES1   0.0000
@<TRIPOS>BOND
     1     1     4    1
     2     2    16    1
     3     3    58    1
     4     4     9    2
     5     5     6    1
     6     6     1    1
     7     7     1    1
     8     8    11    2
     9     9    19    1
    10    10     1    1
    11    11     1    1
    12    12    10    1
    13    13    14    1
    14    15    11    1
    15    16     5    2
    16    17     1    1
    17    18    19    1
    18    19     6    2
    19    20     4    1
    20    21    20   ar
    21    22    21    1
    22    23    15   ar
    23    24    23    1
    24    25     7    1
    25    26    27    1
    26    28     2    1
    27    29    57    1
    28    30    23   ar
    29    31    30    1
    30    32    33    1
    31    34    18   ar
    32    35    34    1
    33    36    21   ar
    34    37    36    1
    35    38    26   ar
    36    39    38    1
    37    40    32   ar
    38    41    40    1
    39    42    25    1
    40    43    42    1
    41    44    42    1
    42    45    42    1
    43    46    20   ar
    44    47    46    1
    45    48    13   ar
    46    49    48    1
    47    50    18   ar
    48    51    50    1
    49    52    17    1
    50    53    28    1
    51    54    53    1
    52    55    53    1
    53    56    53    1
    54    57     8    1
    55    58    52    2
    56    59    52    1
    57    60    59    1
    58    61    59    1
    59    62    59    1
    60    63    30   ar
    61    64    63    1
    62    65    29   ar
    63    66    65    1
    64    67    32   ar
    65    68    67    1
    66    69    58    1
    67    70    69    1
    68    71    69    1
    69    72    69    1
    70    73    29   ar
    71    74    73    1
    72    75     3    1
    73    76    65   ar
    74    77    76    1
    75    78    76   ar
    76    79    78    1
    77    80    73   ar
    78    81    80    1
    79     7    16    1
    80    10    57    2
    81    12    75    2
    82    13    15   ar
    83    17    75    1
    84    25    28    2
    85    26    36   ar
    86    34    40   ar
    87    38    46   ar
    88    48    63   ar
    89    50    67   ar
    90    78    80   ar
@<TRIPOS>SUBSTRUCTURE
     1 RES1        1 GROUP             0 ****  ****    0  
@<TRIPOS>CRYSIN
   17.2218   11.4217   17.0872   90.0000   90.0000   90.0000    33     1
