@<TRIPOS>MOLECULE
WISHUE
   120   127     2     0     0
SMALL
NO_CHARGES
****
Generated from the CSD

@<TRIPOS>ATOM
     1 Fe1      2.3358   1.2151   6.5144   Fe        1 RES1   0.0000
     2 S1       4.2378   0.9820   4.8104   S.3       1 RES1   0.0000
     3 S2       3.5976   3.5142   7.1285   S.3       1 RES1   0.0000
     4 Cl1      1.4321  -0.7998   6.0853   Cl        1 RES1   0.0000
     5 C1       5.4076   2.2478   5.3897   C.3       1 RES1   0.0000
     6 H1       5.8804   1.8986   6.1622   H         1 RES1   0.0000
     7 H2       6.0629   2.4012   4.6920   H         1 RES1   0.0000
     8 C2       4.7892   3.5741   5.7673   C.3       1 RES1   0.0000
     9 H3       4.3454   3.9396   4.9866   H         1 RES1   0.0000
    10 H4       5.5009   4.1866   6.0110   H         1 RES1   0.0000
    11 C3       3.3891   1.8866   3.5405   C.ar      1 RES1   0.0000
    12 C4       2.1488   2.4469   3.8810   C.ar      1 RES1   0.0000
    13 C5       2.0953   3.3956   1.6762   C.ar      1 RES1   0.0000
    14 H5       1.6548   3.9124   1.0403   H         1 RES1   0.0000
    15 C6       1.4922   3.2368   2.9113   C.ar      1 RES1   0.0000
    16 C7       3.3289   2.8277   1.3227   C.ar      1 RES1   0.0000
    17 C8       3.9575   2.0574   2.2868   C.ar      1 RES1   0.0000
    18 H6       4.7703   1.6505   2.0912   H         1 RES1   0.0000
    19 C9       4.5485   2.7744   8.4254   C.ar      1 RES1   0.0000
    20 C10      5.3982   3.5338   9.2306   C.ar      1 RES1   0.0000
    21 H7       5.4930   4.4445   9.0682   H         1 RES1   0.0000
    22 C11      6.0974   2.9485  10.2624   C.ar      1 RES1   0.0000
    23 C12      4.3497   1.3992   8.6507   C.ar      1 RES1   0.0000
    24 C13      5.0943   0.7670   9.6881   C.ar      1 RES1   0.0000
    25 C14      5.9334   1.5667  10.4495   C.ar      1 RES1   0.0000
    26 H8       6.4196   1.1609  11.1302   H         1 RES1   0.0000
    27 C15      0.3355   4.7894   4.5115   C.ar      1 RES1   0.0000
    28 C16      0.1507   3.8918   3.2762   C.3       1 RES1   0.0000
    29 C17     -0.3794   4.7981   2.1472   C.3       1 RES1   0.0000
    30 H9      -1.2067   5.2006   2.4230   H         1 RES1   0.0000
    31 H10     -0.5268   4.2726   1.3588   H         1 RES1   0.0000
    32 H11      0.2641   5.4846   1.9585   H         1 RES1   0.0000
    33 C18      1.4409   5.6348   4.5922   C.ar      1 RES1   0.0000
    34 H12      2.0803   5.6119   3.9171   H         1 RES1   0.0000
    35 O1       1.6197   2.2521   5.0813   O.3       1 RES1   0.0000
    36 C19      6.9618   3.7395  11.2664   C.3       1 RES1   0.0000
    37 O2       3.4992   0.6927   7.9220   O.3       1 RES1   0.0000
    38 C20      8.3308   3.1030  11.3927   C.ar      1 RES1   0.0000
    39 C21      7.1320   5.2180  10.8452   C.3       1 RES1   0.0000
    40 H13      7.6683   5.6761  11.4964   H         1 RES1   0.0000
    41 H14      6.2704   5.6358  10.7905   H         1 RES1   0.0000
    42 H15      7.5639   5.2594   9.9891   H         1 RES1   0.0000
    43 C22      6.2024   3.7405  12.6002   C.3       1 RES1   0.0000
    44 H16      6.0394   2.8353  12.8764   H         1 RES1   0.0000
    45 H17      5.3657   4.1975  12.4916   H         1 RES1   0.0000
    46 H18      6.7275   4.1877  13.2666   H         1 RES1   0.0000
    47 C23      8.8992   2.7450  12.5832   C.ar      1 RES1   0.0000
    48 H19      8.4184   2.8930  13.3648   H         1 RES1   0.0000
    49 C24      9.1206   2.9626  10.2863   C.ar      1 RES1   0.0000
    50 H20      8.8158   3.2760   9.4663   H         1 RES1   0.0000
    51 C25      5.1560  -1.5635   8.6844   C.ar      1 RES1   0.0000
    52 C26      6.0103  -1.1304   7.6940   C.ar      1 RES1   0.0000
    53 H21      6.4166  -0.2959   7.7651   H         1 RES1   0.0000
    54 C27      4.9074  -0.7333   9.9527   C.3       1 RES1   0.0000
    55 C28      4.5838  -2.8201   8.5350   C.ar      1 RES1   0.0000
    56 H22      3.9985  -3.1356   9.1849   H         1 RES1   0.0000
    57 C29      5.9181  -1.2512  10.9957   C.3       1 RES1   0.0000
    58 H23      5.7799  -0.7953  11.8282   H         1 RES1   0.0000
    59 H24      6.8112  -1.0869  10.6844   H         1 RES1   0.0000
    60 H25      5.7914  -2.1945  11.1223   H         1 RES1   0.0000
    61 C30      3.4820  -0.9466  10.4829   C.3       1 RES1   0.0000
    62 H26      3.3344  -0.3764  11.2417   H         1 RES1   0.0000
    63 H27      3.3730  -1.8627  10.7454   H         1 RES1   0.0000
    64 H28      2.8502  -0.7322   9.7927   H         1 RES1   0.0000
    65 C31      4.0413   1.7321  -0.8482   C.ar      1 RES1   0.0000
    66 C32      3.9928   3.0431  -0.0448   C.3       1 RES1   0.0000
    67 C33      3.2139   4.0604  -0.8999   C.3       1 RES1   0.0000
    68 H29      2.3284   3.7286  -1.0642   H         1 RES1   0.0000
    69 H30      3.6683   4.1888  -1.7356   H         1 RES1   0.0000
    70 H31      3.1612   4.8971  -0.4326   H         1 RES1   0.0000
    71 C34      5.4106   3.6056   0.1969   C.3       1 RES1   0.0000
    72 H32      5.3534   4.3988   0.7351   H         1 RES1   0.0000
    73 H33      5.8190   3.8178  -0.6449   H         1 RES1   0.0000
    74 H34      5.9410   2.9485   0.6528   H         1 RES1   0.0000
    75 C35      3.0842  -0.4102  -1.4463   C.ar      1 RES1   0.0000
    76 H35      2.4450  -1.0662  -1.2871   H         1 RES1   0.0000
    77 C36      3.1022   0.7420  -0.6635   C.ar      1 RES1   0.0000
    78 H36      2.4637   0.8443   0.0027   H         1 RES1   0.0000
    79 C37      4.9601   1.5210  -1.8540   C.ar      1 RES1   0.0000
    80 H37      5.6202   2.1564  -2.0063   H         1 RES1   0.0000
    81 C38     -0.5895   4.8579   5.5383   C.ar      1 RES1   0.0000
    82 H38     -1.3401   4.3085   5.5226   H         1 RES1   0.0000
    83 C39      1.6120   6.5041   5.6476   C.ar      1 RES1   0.0000
    84 H39      2.3611   7.0535   5.6792   H         1 RES1   0.0000
    85 C40      0.6827   6.5606   6.6505   C.ar      1 RES1   0.0000
    86 H40      0.7924   7.1492   7.3618   H         1 RES1   0.0000
    87 C41     -0.4052   5.7414   6.5919   C.ar      1 RES1   0.0000
    88 H41     -1.0383   5.7751   7.2742   H         1 RES1   0.0000
    89 C42     -0.8908   2.7896   3.4959   C.3       1 RES1   0.0000
    90 H42     -0.6430   2.2630   4.2594   H         1 RES1   0.0000
    91 H43     -0.9315   2.2282   2.7175   H         1 RES1   0.0000
    92 H44     -1.7519   3.1878   3.6490   H         1 RES1   0.0000
    93 N1       0.8219   1.9780   7.7946   N.1       1 RES1   0.0000
    94 C43     -0.0449   2.4110   8.3843   C.1       1 RES1   0.0000
    95 C44     -1.1420   2.9626   9.1266   C.3       1 RES1   0.0000
    96 H45     -0.8916   3.8211   9.4769   H         1 RES1   0.0000
    97 H46     -1.3671   2.3740   9.8511   H         1 RES1   0.0000
    98 H47     -1.9010   3.0616   8.5480   H         1 RES1   0.0000
    99 C45      3.9935  -0.5821  -2.4442   C.ar      1 RES1   0.0000
   100 H48      3.9775  -1.3448  -2.9776   H         1 RES1   0.0000
   101 C46      4.9174   0.3808  -2.6422   C.ar      1 RES1   0.0000
   102 H49      5.5420   0.2764  -3.3253   H         1 RES1   0.0000
   103 C47      6.2709  -1.9312   6.5866   C.ar      1 RES1   0.0000
   104 H50      6.8381  -1.6233   5.9154   H         1 RES1   0.0000
   105 C48      5.6954  -3.1759   6.4778   C.ar      1 RES1   0.0000
   106 H51      5.8766  -3.7123   5.7403   H         1 RES1   0.0000
   107 C49      4.8705  -3.6089   7.4408   C.ar      1 RES1   0.0000
   108 H52      4.4854  -4.4521   7.3697   H         1 RES1   0.0000
   109 C50     10.3644   2.3653  10.3659   C.ar      1 RES1   0.0000
   110 H53     10.8633   2.2532   9.5883   H         1 RES1   0.0000
   111 C51     10.1499   2.1760  12.6798   C.ar      1 RES1   0.0000
   112 H54     10.4928   1.9573  13.5160   H         1 RES1   0.0000
   113 C52     10.8829   1.9323  11.5649   C.ar      1 RES1   0.0000
   114 H55     11.7020   1.4916  11.6079   H         1 RES1   0.0000
   115 N2       0.2984   8.5952   0.7139   N.1       2 RES2   0.0000
   116 C53      0.6700   9.3666   1.4148   C.1       2 RES2   0.0000
   117 C54      1.1579  10.3469   2.3354   C.3       2 RES2   0.0000
   118 H56      0.4763  11.0040   2.4920   H         2 RES2   0.0000
   119 H57      1.9351  10.7734   1.9665   H         2 RES2   0.0000
   120 H58      1.3906   9.9215   3.1634   H         2 RES2   0.0000
@<TRIPOS>BOND
     1     1     2    1
     2     2     5    1
     3     3     1    1
     4     4     1    1
     5     5     6    1
     6     7     5    1
     7     8     3    1
     8     9     8    1
     9    10     8    1
    10    11     2    1
    11    12    11   ar
    12    13    14    1
    13    15    12   ar
    14    16    13   ar
    15    17    11   ar
    16    18    17    1
    17    19     3    1
    18    20    19   ar
    19    21    20    1
    20    22    20   ar
    21    23    19   ar
    22    24    23   ar
    23    25    22   ar
    24    26    25    1
    25    27    28    1
    26    28    15    1
    27    29    28    1
    28    30    29    1
    29    31    29    1
    30    32    29    1
    31    33    27   ar
    32    34    33    1
    33    35     1    1
    34    36    22    1
    35    37     1    1
    36    38    36    1
    37    39    36    1
    38    40    39    1
    39    41    39    1
    40    42    39    1
    41    43    36    1
    42    44    43    1
    43    45    43    1
    44    46    43    1
    45    47    38   ar
    46    48    47    1
    47    49    38   ar
    48    50    49    1
    49    51    52   ar
    50    52    53    1
    51    54    24    1
    52    55    51   ar
    53    56    55    1
    54    57    54    1
    55    58    57    1
    56    59    57    1
    57    60    57    1
    58    61    54    1
    59    62    61    1
    60    63    61    1
    61    64    61    1
    62    65    66    1
    63    66    16    1
    64    67    66    1
    65    68    67    1
    66    69    67    1
    67    70    67    1
    68    71    66    1
    69    72    71    1
    70    73    71    1
    71    74    71    1
    72    75    76    1
    73    77    65   ar
    74    78    77    1
    75    79    65   ar
    76    80    79    1
    77    81    27   ar
    78    82    81    1
    79    83    33   ar
    80    84    83    1
    81    85    83   ar
    82    86    85    1
    83    87    81   ar
    84    88    87    1
    85    89    28    1
    86    90    89    1
    87    91    89    1
    88    92    89    1
    89    93     1    1
    90    94    93    3
    91    95    94    1
    92    96    95    1
    93    97    95    1
    94    98    95    1
    95    99    75   ar
    96   100    99    1
    97   101    79   ar
    98   102   101    1
    99   103    52   ar
   100   104   103    1
   101   105   103   ar
   102   106   105    1
   103   107    55   ar
   104   108   107    1
   105   109    49   ar
   106   110   109    1
   107   111    47   ar
   108   112   111    1
   109   113   109   ar
   110   114   113    1
   111     5     8    1
   112    12    35    1
   113    13    15   ar
   114    16    17   ar
   115    23    37    1
   116    24    25   ar
   117    51    54    1
   118    75    77   ar
   119    85    87   ar
   120    99   101   ar
   121   105   107   ar
   122   111   113   ar
   123   115   116    3
   124   116   117    1
   125   117   118    1
   126   119   117    1
   127   120   117    1
@<TRIPOS>SUBSTRUCTURE
     1 RES1        1 GROUP             0 ****  ****    0  
     2 RES2      115 GROUP             0 ****  ****    0  
@<TRIPOS>CRYSIN
   17.2080   10.8800   27.0590   90.0000  101.2570   90.0000    14     1
