@<TRIPOS>MOLECULE
WITFOX
   161   172     9     0     0
SMALL
USER_CHARGES
****
Generated from the CSD

@<TRIPOS>ATOM
     1 Ge1      8.5438   3.0522  14.7293   Ge        1 RES1   0.0000
     2 Ge2      9.4518   2.1580   9.3377   Ge        1 RES1   0.0000
     3 O1      10.4268   3.2174  14.9464   O.3       1 RES1  -1.0000
     4 H1      10.6974   3.8495  15.3891   H         1 RES1   0.0000
     5 O2       8.2342   4.9134  14.6286   O.co2     1 RES1   0.0000
     6 O3       8.2579   1.1226  10.3609   O.co2     1 RES1   0.0000
     7 O4      10.7132   3.4519   8.7403   O.co2     1 RES1   0.0000
     8 O5       8.6161   3.0733  12.9010   O.3       1 RES1   0.0000
     9 O6      12.8283   1.9673  15.0311   O.co2     1 RES1   0.0000
    10 O7      10.7858   1.4099  10.2495   O.3       1 RES1   0.0000
    11 O8      11.2213   1.2752  13.1699   O.3       1 RES1   0.0000
    12 O9       9.2312   1.3499   7.7941   O.3       1 RES1  -1.0000
    13 H2       9.2201   0.5185   7.9129   H         1 RES1   0.0000
    14 O10     11.4330   3.6393  11.9889   O.3       1 RES1   0.0000
    15 H3      10.7224   3.2546  12.2186   H         1 RES1   0.0000
    16 O11     14.4924   2.5166  13.6497   O.co2     1 RES1   0.0000
    17 O12      8.3072   3.5163   9.5751   O.3       1 RES1   0.0000
    18 O13      5.8878   3.9983  12.2890   O.3       1 RES1   0.0000
    19 H4       5.9285   3.2196  12.6022   H         1 RES1   0.0000
    20 O14     12.8489   4.0231   9.0225   O.co2     1 RES1   0.0000
    21 O15      7.9201   6.5421  13.1268   O.co2     1 RES1   0.0000
    22 O16      6.3586   1.2292  11.4958   O.co2     1 RES1   0.0000
    23 C1      13.3760   2.0696  13.8561   C.2       1 RES1   0.0000
    24 C2       8.3012   4.3219  12.3350   C.3       1 RES1   0.0000
    25 H5       9.0582   4.5975  11.7419   H         1 RES1   0.0000
    26 C3      12.4969   1.6001  12.6871   C.3       1 RES1   0.0000
    27 H6      12.9068   0.7786  12.2899   H         1 RES1   0.0000
    28 C4       8.1271   5.3727  13.3912   C.2       1 RES1   0.0000
    29 C5      11.9026   3.3007   9.2409   C.2       1 RES1   0.0000
    30 C6       7.1530   3.1956  10.3505   C.3       1 RES1   0.0000
    31 H7       6.3530   3.2850   9.7573   H         1 RES1   0.0000
    32 C7      12.0089   2.1231  10.2242   C.3       1 RES1   0.0000
    33 H8      12.7327   1.5079   9.9111   H         1 RES1   0.0000
    34 C8       7.2255   1.7624  10.8080   C.2       1 RES1   0.0000
    35 C9      12.3927   2.6688  11.5998   C.3       1 RES1   0.0000
    36 H9      13.2802   3.1218  11.5200   H         1 RES1   0.0000
    37 C10      7.0202   4.2384  11.4765   C.3       1 RES1   0.0000
    38 H10      6.8926   5.1301  11.0423   H         1 RES1   0.0000
    39 Ge1A    10.9906   1.4035  14.9794   Ge        1 RES1   0.0000
    40 Ge2A    10.0826   2.2976  20.3709   Ge        1 RES1   0.0000
    41 O1A      9.1076   1.2382  14.7622   O.3       1 RES1  -1.0000
    42 H1A      8.8370   0.6062  14.3196   H         1 RES1   0.0000
    43 O2A     11.3002  -0.4578  15.0801   O.co2     1 RES1   0.0000
    44 O3A     11.2765   3.3331  19.3478   O.co2     1 RES1   0.0000
    45 O4A      8.8213   1.0037  20.9684   O.co2     1 RES1   0.0000
    46 O5A     10.9183   1.3824  16.8077   O.3       1 RES1   0.0000
    47 O6A      6.7061   2.4884  14.6776   O.co2     1 RES1   0.0000
    48 O7A      8.7486   3.0457  19.4592   O.3       1 RES1   0.0000
    49 O8A      8.3131   3.1805  16.5388   O.3       1 RES1   0.0000
    50 O9A     10.3032   3.1057  21.9146   O.3       1 RES1  -1.0000
    51 H2A     10.3144   3.9371  21.7957   H         1 RES1   0.0000
    52 O10A     8.1014   0.8163  17.7197   O.3       1 RES1   0.0000
    53 H3A      8.8120   1.2010  17.4901   H         1 RES1   0.0000
    54 O11A     5.0420   1.9390  16.0590   O.co2     1 RES1   0.0000
    55 O12A    11.2272   0.9394  20.1336   O.3       1 RES1   0.0000
    56 O13A    13.6466   0.4574  17.4197   O.3       1 RES1   0.0000
    57 H4A     13.6059   1.2361  17.1065   H         1 RES1   0.0000
    58 O14A     6.6855   0.4325  20.6862   O.co2     1 RES1   0.0000
    59 O15A    11.6143  -2.0865  16.5819   O.co2     1 RES1   0.0000
    60 O16A    13.1758   3.2265  18.2129   O.co2     1 RES1   0.0000
    61 C1A      6.1584   2.3860  15.8526   C.2       1 RES1   0.0000
    62 C2A     11.2332   0.1337  17.3736   C.3       1 RES1   0.0000
    63 H5A     10.4762  -0.1419  17.9668   H         1 RES1   0.0000
    64 C3A      7.0375   2.8555  17.0216   C.3       1 RES1   0.0000
    65 H6A      6.6276   3.6770  17.4188   H         1 RES1   0.0000
    66 C4A     11.4073  -0.9170  16.3175   C.2       1 RES1   0.0000
    67 C5A      7.6318   1.1549  20.4678   C.2       1 RES1   0.0000
    68 C6A     12.3814   1.2600  19.3582   C.3       1 RES1   0.0000
    69 H7A     13.1814   1.1706  19.9514   H         1 RES1   0.0000
    70 C7A      7.5255   2.3325  19.4844   C.3       1 RES1   0.0000
    71 H8A      6.8017   2.9477  19.7976   H         1 RES1   0.0000
    72 C8A     12.3089   2.6933  18.9007   C.2       1 RES1   0.0000
    73 C9A      7.1417   1.7868  18.1089   C.3       1 RES1   0.0000
    74 H9A      6.2542   1.3338  18.1887   H         1 RES1   0.0000
    75 C10A    12.5142   0.2172  18.2322   C.3       1 RES1   0.0000
    76 H10A    12.6418  -0.6745  18.6664   H         1 RES1   0.0000
    77 Fe1      9.7386  10.3239  11.4888   Fe        2 RES2   2.0000
    78 N1       9.6668  11.7102  12.8772   N.ar      2 RES2   0.0000
    79 N2      11.4889  10.8740  10.8184   N.ar      2 RES2   0.0000
    80 N3      10.4503   8.9297  12.6678   N.ar      2 RES2   0.0000
    81 N4       7.9277   9.9688  12.1568   N.ar      2 RES2   0.0000
    82 N5       9.7399   8.8504  10.2153   N.ar      2 RES2   0.0000
    83 N6       9.1592  11.7225  10.2242   N.ar      2 RES2   0.0000
    84 C11     10.6686   7.7384  12.0602   C.ar      2 RES2   0.0000
    85 C12     10.6136  12.6164  13.1862   C.ar      2 RES2   0.0000
    86 H11     11.4615  12.5409  12.7634   H         2 RES2   0.0000
    87 C13      6.2327  10.6761  13.7046   C.ar      2 RES2   0.0000
    88 H12      5.9552  11.2497  14.4095   H         2 RES2   0.0000
    89 C14     10.4238  13.6323  14.0671   C.ar      2 RES2   0.0000
    90 H13     11.1189  14.2575  14.2390   H         2 RES2   0.0000
    91 C15      8.4861  11.8099  13.5323   C.ar      2 RES2   0.0000
    92 C16     11.5130  11.9364   9.9910   C.ar      2 RES2   0.0000
    93 C17     10.7444   9.0512  13.9586   C.ar      2 RES2   0.0000
    94 H14     10.5784   9.8827  14.3861   H         2 RES2   0.0000
    95 C18      7.4938  10.7957  13.1253   C.ar      2 RES2   0.0000
    96 C19     12.6845  10.3127  11.1214   C.ar      2 RES2   0.0000
    97 H15     12.7026   9.5689  11.7115   H         2 RES2   0.0000
    98 C20      9.2191  13.7465  14.7058   C.ar      2 RES2   0.0000
    99 H16      9.0579  14.4577  15.3139   H         2 RES2   0.0000
   100 C21     11.2326   6.6801  12.7643   C.ar      2 RES2   0.0000
   101 H17     11.4184   5.8598  12.3216   H         2 RES2   0.0000
   102 C22     10.1686  12.4492   9.6954   C.ar      2 RES2   0.0000
   103 C23      9.9158  13.5964   8.9809   C.ar      2 RES2   0.0000
   104 H18     10.6377  14.1295   8.6704   H         2 RES2   0.0000
   105 C24      7.8932  12.0884   9.9390   C.ar      2 RES2   0.0000
   106 H19      7.1784  11.5636  10.2789   H         2 RES2   0.0000
   107 C25      8.2443  12.8069  14.4473   C.ar      2 RES2   0.0000
   108 H20      7.4095  12.8485  14.8988   H         2 RES2   0.0000
   109 C26     10.2590   7.7096  10.6520   C.ar      2 RES2   0.0000
   110 C27      5.8228   8.8543  12.2311   C.ar      2 RES2   0.0000
   111 H21      5.2582   8.1674  11.8936   H         2 RES2   0.0000
   112 C28      9.3195   8.8853   8.9393   C.ar      2 RES2   0.0000
   113 H22      8.9694   9.7030   8.6060   H         2 RES2   0.0000
   114 C29     11.2816   8.0123  14.7073   C.ar      2 RES2   0.0000
   115 H23     11.4800   8.1327  15.6280   H         2 RES2   0.0000
   116 C30      7.0863   9.0288  11.7349   C.ar      2 RES2   0.0000
   117 H24      7.3810   8.4421  11.0487   H         2 RES2   0.0000
   118 C31      5.3979   9.6783  13.2085   C.ar      2 RES2   0.0000
   119 H25      4.5213   9.5795  13.5605   H         2 RES2   0.0000
   120 C32     12.6909  12.4306   9.4488   C.ar      2 RES2   0.0000
   121 H26     12.6681  13.1724   8.8568   H         2 RES2   0.0000
   122 C33     11.5200   6.8205  14.0968   C.ar      2 RES2   0.0000
   123 H27     11.8823   6.0935  14.5899   H         2 RES2   0.0000
   124 C34     13.8810  10.7801  10.6075   C.ar      2 RES2   0.0000
   125 H28     14.7008  10.3586  10.8357   H         2 RES2   0.0000
   126 C35     10.3752   6.5796   9.8499   C.ar      2 RES2   0.0000
   127 H29     10.7811   5.7884  10.1848   H         2 RES2   0.0000
   128 C36      7.5951  13.1995   9.1726   C.ar      2 RES2   0.0000
   129 H30      6.6939  13.4200   8.9710   H         2 RES2   0.0000
   130 C37      8.6170  13.9745   8.7106   C.ar      2 RES2   0.0000
   131 H31      8.4373  14.7631   8.2117   H         2 RES2   0.0000
   132 C38      9.8839   6.6291   8.5487   C.ar      2 RES2   0.0000
   133 H32      9.9099   5.8572   7.9941   H         2 RES2   0.0000
   134 C39     13.8631  11.8544   9.7652   C.ar      2 RES2   0.0000
   135 H33     14.6753  12.1938   9.4068   H         2 RES2   0.0000
   136 C40      9.3635   7.7989   8.0793   C.ar      2 RES2   0.0000
   137 H34      9.0419   7.8681   7.1877   H         2 RES2   0.0000
   138 O17     11.5640   4.9278  16.6577   O.3       3 RES3   0.0000
   139 H35     10.8881   5.1224  17.1704   H         3 RES3   0.0000
   140 H36     12.0134   4.2698  17.0076   H         3 RES3   0.0000
   141 O18     12.3636   0.5529   3.5071   O.3       4 RES4   0.0000
   142 H37     11.5206   0.5365   3.4124   H         4 RES4   0.0000
   143 H38     12.7354   0.3122   2.7793   H         4 RES4   0.0000
   144 O19     10.4802  -1.0878  11.8790   O.3       5 RES5   0.0000
   145 H39     10.7054  -1.1114  12.6978   H         5 RES5   0.0000
   146 H40     10.4264  -0.2788  11.6225   H         5 RES5   0.0000
   147 O20     10.7470  -0.9466   7.6247   O.3       6 RES6   0.0000
   148 H41     11.1671  -1.1401   6.9119   H         6 RES6   0.0000
   149 H42     11.1269  -0.2790   7.9882   H         6 RES6   0.0000
   150 N7      10.7034  10.6240  16.9874   N.1       7 RES7   0.0000
   151 C41     10.6218  11.6457  17.3781   C.1       7 RES7   0.0000
   152 C42     10.5178  13.0063  17.8698   C.3       7 RES7   0.0000
   153 H43     11.0057  13.6082  17.2694   H         7 RES7   0.0000
   154 H44     10.9021  13.0590  18.7690   H         7 RES7   0.0000
   155 H45      9.5745  13.2703  17.9008   H         7 RES7   0.0000
   156 O21     12.6295  -1.0073   5.7204   O.3       8 RES8   0.0000
   157 H46     12.4102  -0.8349   4.9182   H         8 RES8   0.0000
   158 H47     13.4396  -0.7782   5.8480   H         8 RES8   0.0000
   159 O22     11.2575  -2.6828   9.7489   O.3       9 RES9   0.0000
   160 H48     10.9244  -2.2386  10.4180   H         9 RES9   0.0000
   161 H49     10.8969  -2.4037   9.0072   H         9 RES9   0.0000
@<TRIPOS>BOND
     1     1     3    1
     2     2     6    1
     3     3     4    1
     4     5     1    1
     5     6    34    1
     6     7     2    1
     7     8     1    1
     8     9    23    1
     9    10     2    1
    10    11    26    1
    11    12     2    1
    12    13    12    1
    13    14    15    1
    14    16    23    2
    15    17     2    1
    16    18    19    1
    17    20    29    2
    18    21    28    2
    19    22    34    2
    20    23    26    1
    21    24     8    1
    22    25    24    1
    23    26    27    1
    24    28     5    1
    25    29     7    1
    26    30    17    1
    27    31    30    1
    28    32    10    1
    29    33    32    1
    30    34    30    1
    31    35    14    1
    32    36    35    1
    33    37    18    1
    34    38    37    1
    35    39     3    1
    36    40    44    1
    37    41     1    1
    38    42    41    1
    39    43    39    1
    40    44    72    1
    41    45    40    1
    42    46    39    1
    43    47     1    1
    44    48    40    1
    45    49     1    1
    46    50    40    1
    47    51    50    1
    48    52    53    1
    49    54    61    2
    50    55    40    1
    51    56    57    1
    52    58    67    2
    53    59    66    2
    54    60    72    2
    55    61    47    1
    56    62    46    1
    57    63    62    1
    58    64    49    1
    59    65    64    1
    60    66    43    1
    61    67    45    1
    62    68    55    1
    63    69    68    1
    64    70    48    1
    65    71    70    1
    66    72    68    1
    67    73    52    1
    68    74    73    1
    69    75    56    1
    70    76    75    1
    71     9    39    1
    72    11    39    1
    73    24    28    1
    74    24    37    1
    75    26    35    1
    76    29    32    1
    77    30    37    1
    78    32    35    1
    79    39    41    1
    80    61    64    1
    81    62    66    1
    82    62    75    1
    83    64    73    1
    84    67    70    1
    85    68    75    1
    86    70    73    1
    87    77    78    1
    88    78    85   ar
    89    79    77    1
    90    80    77    1
    91    81    77    1
    92    82    77    1
    93    83    77    1
    94    84    80   ar
    95    85    86    1
    96    87    88    1
    97    89    85   ar
    98    90    89    1
    99    91    78   ar
   100    92    79   ar
   101    93    80   ar
   102    94    93    1
   103    95    81   ar
   104    96    79   ar
   105    97    96    1
   106    98    89   ar
   107    99    98    1
   108   100    84   ar
   109   101   100    1
   110   102    83   ar
   111   103   102   ar
   112   104   103    1
   113   105    83   ar
   114   106   105    1
   115   107    91   ar
   116   108   107    1
   117   109    82   ar
   118   110   111    1
   119   112    82   ar
   120   113   112    1
   121   114    93   ar
   122   115   114    1
   123   116    81   ar
   124   117   116    1
   125   118    87   ar
   126   119   118    1
   127   120    92   ar
   128   121   120    1
   129   122   100   ar
   130   123   122    1
   131   124    96   ar
   132   125   124    1
   133   126   109   ar
   134   127   126    1
   135   128   105   ar
   136   129   128    1
   137   130   103   ar
   138   131   130    1
   139   132   126   ar
   140   133   132    1
   141   134   120   ar
   142   135   134    1
   143   136   112   ar
   144   137   136    1
   145    84   109    1
   146    87    95   ar
   147    91    95    1
   148    92   102    1
   149    98   107   ar
   150   110   116   ar
   151   110   118   ar
   152   114   122   ar
   153   124   134   ar
   154   128   130   ar
   155   132   136   ar
   156   138   139    1
   157   140   138    1
   158   141   142    1
   159   143   141    1
   160   144   145    1
   161   146   144    1
   162   147   148    1
   163   149   147    1
   164   150   151    3
   165   151   152    1
   166   152   153    1
   167   154   152    1
   168   155   152    1
   169   156   157    1
   170   158   156    1
   171   159   160    1
   172   161   159    1
@<TRIPOS>SUBSTRUCTURE
     1 RES1        1 GROUP             0 ****  ****    0  
     2 RES2       77 GROUP             0 ****  ****    0  
     3 RES3      138 GROUP             0 ****  ****    0  
     4 RES4      141 GROUP             0 ****  ****    0  
     5 RES5      144 GROUP             0 ****  ****    0  
     6 RES6      147 GROUP             0 ****  ****    0  
     7 RES7      150 GROUP             0 ****  ****    0  
     8 RES8      156 GROUP             0 ****  ****    0  
     9 RES9      159 GROUP             0 ****  ****    0  
@<TRIPOS>CRYSIN
   12.2734   15.3120   15.4530   77.1010   76.4120   67.4530     2     1
