@<TRIPOS>MOLECULE
WITZAE
    96    96     4     0     0
SMALL
USER_CHARGES
****
Generated from the CSD

@<TRIPOS>ATOM
     1 Fe1     27.9056   6.6544   3.0179   Fe        1 RES1   1.0000
     2 H1      27.2804   6.7726   1.7463   H         1 RES1   0.0000
     3 P1      27.7497   8.8260   2.5571   P.3       1 RES1   0.0000
     4 P2      27.4015   4.5663   2.4469   P.3       1 RES1   0.0000
     5 P3      25.8137   6.8083   3.7070   P.3       1 RES1   0.0000
     6 O1      30.6962   6.4503   2.1793   O.2       1 RES1   0.0000
     7 O2      28.8140   6.4841   5.7967   O.2       1 RES1   0.0000
     8 C1      25.9796   9.2707   2.5513   C.ar      1 RES1   0.0000
     9 C2      25.5008  10.5153   2.1165   C.ar      1 RES1   0.0000
    10 H2      26.0991  11.1460   1.7330   H         1 RES1   0.0000
    11 C3      24.1621  10.8253   2.2439   C.ar      1 RES1   0.0000
    12 H3      23.8412  11.6643   1.9350   H         1 RES1   0.0000
    13 C4      23.2844   9.9248   2.8193   C.ar      1 RES1   0.0000
    14 H4      22.3644  10.1469   2.9033   H         1 RES1   0.0000
    15 C5      23.7444   8.6982   3.2725   C.ar      1 RES1   0.0000
    16 H5      23.1443   8.0894   3.6871   H         1 RES1   0.0000
    17 C6      25.0849   8.3594   3.1214   C.ar      1 RES1   0.0000
    18 C7      24.8418   5.3856   3.1267   C.ar      1 RES1   0.0000
    19 C8      23.4696   5.2357   3.3135   C.ar      1 RES1   0.0000
    20 H6      22.9655   5.9292   3.7229   H         1 RES1   0.0000
    21 C9      22.8422   4.0697   2.9005   C.ar      1 RES1   0.0000
    22 H7      21.9055   3.9675   3.0201   H         1 RES1   0.0000
    23 C10     23.5779   3.0555   2.3147   C.ar      1 RES1   0.0000
    24 H8      23.1403   2.2628   2.0270   H         1 RES1   0.0000
    25 C11     24.9410   3.1838   2.1435   C.ar      1 RES1   0.0000
    26 H9      25.4394   2.4799   1.7454   H         1 RES1   0.0000
    27 C12     25.5878   4.3534   2.5583   C.ar      1 RES1   0.0000
    28 C13     28.3005   9.4473   0.9063   C.3       1 RES1   0.0000
    29 H10     28.0047  10.4012   0.8555   H         1 RES1   0.0000
    30 C14     27.6039   8.7278  -0.2366   C.3       1 RES1   0.0000
    31 H11     27.7906   9.1947  -1.0784   H         1 RES1   0.0000
    32 H12     26.6373   8.7188  -0.0761   H         1 RES1   0.0000
    33 H13     27.9347   7.8075  -0.2936   H         1 RES1   0.0000
    34 C15     29.8128   9.4618   0.7037   C.3       1 RES1   0.0000
    35 H14     30.0206   9.8309  -0.1798   H         1 RES1   0.0000
    36 H15     30.1592   8.5469   0.7654   H         1 RES1   0.0000
    37 H16     30.2297  10.0161   1.3959   H         1 RES1   0.0000
    38 C16     28.4588  10.0735   3.7431   C.3       1 RES1   0.0000
    39 H17     28.5304  10.9456   3.2592   H         1 RES1   0.0000
    40 C17     27.5370  10.2811   4.9349   C.3       1 RES1   0.0000
    41 H18     27.9612  10.8922   5.5732   H         1 RES1   0.0000
    42 H19     27.3670   9.4202   5.3705   H         1 RES1   0.0000
    43 H20     26.6892  10.6659   4.6289   H         1 RES1   0.0000
    44 C18     29.8504   9.6947   4.2163   C.3       1 RES1   0.0000
    45 H21     30.2457  10.4463   4.7046   H         1 RES1   0.0000
    46 H22     30.4105   9.4762   3.4425   H         1 RES1   0.0000
    47 H23     29.7929   8.9148   4.8080   H         1 RES1   0.0000
    48 C19     27.7253   4.0037   0.7125   C.3       1 RES1   0.0000
    49 H24     27.5072   3.0284   0.6777   H         1 RES1   0.0000
    50 C20     29.1704   4.1530   0.2366   C.3       1 RES1   0.0000
    51 H25     29.2544   3.7913  -0.6706   H         1 RES1   0.0000
    52 H26     29.7657   3.6618   0.8403   H         1 RES1   0.0000
    53 H27     29.4173   5.1013   0.2341   H         1 RES1   0.0000
    54 C21     26.7997   4.7028  -0.2864   C.3       1 RES1   0.0000
    55 H28     26.8790   4.2712  -1.1627   H         1 RES1   0.0000
    56 H29     27.0539   5.6461  -0.3626   H         1 RES1   0.0000
    57 H30     25.8731   4.6384   0.0266   H         1 RES1   0.0000
    58 C22     28.0135   3.1796   3.5152   C.3       1 RES1   0.0000
    59 H31     27.7710   2.3200   3.0655   H         1 RES1   0.0000
    60 C23     27.3329   3.1961   4.8791   C.3       1 RES1   0.0000
    61 H32     27.6380   2.4287   5.4062   H         1 RES1   0.0000
    62 H33     26.3614   3.1459   4.7603   H         1 RES1   0.0000
    63 H34     27.5617   4.0262   5.3482   H         1 RES1   0.0000
    64 C24     29.5375   3.2060   3.6768   C.3       1 RES1   0.0000
    65 H35     29.8214   2.4456   4.2250   H         1 RES1   0.0000
    66 H36     29.8049   4.0420   4.1139   H         1 RES1   0.0000
    67 H37     29.9605   3.1497   2.7946   H         1 RES1   0.0000
    68 C25     29.5897   6.5297   2.4491   C.1       1 RES1   0.0000
    69 C26     28.4660   6.5496   4.7184   C.1       1 RES1   0.0000
    70 C27     25.4407   6.8162   5.4850   C.3       1 RES1   0.0000
    71 H38     24.4719   6.8860   5.6155   H         1 RES1   0.0000
    72 H39     25.8831   7.5815   5.9085   H         1 RES1   0.0000
    73 H40     25.7659   5.9855   5.8910   H         1 RES1   0.0000
    74 Cl1     18.0351   5.3842   3.2709   Cl        2 RES2   0.0000
    75 O3      20.6837   8.1912   3.8095   O.2       2 RES2   0.0000
    76 O4      20.3611   6.2077   4.7970   O.3       2 RES2   0.0000
    77 H41     20.9312   6.6165   5.4047   H         2 RES2   0.0000
    78 C28     19.0787   6.7802   2.8665   C.3       2 RES2   0.0000
    79 H42     19.5369   6.5919   2.0091   H         2 RES2   0.0000
    80 H43     18.5027   7.5735   2.7281   H         2 RES2   0.0000
    81 C29     20.1173   7.1184   3.8985   C.2       2 RES2   0.0000
    82 Cl2     24.1061   7.0657   8.6381   Cl        3 RES3   0.0000
    83 O5      21.9144   6.9104   6.6533   O.co2     3 RES3   0.0000
    84 O6      20.2638   6.8830   8.1673   O.co2     3 RES3  -1.0000
    85 C30     22.3857   7.1886   8.9845   C.3       3 RES3   0.0000
    86 H44     22.1614   6.5280   9.6878   H         3 RES3   0.0000
    87 H45     22.2054   8.0884   9.3549   H         3 RES3   0.0000
    88 C31     21.4635   6.9635   7.8101   C.2       3 RES3   0.0000
    89 Cl3     15.2911   5.4874   6.9235   Cl        4 RES4   0.0000
    90 O7      17.9951   7.9961   5.6928   O.2       4 RES4   0.0000
    91 O8      17.9882   6.3551   7.2103   O.3       4 RES4   0.0000
    92 H46     18.7408   6.5313   7.3692   H         4 RES4   0.0000
    93 C32     16.0118   6.7670   5.9521   C.3       4 RES4   0.0000
    94 H47     15.9614   6.5043   4.9992   H         4 RES4   0.0000
    95 H48     15.4694   7.5884   6.0632   H         4 RES4   0.0000
    96 C33     17.4556   7.0969   6.2839   C.2       4 RES4   0.0000
@<TRIPOS>BOND
     1     1     2    1
     2     3     1    1
     3     4     1    1
     4     5     1    1
     5     6    68    3
     6     7    69    3
     7     8     3    1
     8     9     8   ar
     9    10     9    1
    10    11     9   ar
    11    12    11    1
    12    13    11   ar
    13    14    13    1
    14    15    13   ar
    15    16    15    1
    16    17     5    1
    17    18     5    1
    18    19    18   ar
    19    20    19    1
    20    21    19   ar
    21    22    21    1
    22    23    21   ar
    23    24    23    1
    24    25    23   ar
    25    26    25    1
    26    27     4    1
    27    28     3    1
    28    29    28    1
    29    30    28    1
    30    31    30    1
    31    32    30    1
    32    33    30    1
    33    34    28    1
    34    35    34    1
    35    36    34    1
    36    37    34    1
    37    38     3    1
    38    39    38    1
    39    40    38    1
    40    41    40    1
    41    42    40    1
    42    43    40    1
    43    44    38    1
    44    45    44    1
    45    46    44    1
    46    47    44    1
    47    48     4    1
    48    49    48    1
    49    50    48    1
    50    51    50    1
    51    52    50    1
    52    53    50    1
    53    54    48    1
    54    55    54    1
    55    56    54    1
    56    57    54    1
    57    58     4    1
    58    59    58    1
    59    60    58    1
    60    61    60    1
    61    62    60    1
    62    63    60    1
    63    64    58    1
    64    65    64    1
    65    66    64    1
    66    67    64    1
    67    68     1    1
    68    69     1    1
    69    70     5    1
    70    71    70    1
    71    72    70    1
    72    73    70    1
    73     8    17   ar
    74    15    17   ar
    75    18    27   ar
    76    25    27   ar
    77    74    78    1
    78    75    81    2
    79    76    77    1
    80    78    79    1
    81    80    78    1
    82    81    76    1
    83    78    81    1
    84    82    85    1
    85    83    88    2
    86    84    88    1
    87    85    86    1
    88    87    85    1
    89    88    85    1
    90    89    93    1
    91    90    96    2
    92    91    92    1
    93    93    94    1
    94    95    93    1
    95    96    91    1
    96    93    96    1
@<TRIPOS>SUBSTRUCTURE
     1 RES1        1 GROUP             0 ****  ****    0  
     2 RES2       74 GROUP             0 ****  ****    0  
     3 RES3       82 GROUP             0 ****  ****    0  
     4 RES4       89 GROUP             0 ****  ****    0  
@<TRIPOS>CRYSIN
   31.2920   14.1984    8.7313   90.0000   90.0000   90.0000    33     1
