@<TRIPOS>MOLECULE
WIVLUM01
    82    89     3     0     0
SMALL
USER_CHARGES
****
Generated from the CSD

@<TRIPOS>ATOM
     1 Fe1     11.5611   8.9408   4.6856   Fe        1 RES1   1.0000
     2 O1      11.0515   9.6739   6.3447   O.3       1 RES1   0.0000
     3 O2       7.4963   7.8029  10.1426   O.3       1 RES1   0.0000
     4 O3      12.8403   7.7978   5.4370   O.3       1 RES1   0.0000
     5 O4      18.0760   8.7550   6.8907   O.3       1 RES1   0.0000
     6 N1      11.9738   8.1915   2.9076   N.ar      1 RES1   0.0000
     7 N2      10.3173   7.4501   4.7705   N.2       1 RES1   0.0000
     8 N3      10.2857  10.1544   3.7874   N.ar      1 RES1   0.0000
     9 N4      12.7652  10.4476   4.5034   N.2       1 RES1   0.0000
    10 C1      10.8252  11.3858   3.5194   C.ar      1 RES1   0.0000
    11 C2      12.8675   8.6086   2.0232   C.ar      1 RES1   0.0000
    12 H1      13.4010   9.3661   2.2354   H         1 RES1   0.0000
    13 C3      13.0564   7.9734   0.7844   C.ar      1 RES1   0.0000
    14 H2      13.7167   8.2940   0.1814   H         1 RES1   0.0000
    15 C4      12.2917   6.8990   0.4519   C.ar      1 RES1   0.0000
    16 H3      12.4092   6.4709  -0.3885   H         1 RES1   0.0000
    17 C5      11.3189   6.4212   1.3620   C.ar      1 RES1   0.0000
    18 C6      10.4672   5.3289   1.1157   C.ar      1 RES1   0.0000
    19 H4      10.5144   4.8633   0.2891   H         1 RES1   0.0000
    20 C7       9.5652   4.9407   2.0774   C.ar      1 RES1   0.0000
    21 H5       8.9923   4.2045   1.8995   H         1 RES1   0.0000
    22 C8       9.4650   5.6006   3.3212   C.ar      1 RES1   0.0000
    23 H6       8.8345   5.3068   3.9684   H         1 RES1   0.0000
    24 C9      10.2839   6.6709   3.5884   C.ar      1 RES1   0.0000
    25 C10     11.2030   7.0980   2.5934   C.ar      1 RES1   0.0000
    26 C11      9.5947   7.1406   5.8062   C.2       1 RES1   0.0000
    27 H7       9.0881   6.3377   5.7634   H         1 RES1   0.0000
    28 C12      9.5045   7.9152   7.0068   C.ar      1 RES1   0.0000
    29 C13      8.5920   7.4465   7.9920   C.ar      1 RES1   0.0000
    30 H8       8.1222   6.6340   7.8486   H         1 RES1   0.0000
    31 C14      8.3835   8.1550   9.1458   C.ar      1 RES1   0.0000
    32 C15      9.0968   9.3443   9.3675   C.ar      1 RES1   0.0000
    33 H9       8.9710   9.8243  10.1770   H         1 RES1   0.0000
    34 C16      9.9736   9.8199   8.4230   C.ar      1 RES1   0.0000
    35 H10     10.4355  10.6336   8.5889   H         1 RES1   0.0000
    36 C17     10.2072   9.1286   7.2075   C.ar      1 RES1   0.0000
    37 C18      6.6338   6.7102   9.8465   C.3       1 RES1   0.0000
    38 H11      6.1138   6.9139   9.0411   H         1 RES1   0.0000
    39 H12      6.0242   6.5622  10.5997   H         1 RES1   0.0000
    40 H13      7.1684   5.9035   9.6953   H         1 RES1   0.0000
    41 C19      9.0150   9.9304   3.4702   C.ar      1 RES1   0.0000
    42 H14      8.6397   9.0758   3.6486   H         1 RES1   0.0000
    43 C20      8.2091  10.9145   2.8791   C.ar      1 RES1   0.0000
    44 H15      7.3045  10.7204   2.6647   H         1 RES1   0.0000
    45 C21      8.7209  12.1505   2.6094   C.ar      1 RES1   0.0000
    46 H16      8.1756  12.8193   2.2116   H         1 RES1   0.0000
    47 C22     10.0743  12.4287   2.9283   C.ar      1 RES1   0.0000
    48 C23     10.7040  13.6686   2.7227   C.ar      1 RES1   0.0000
    49 H17     10.2199  14.3864   2.3323   H         1 RES1   0.0000
    50 C24     12.0151  13.8498   3.0835   C.ar      1 RES1   0.0000
    51 H18     12.4249  14.6938   2.9388   H         1 RES1   0.0000
    52 C25     12.7659  12.8085   3.6660   C.ar      1 RES1   0.0000
    53 H19     13.6744  12.9490   3.9012   H         1 RES1   0.0000
    54 C26     12.1741  11.5853   3.8913   C.ar      1 RES1   0.0000
    55 C27     13.9884  10.4841   4.9466   C.2       1 RES1   0.0000
    56 H20     14.4574  11.3079   4.8760   H         1 RES1   0.0000
    57 C28     14.6775   9.3853   5.5291   C.ar      1 RES1   0.0000
    58 C29     16.0303   9.6190   5.8985   C.ar      1 RES1   0.0000
    59 H21     16.4233  10.4695   5.7396   H         1 RES1   0.0000
    60 C30     16.7718   8.6245   6.4847   C.ar      1 RES1   0.0000
    61 C31     16.1785   7.3839   6.7334   C.ar      1 RES1   0.0000
    62 H22     16.6836   6.7052   7.1650   H         1 RES1   0.0000
    63 C32     14.8829   7.1262   6.3689   C.ar      1 RES1   0.0000
    64 H23     14.5151   6.2652   6.5307   H         1 RES1   0.0000
    65 C33     14.0823   8.1190   5.7569   C.ar      1 RES1   0.0000
    66 C34     18.7800   9.8873   6.3948   C.3       1 RES1   0.0000
    67 H24     18.7243   9.9022   5.4159   H         1 RES1   0.0000
    68 H25     19.7186   9.8337   6.6680   H         1 RES1   0.0000
    69 H26     18.3790  10.7048   6.7566   H         1 RES1   0.0000
    70 Cl1     15.5483  11.1082   0.8787   Cl        2 RES2   0.0000
    71 Cl2     12.9649  12.0555  -0.0076   Cl        2 RES2   0.0000
    72 C35     14.6147  12.5194   0.4618   C.3       2 RES2   0.0000
    73 H27     15.0509  12.9960  -0.2873   H         2 RES2   0.0000
    74 H28     14.5778  13.1330   1.2380   H         2 RES2   0.0000
    75 S1       6.3995   7.2051   2.6434   S.o2      3 RES3   0.0000
    76 F1       4.9868   9.4063   2.7276   F         3 RES3   0.0000
    77 F2       4.3789   8.0099   1.1883   F         3 RES3   0.0000
    78 F3       3.8875   7.6366   3.2485   F         3 RES3   0.0000
    79 O5       7.2534   7.8163   1.6509   O.3       3 RES3  -1.0000
    80 O6       6.7794   7.4803   4.0019   O.2       3 RES3   0.0000
    81 O7       6.0178   5.8437   2.3625   O.2       3 RES3   0.0000
    82 C36      4.8336   8.1034   2.4456   C.3       3 RES3   0.0000
@<TRIPOS>BOND
     1     1     2    1
     2     2    36    1
     3     3    31    1
     4     4     1    1
     5     5    60    1
     6     6     1    1
     7     7     1    1
     8     8     1    1
     9     9     1    1
    10    10     8   ar
    11    11     6   ar
    12    12    11    1
    13    13    11   ar
    14    14    13    1
    15    15    13   ar
    16    16    15    1
    17    17    15   ar
    18    18    17   ar
    19    19    18    1
    20    20    18   ar
    21    21    20    1
    22    22    20   ar
    23    23    22    1
    24    24     7    1
    25    25     6   ar
    26    26     7    2
    27    27    26    1
    28    28    26    1
    29    29    28   ar
    30    30    29    1
    31    31    29   ar
    32    32    31   ar
    33    33    32    1
    34    34    32   ar
    35    35    34    1
    36    36    28   ar
    37    37     3    1
    38    38    37    1
    39    39    37    1
    40    40    37    1
    41    41     8   ar
    42    42    41    1
    43    43    41   ar
    44    44    43    1
    45    45    43   ar
    46    46    45    1
    47    47    10   ar
    48    48    47   ar
    49    49    48    1
    50    50    48   ar
    51    51    50    1
    52    52    50   ar
    53    53    52    1
    54    54     9    1
    55    55     9    2
    56    56    55    1
    57    57    55    1
    58    58    57   ar
    59    59    58    1
    60    60    58   ar
    61    61    60   ar
    62    62    61    1
    63    63    61   ar
    64    64    63    1
    65    65     4    1
    66    66     5    1
    67    67    66    1
    68    68    66    1
    69    69    66    1
    70    10    54   ar
    71    17    25   ar
    72    22    24   ar
    73    24    25   ar
    74    34    36   ar
    75    45    47   ar
    76    52    54   ar
    77    57    65   ar
    78    63    65   ar
    79    70    72    1
    80    71    72    1
    81    72    73    1
    82    74    72    1
    83    75    79    1
    84    76    82    1
    85    77    82    1
    86    78    82    1
    87    80    75    2
    88    81    75    2
    89    82    75    1
@<TRIPOS>SUBSTRUCTURE
     1 RES1        1 GROUP             0 ****  ****    0  
     2 RES2       70 GROUP             0 ****  ****    0  
     3 RES3       75 GROUP             0 ****  ****    0  
@<TRIPOS>CRYSIN
   12.3329   12.3551   12.8195   79.9600   74.2570   63.7180     2     1
