@<TRIPOS>MOLECULE
WIWQOL
    98   104     2     0     0
SMALL
USER_CHARGES
****
Generated from the CSD

@<TRIPOS>ATOM
     1 I1      17.3627   6.5147  14.6779   I         1 RES1  -1.0000
     2 I2      16.1188   5.6420  17.1804   I         1 RES1   0.0000
     3 I3      18.5169   7.5070  12.2029   I         1 RES1   0.0000
     4 Fe1     15.0163   3.7319   9.7528   Fe        2 RES2   1.0000
     5 O1      14.1574   3.7195  11.4202   O.3       2 RES2   0.0000
     6 O2      13.3891   3.8247   8.8212   O.3       2 RES2   0.0000
     7 N1      15.6786   1.0306  10.0217   N.2       2 RES2   0.0000
     8 N2      15.1372   5.5903  10.0300   N.2       2 RES2   0.0000
     9 N3      15.7039   6.3674   9.1769   N.2       2 RES2   0.0000
    10 N4      14.8222   1.8761   9.5594   N.2       2 RES2   0.0000
    11 C1      12.9228   4.0108  14.0076   C.3       2 RES2   0.0000
    12 N5      16.6398   3.1043  10.6181   N.ar      2 RES2   0.0000
    13 N6      16.0110   4.2653   8.1644   N.ar      2 RES2   0.0000
    14 C2      14.0449   4.9352  11.9267   C.ar      2 RES2   0.0000
    15 C3      13.4472   5.1833  13.1732   C.ar      2 RES2   0.0000
    16 C4      11.1294   1.0958   8.0816   C.ar      2 RES2   0.0000
    17 H1      10.2599   0.9475   7.7834   H         2 RES2   0.0000
    18 C5      13.6260   1.4922   9.0113   C.ar      2 RES2   0.0000
    19 C6      16.2062   5.6061   8.1251   C.ar      2 RES2   0.0000
    20 C7      13.9208   7.5999  12.8647   C.ar      2 RES2   0.0000
    21 C8      11.5547   2.4187   8.1561   C.ar      2 RES2   0.0000
    22 C9      11.9045  -0.0515   8.4191   C.ar      2 RES2   0.0000
    23 C10     16.8939   6.2181   7.0794   C.ar      2 RES2   0.0000
    24 H2      17.0111   7.1404   7.0628   H         2 RES2   0.0000
    25 C11     13.3919   6.5010  13.5790   C.ar      2 RES2   0.0000
    26 H3      12.9733   6.6808  14.3886   H         2 RES2   0.0000
    27 C12     14.5627   6.0257  11.1978   C.ar      2 RES2   0.0000
    28 C13     12.8538   2.6216   8.6551   C.ar      2 RES2   0.0000
    29 C14     14.5066   7.3559  11.6658   C.ar      2 RES2   0.0000
    30 H4      14.8664   8.0500  11.1626   H         2 RES2   0.0000
    31 C15     13.8056   9.0448  13.4196   C.3       2 RES2   0.0000
    32 C16     10.6548   3.5975   7.7834   C.3       2 RES2   0.0000
    33 C17     16.7126   1.7372  10.6243   C.ar      2 RES2   0.0000
    34 C18     13.1678   0.1651   8.8788   C.ar      2 RES2   0.0000
    35 H5      13.7208  -0.5500   9.1003   H         2 RES2   0.0000
    36 C19     11.2957  -1.4565   8.2969   C.3       2 RES2   0.0000
    37 C20     16.5014   3.5102   7.1581   C.ar      2 RES2   0.0000
    38 H6      16.3643   2.5901   7.1788   H         2 RES2   0.0000
    39 C21     11.8175   3.2820  13.2332   C.3       2 RES2   0.0000
    40 H7      12.1701   2.9624  12.3988   H         2 RES2   0.0000
    41 H8      11.0924   3.8888  13.0634   H         2 RES2   0.0000
    42 H9      11.4986   2.5396  13.7509   H         2 RES2   0.0000
    43 C22     14.0655   3.0581  14.3369   C.3       2 RES2   0.0000
    44 H10     14.4586   2.7373  13.5231   H         2 RES2   0.0000
    45 H11     13.7254   2.3156  14.8421   H         2 RES2   0.0000
    46 H12     14.7280   3.5208  14.8545   H         2 RES2   0.0000
    47 C23     17.7390   1.0674  11.2620   C.ar      2 RES2   0.0000
    48 H13     17.7874   0.1388  11.2392   H         2 RES2   0.0000
    49 C24     10.7422  -1.6952   6.9179   C.3       2 RES2   0.0000
    50 H14     10.0876  -1.0222   6.7150   H         2 RES2   0.0000
    51 H15     10.3310  -2.5617   6.8827   H         2 RES2   0.0000
    52 H16     11.4536  -1.6521   6.2760   H         2 RES2   0.0000
    53 C25     17.3962   5.4189   6.0710   C.ar      2 RES2   0.0000
    54 H17     17.8695   5.7985   5.3670   H         2 RES2   0.0000
    55 C26     17.1910   4.0529   6.1124   C.ar      2 RES2   0.0000
    56 H18     17.5190   3.5081   5.4333   H         2 RES2   0.0000
    57 C27     17.5732   3.7994  11.2600   C.ar      2 RES2   0.0000
    58 H19     17.5377   4.7290  11.2600   H         2 RES2   0.0000
    59 C28     10.4331   4.4809   9.0113   C.3       2 RES2   0.0000
    60 H20     11.2828   4.7711   9.3550   H         2 RES2   0.0000
    61 H21      9.9709   3.9803   9.6884   H         2 RES2   0.0000
    62 H22      9.9088   5.2464   8.7649   H         2 RES2   0.0000
    63 C29     12.3103   4.4966  15.3204   C.3       2 RES2   0.0000
    64 H23     11.9882   3.7437  15.8215   H         2 RES2   0.0000
    65 H24     11.5820   5.0929  15.1341   H         2 RES2   0.0000
    66 H25     12.9789   4.9593  15.8339   H         2 RES2   0.0000
    67 C30     18.6000   3.1516  11.9350   C.ar      2 RES2   0.0000
    68 H26     19.2374   3.6491  12.3926   H         2 RES2   0.0000
    69 C31     11.3395   4.4293   6.6715   C.3       2 RES2   0.0000
    70 H27     12.1988   4.7301   6.9779   H         2 RES2   0.0000
    71 H28     10.7920   5.1886   6.4582   H         2 RES2   0.0000
    72 H29     11.4508   3.8857   5.8888   H         2 RES2   0.0000
    73 C32      9.2993   3.1495   7.2658   C.3       2 RES2   0.0000
    74 H30      8.7698   3.9204   7.0463   H         2 RES2   0.0000
    75 H31      8.8509   2.6364   7.9428   H         2 RES2   0.0000
    76 H32      9.4186   2.6101   6.4810   H         2 RES2   0.0000
    77 C33     15.1176   9.7914  13.1753   C.3       2 RES2   0.0000
    78 H33     15.8324   9.3372  13.6267   H         2 RES2   0.0000
    79 H34     15.0436  10.6864  13.5128   H         2 RES2   0.0000
    80 H35     15.2992   9.8177  12.2331   H         2 RES2   0.0000
    81 C34     10.1446  -1.5711   9.2846   C.3       2 RES2   0.0000
    82 H36      9.4915  -0.8939   9.0941   H         2 RES2   0.0000
    83 H37     10.4747  -1.4523  10.1770   H         2 RES2   0.0000
    84 H38      9.7393  -2.4376   9.2059   H         2 RES2   0.0000
    85 C35     18.6774   1.8024  11.9267   C.ar      2 RES2   0.0000
    86 H39     19.3706   1.3734  12.3739   H         2 RES2   0.0000
    87 C36     12.7033   9.7809  12.7114   C.3       2 RES2   0.0000
    88 H40     12.8653   9.7652  11.7652   H         2 RES2   0.0000
    89 H41     12.6800  10.6906  13.0179   H         2 RES2   0.0000
    90 H42     11.8637   9.3571  12.8999   H         2 RES2   0.0000
    91 C37     13.5879   9.0532  14.9166   C.3       2 RES2   0.0000
    92 H43     14.3055   8.5832  15.3473   H         2 RES2   0.0000
    93 H44     12.7555   8.6210  15.1216   H         2 RES2   0.0000
    94 H45     13.5642   9.9597  15.2314   H         2 RES2   0.0000
    95 C38     12.3190  -2.5228   8.6013   C.3       2 RES2   0.0000
    96 H46     12.6753  -2.3819   9.4813   H         2 RES2   0.0000
    97 H47     13.0285  -2.4797   7.9573   H         2 RES2   0.0000
    98 H48     11.9022  -3.3862   8.5599   H         2 RES2   0.0000
@<TRIPOS>BOND
     1     1     2    1
     2     3     1    1
     3     4     5    1
     4     5    14    1
     5     6     4    1
     6     7    10    2
     7     8     4    1
     8     9     8    2
     9    10     4    1
    10    11    15    1
    11    12     4    1
    12    13     4    1
    13    14    15   ar
    14    15    25   ar
    15    16    17    1
    16    18    10    1
    17    19     9    1
    18    20    25   ar
    19    21    16   ar
    20    22    16   ar
    21    23    19   ar
    22    24    23    1
    23    25    26    1
    24    27     8    1
    25    28     6    1
    26    29    20   ar
    27    30    29    1
    28    31    20    1
    29    32    21    1
    30    33     7    1
    31    34    18   ar
    32    35    34    1
    33    36    22    1
    34    37    13   ar
    35    38    37    1
    36    39    11    1
    37    40    39    1
    38    41    39    1
    39    42    39    1
    40    43    11    1
    41    44    43    1
    42    45    43    1
    43    46    43    1
    44    47    33   ar
    45    48    47    1
    46    49    36    1
    47    50    49    1
    48    51    49    1
    49    52    49    1
    50    53    23   ar
    51    54    53    1
    52    55    37   ar
    53    56    55    1
    54    57    12   ar
    55    58    57    1
    56    59    32    1
    57    60    59    1
    58    61    59    1
    59    62    59    1
    60    63    11    1
    61    64    63    1
    62    65    63    1
    63    66    63    1
    64    67    57   ar
    65    68    67    1
    66    69    32    1
    67    70    69    1
    68    71    69    1
    69    72    69    1
    70    73    32    1
    71    74    73    1
    72    75    73    1
    73    76    73    1
    74    77    31    1
    75    78    77    1
    76    79    77    1
    77    80    77    1
    78    81    36    1
    79    82    81    1
    80    83    81    1
    81    84    81    1
    82    85    47   ar
    83    86    85    1
    84    87    31    1
    85    88    87    1
    86    89    87    1
    87    90    87    1
    88    91    31    1
    89    92    91    1
    90    93    91    1
    91    94    91    1
    92    95    36    1
    93    96    95    1
    94    97    95    1
    95    98    95    1
    96    12    33   ar
    97    13    19   ar
    98    14    27   ar
    99    18    28   ar
   100    21    28   ar
   101    22    34   ar
   102    27    29   ar
   103    53    55   ar
   104    67    85   ar
@<TRIPOS>SUBSTRUCTURE
     1 RES1        1 GROUP             0 ****  ****    0  
     2 RES2        4 GROUP             0 ****  ****    0  
@<TRIPOS>CRYSIN
   19.7460   10.5160   20.7260   90.0000   92.5140   90.0000    14     1
