@<TRIPOS>MOLECULE
WIWQUR
    95   102     1     0     0
SMALL
NO_CHARGES
****
Generated from the CSD

@<TRIPOS>ATOM
     1 Fe1     -1.6665   1.6043   3.9547   Fe        1 RES1   0.0000
     2 O1      -2.3626   3.0255   5.1212   O.3       1 RES1   0.0000
     3 N1      -3.4229   1.5071   3.4070   N.2       1 RES1   0.0000
     4 N2      -1.5381   0.2798   2.5245   N.ar      1 RES1   0.0000
     5 N3      -3.8446   0.6818   2.4821   N.2       1 RES1   0.0000
     6 C1      -3.6458   3.1732   4.9794   C.ar      1 RES1   0.0000
     7 C2      -4.4307   4.1804   5.6266   C.ar      1 RES1   0.0000
     8 C3      -6.4754   3.1462   4.6572   C.ar      1 RES1   0.0000
     9 C4      -2.7440   0.0243   1.9623   C.ar      1 RES1   0.0000
    10 C5      -4.3231   2.2979   4.0909   C.ar      1 RES1   0.0000
    11 C6      -5.7918   4.1060   5.4537   C.ar      1 RES1   0.0000
    12 H1      -6.3107   4.7381   5.8957   H         1 RES1   0.0000
    13 C7      -5.7107   2.2634   3.9460   C.ar      1 RES1   0.0000
    14 H2      -6.1108   1.6488   3.3741   H         1 RES1   0.0000
    15 C8      -3.7651   5.3010   6.4338   C.3       1 RES1   0.0000
    16 C9      -0.4641  -0.3576   2.0251   C.ar      1 RES1   0.0000
    17 H3       0.3675  -0.1960   2.4076   H         1 RES1   0.0000
    18 C10     -8.0056   3.1682   4.5977   C.3       1 RES1   0.0000
    19 C11     -2.7346   6.0135   5.5415   C.3       1 RES1   0.0000
    20 H4      -2.0606   5.3870   5.2692   H         1 RES1   0.0000
    21 H5      -2.3268   6.7303   6.0333   H         1 RES1   0.0000
    22 H6      -3.1742   6.3686   4.7646   H         1 RES1   0.0000
    23 C12     -2.8773  -0.8580   0.8912   C.ar      1 RES1   0.0000
    24 H7      -3.7135  -1.0181   0.5173   H         1 RES1   0.0000
    25 C13     -3.0547   4.7115   7.6615   C.3       1 RES1   0.0000
    26 H8      -3.7033   4.3141   8.2463   H         1 RES1   0.0000
    27 H9      -2.5894   5.4098   8.1277   H         1 RES1   0.0000
    28 H10     -2.4280   4.0421   7.3779   H         1 RES1   0.0000
    29 C14     -0.5451  -1.2379   0.9719   C.ar      1 RES1   0.0000
    30 H11      0.2207  -1.6594   0.6533   H         1 RES1   0.0000
    31 C15     -1.7635  -1.4901   0.3931   C.ar      1 RES1   0.0000
    32 H12     -1.8349  -2.0788  -0.3243   H         1 RES1   0.0000
    33 C16     -8.5764   3.0073   5.9971   C.3       1 RES1   0.0000
    34 H13     -9.5330   3.0878   5.9637   H         1 RES1   0.0000
    35 H14     -8.2176   3.6896   6.5695   H         1 RES1   0.0000
    36 H15     -8.3390   2.1426   6.3417   H         1 RES1   0.0000
    37 C17     -4.7861   6.3452   6.9136   C.3       1 RES1   0.0000
    38 H16     -5.2375   6.7227   6.1551   H         1 RES1   0.0000
    39 H17     -4.3307   7.0403   7.3937   H         1 RES1   0.0000
    40 H18     -5.4270   5.9249   7.4918   H         1 RES1   0.0000
    41 C18     -8.5391   2.0454   3.7101   C.3       1 RES1   0.0000
    42 H19     -8.2425   1.1990   4.0528   H         1 RES1   0.0000
    43 H20     -8.2118   2.1609   2.8157   H         1 RES1   0.0000
    44 H21     -9.4977   2.0697   3.7048   H         1 RES1   0.0000
    45 C19     -8.4540   4.5126   4.0104   C.3       1 RES1   0.0000
    46 H22     -9.4134   4.5558   4.0037   H         1 RES1   0.0000
    47 H23     -8.1251   4.5953   3.1131   H         1 RES1   0.0000
    48 H24     -8.1054   5.2289   4.5463   H         1 RES1   0.0000
    49 O1A     -0.9705   3.0255   2.7882   O.3       1 RES1   0.0000
    50 N1A      0.0898   1.5071   4.5023   N.2       1 RES1   0.0000
    51 N2A     -1.7950   0.2798   5.3849   N.ar      1 RES1   0.0000
    52 N3A      0.5115   0.6818   5.4273   N.2       1 RES1   0.0000
    53 C1A      0.3127   3.1732   2.9300   C.ar      1 RES1   0.0000
    54 C2A      1.0976   4.1804   2.2828   C.ar      1 RES1   0.0000
    55 C3A      3.1423   3.1462   3.2522   C.ar      1 RES1   0.0000
    56 C4A     -0.5891   0.0243   5.9471   C.ar      1 RES1   0.0000
    57 C5A      0.9900   2.2979   3.8185   C.ar      1 RES1   0.0000
    58 C6A      2.4587   4.1060   2.4557   C.ar      1 RES1   0.0000
    59 H1A      2.9776   4.7381   2.0137   H         1 RES1   0.0000
    60 C7A      2.3776   2.2634   3.9634   C.ar      1 RES1   0.0000
    61 H2A      2.7777   1.6488   4.5352   H         1 RES1   0.0000
    62 C8A      0.4321   5.3010   1.4756   C.3       1 RES1   0.0000
    63 C9A     -2.8690  -0.3576   5.8843   C.ar      1 RES1   0.0000
    64 H3A     -3.7005  -0.1960   5.5018   H         1 RES1   0.0000
    65 C10A     4.6725   3.1682   3.3117   C.3       1 RES1   0.0000
    66 C11A    -0.5985   6.0135   2.3679   C.3       1 RES1   0.0000
    67 H4A     -1.2725   5.3870   2.6402   H         1 RES1   0.0000
    68 H5A     -1.0063   6.7303   1.8761   H         1 RES1   0.0000
    69 H6A     -0.1589   6.3686   3.1448   H         1 RES1   0.0000
    70 C12A    -0.4558  -0.8580   7.0182   C.ar      1 RES1   0.0000
    71 H7A      0.3805  -1.0181   7.3921   H         1 RES1   0.0000
    72 C13A    -0.2784   4.7115   0.2479   C.3       1 RES1   0.0000
    73 H8A      0.3702   4.3141  -0.3369   H         1 RES1   0.0000
    74 H9A     -0.7437   5.4098  -0.2183   H         1 RES1   0.0000
    75 H10A    -0.9051   4.0421   0.5315   H         1 RES1   0.0000
    76 C14A    -2.7880  -1.2379   6.9375   C.ar      1 RES1   0.0000
    77 H11A    -3.5538  -1.6594   7.2561   H         1 RES1   0.0000
    78 C15A    -1.5695  -1.4901   7.5163   C.ar      1 RES1   0.0000
    79 H12A    -1.4982  -2.0788   8.2337   H         1 RES1   0.0000
    80 C16A     5.2433   3.0073   1.9123   C.3       1 RES1   0.0000
    81 H13A     6.1999   3.0878   1.9457   H         1 RES1   0.0000
    82 H14A     4.8845   3.6896   1.3399   H         1 RES1   0.0000
    83 H15A     5.0060   2.1426   1.5676   H         1 RES1   0.0000
    84 C17A     1.4530   6.3452   0.9958   C.3       1 RES1   0.0000
    85 H16A     1.9044   6.7227   1.7543   H         1 RES1   0.0000
    86 H17A     0.9976   7.0403   0.5157   H         1 RES1   0.0000
    87 H18A     2.0939   5.9249   0.4176   H         1 RES1   0.0000
    88 C18A     5.2060   2.0454   4.1993   C.3       1 RES1   0.0000
    89 H19A     4.9094   1.1990   3.8566   H         1 RES1   0.0000
    90 H20A     4.8787   2.1609   5.0936   H         1 RES1   0.0000
    91 H21A     6.1646   2.0697   4.2046   H         1 RES1   0.0000
    92 C19A     5.1209   4.5126   3.8990   C.3       1 RES1   0.0000
    93 H22A     6.0803   4.5558   3.9057   H         1 RES1   0.0000
    94 H23A     4.7920   4.5953   4.7963   H         1 RES1   0.0000
    95 H24A     4.7723   5.2289   3.3631   H         1 RES1   0.0000
@<TRIPOS>BOND
     1     1     2    1
     2     2     6    1
     3     3     1    1
     4     4     1    1
     5     5     3    2
     6     6     7   ar
     7     7    11   ar
     8     8    11   ar
     9     9     4   ar
    10    10     3    1
    11    11    12    1
    12    13     8   ar
    13    14    13    1
    14    15     7    1
    15    16     4   ar
    16    17    16    1
    17    18     8    1
    18    19    15    1
    19    20    19    1
    20    21    19    1
    21    22    19    1
    22    23     9   ar
    23    24    23    1
    24    25    15    1
    25    26    25    1
    26    27    25    1
    27    28    25    1
    28    29    16   ar
    29    30    29    1
    30    31    23   ar
    31    32    31    1
    32    33    18    1
    33    34    33    1
    34    35    33    1
    35    36    33    1
    36    37    15    1
    37    38    37    1
    38    39    37    1
    39    40    37    1
    40    41    18    1
    41    42    41    1
    42    43    41    1
    43    44    41    1
    44    45    18    1
    45    46    45    1
    46    47    45    1
    47    48    45    1
    48    49     1    1
    49    50     1    1
    50    51     1    1
    51    52    50    2
    52    53    49    1
    53    54    53   ar
    54    55    58   ar
    55    56    51   ar
    56    57    50    1
    57    58    54   ar
    58    59    58    1
    59    60    55   ar
    60    61    60    1
    61    62    54    1
    62    63    51   ar
    63    64    63    1
    64    65    55    1
    65    66    62    1
    66    67    66    1
    67    68    66    1
    68    69    66    1
    69    70    56   ar
    70    71    70    1
    71    72    62    1
    72    73    72    1
    73    74    72    1
    74    75    72    1
    75    76    63   ar
    76    77    76    1
    77    78    70   ar
    78    79    78    1
    79    80    65    1
    80    81    80    1
    81    82    80    1
    82    83    80    1
    83    84    62    1
    84    85    84    1
    85    86    84    1
    86    87    84    1
    87    88    65    1
    88    89    88    1
    89    90    88    1
    90    91    88    1
    91    92    65    1
    92    93    92    1
    93    94    92    1
    94    95    92    1
    95     5     9    1
    96     6    10   ar
    97    10    13   ar
    98    29    31   ar
    99    52    56    1
   100    53    57   ar
   101    57    60   ar
   102    76    78   ar
@<TRIPOS>SUBSTRUCTURE
     1 RES1        1 GROUP             0 ****  ****    0  
@<TRIPOS>CRYSIN
   17.9720   15.1960   17.1660   90.0000  112.8510   90.0000    15     1
