@<TRIPOS>MOLECULE
WIXCIQ
    81    86     1     0     0
SMALL
NO_CHARGES
****
Generated from the CSD

@<TRIPOS>ATOM
     1 Fe1      2.4613   3.5967   3.1657   Fe        1 RES1   0.0000
     2 O1       2.1369   2.6555   4.9315   O.3       1 RES1   0.0000
     3 O2       3.9499   4.9250   3.3968   O.3       1 RES1   0.0000
     4 O3      -0.9409   0.2366   6.2605   O.2       1 RES1   0.0000
     5 O4       5.9284   7.4534   0.8033   O.2       1 RES1   0.0000
     6 N1       0.9243   2.4015   2.4224   N.2       1 RES1   0.0000
     7 N2       2.3938   4.2675   1.1889   N.2       1 RES1   0.0000
     8 C1       1.2151   1.9258   5.3766   C.2       1 RES1   0.0000
     9 C2       0.2283   1.3505   4.5274   C.2       1 RES1   0.0000
    10 C3       0.1630   1.6099   3.1340   C.2       1 RES1   0.0000
    11 H1      -0.5039   1.1603   2.6666   H         1 RES1   0.0000
    12 C4       0.6865   2.5782   1.0401   C.ar      1 RES1   0.0000
    13 C5      -0.1994   1.8135   0.2752   C.ar      1 RES1   0.0000
    14 H2      -0.6578   1.1131   0.6794   H         1 RES1   0.0000
    15 C6      -0.4093   2.0714  -1.0562   C.ar      1 RES1   0.0000
    16 H3      -0.9899   1.5413  -1.5521   H         1 RES1   0.0000
    17 C7       0.2495   3.1240  -1.6513   C.ar      1 RES1   0.0000
    18 H4       0.0722   3.3313  -2.5401   H         1 RES1   0.0000
    19 C8       1.1635   3.8723  -0.9521   C.ar      1 RES1   0.0000
    20 H5       1.6118   4.5665  -1.3773   H         1 RES1   0.0000
    21 C9       1.4256   3.6006   0.3917   C.ar      1 RES1   0.0000
    22 C10      3.2202   5.1198   0.6199   C.2       1 RES1   0.0000
    23 H6       3.1210   5.2533  -0.2950   H         1 RES1   0.0000
    24 C11      4.2461   5.8549   1.2608   C.2       1 RES1   0.0000
    25 C12      4.5563   5.7337   2.6331   C.2       1 RES1   0.0000
    26 C13      1.2690   1.6901   6.8593   C.3       1 RES1   0.0000
    27 H7       2.0256   2.1512   7.2287   H         1 RES1   0.0000
    28 H8       1.3534   0.7496   7.0316   H         1 RES1   0.0000
    29 H9       0.4645   2.0194   7.2659   H         1 RES1   0.0000
    30 C14     -0.7977   0.4481   5.0691   C.2       1 RES1   0.0000
    31 C15     -1.7440  -0.2791   4.1580   C.3       1 RES1   0.0000
    32 H10     -2.2718  -0.8965   4.6712   H         1 RES1   0.0000
    33 H11     -1.2439  -0.7599   3.4947   H         1 RES1   0.0000
    34 H12     -2.3227   0.3532   3.7265   H         1 RES1   0.0000
    35 C16      5.6264   6.5348   3.3410   C.3       1 RES1   0.0000
    36 H13      5.6459   6.2915   4.2695   H         1 RES1   0.0000
    37 H14      5.4322   7.4707   3.2579   H         1 RES1   0.0000
    38 H15      6.4800   6.3485   2.9431   H         1 RES1   0.0000
    39 C17      5.0305   6.7443   0.3818   C.2       1 RES1   0.0000
    40 C18      4.7741   6.7925  -1.0897   C.3       1 RES1   0.0000
    41 H16      5.4115   7.3771  -1.5075   H         1 RES1   0.0000
    42 H17      3.8864   7.1214  -1.2496   H         1 RES1   0.0000
    43 H18      4.8601   5.9107  -1.4591   H         1 RES1   0.0000
    44 N3       1.0495   5.1680   4.0042   N.ar      1 RES1   0.0000
    45 N4      -1.5833   7.6744   6.0646   N.pl3     1 RES1   0.0000
    46 C19     -0.2666   5.1696   3.7600   C.ar      1 RES1   0.0000
    47 H19     -0.5913   4.5777   3.1203   H         1 RES1   0.0000
    48 C20     -1.1630   5.9850   4.3923   C.ar      1 RES1   0.0000
    49 H20     -2.0647   5.9456   4.1679   H         1 RES1   0.0000
    50 C21     -0.7306   6.8741   5.3691   C.ar      1 RES1   0.0000
    51 C22      0.6434   6.9077   5.6034   C.ar      1 RES1   0.0000
    52 H21      0.9990   7.5001   6.2258   H         1 RES1   0.0000
    53 C23      1.4603   6.0656   4.9129   C.ar      1 RES1   0.0000
    54 H22      2.3726   6.1166   5.0840   H         1 RES1   0.0000
    55 C24     -2.9996   7.6735   5.8303   C.3       1 RES1   0.0000
    56 H23     -3.1822   7.2674   4.9799   H         1 RES1   0.0000
    57 H24     -3.3237   8.5770   5.8291   H         1 RES1   0.0000
    58 H25     -3.4387   7.1757   6.5233   H         1 RES1   0.0000
    59 C25     -1.1049   8.5107   7.1692   C.3       1 RES1   0.0000
    60 H26     -1.1655   8.0197   7.9924   H         1 RES1   0.0000
    61 H27     -1.6452   9.3021   7.2287   H         1 RES1   0.0000
    62 H28     -0.1915   8.7583   7.0105   H         1 RES1   0.0000
    63 N5       3.9829   2.0495   2.6505   N.ar      1 RES1   0.0000
    64 N6       6.8527  -0.8344   1.6079   N.pl3     1 RES1   0.0000
    65 C26      3.9753   0.8033   3.1402   C.ar      1 RES1   0.0000
    66 H29      3.3003   0.5874   3.7427   H         1 RES1   0.0000
    67 C27      4.8704  -0.1770   2.8290   C.ar      1 RES1   0.0000
    68 H30      4.7862  -1.0212   3.2108   H         1 RES1   0.0000
    69 C28      5.9192   0.0880   1.9327   C.ar      1 RES1   0.0000
    70 C29      5.9471   1.3901   1.4170   C.ar      1 RES1   0.0000
    71 H31      6.6134   1.6386   0.8194   H         1 RES1   0.0000
    72 C30      4.9975   2.2932   1.7926   C.ar      1 RES1   0.0000
    73 H32      5.0526   3.1471   1.4281   H         1 RES1   0.0000
    74 C31      6.7602  -2.2026   2.0591   C.3       1 RES1   0.0000
    75 H33      6.7850  -2.2244   3.0187   H         1 RES1   0.0000
    76 H34      7.4991  -2.7058   1.7083   H         1 RES1   0.0000
    77 H35      5.9360  -2.5862   1.7517   H         1 RES1   0.0000
    78 C32      7.9465  -0.5091   0.6918   C.3       1 RES1   0.0000
    79 H36      7.6028  -0.4236  -0.2008   H         1 RES1   0.0000
    80 H37      8.6037  -1.2079   0.7165   H         1 RES1   0.0000
    81 H38      8.3507   0.3200   0.9583   H         1 RES1   0.0000
@<TRIPOS>BOND
     1     1     2    1
     2     2     8    1
     3     3     1    1
     4     4    30    2
     5     5    39    2
     6     6     1    1
     7     7     1    1
     8     8     9    2
     9     9    10    1
    10    10     6    2
    11    11    10    1
    12    12     6    1
    13    13    12   ar
    14    14    13    1
    15    15    13   ar
    16    16    15    1
    17    17    15   ar
    18    18    17    1
    19    19    17   ar
    20    20    19    1
    21    21     7    1
    22    22     7    2
    23    23    22    1
    24    24    22    1
    25    25     3    1
    26    26     8    1
    27    27    26    1
    28    28    26    1
    29    29    26    1
    30    30     9    1
    31    31    30    1
    32    32    31    1
    33    33    31    1
    34    34    31    1
    35    35    25    1
    36    36    35    1
    37    37    35    1
    38    38    35    1
    39    39    24    1
    40    40    39    1
    41    41    40    1
    42    42    40    1
    43    43    40    1
    44    44     1    1
    45    45    50    1
    46    46    44   ar
    47    47    46    1
    48    48    46   ar
    49    49    48    1
    50    50    48   ar
    51    51    50   ar
    52    52    51    1
    53    53    44   ar
    54    54    53    1
    55    55    45    1
    56    56    55    1
    57    57    55    1
    58    58    55    1
    59    59    45    1
    60    60    59    1
    61    61    59    1
    62    62    59    1
    63    63     1    1
    64    64    69    1
    65    65    63   ar
    66    66    65    1
    67    67    65   ar
    68    68    67    1
    69    69    67   ar
    70    70    69   ar
    71    71    70    1
    72    72    63   ar
    73    73    72    1
    74    74    64    1
    75    75    74    1
    76    76    74    1
    77    77    74    1
    78    78    64    1
    79    79    78    1
    80    80    78    1
    81    81    78    1
    82    12    21   ar
    83    19    21   ar
    84    24    25    2
    85    51    53   ar
    86    70    72   ar
@<TRIPOS>SUBSTRUCTURE
     1 RES1        1 GROUP             0 ****  ****    0  
@<TRIPOS>CRYSIN
   11.1260   11.4430   12.8450   88.8480   74.8900   80.2900     2     1
