@<TRIPOS>MOLECULE
WOBXAN
    85    91     3     0     0
SMALL
USER_CHARGES
****
Generated from the CSD

@<TRIPOS>ATOM
     1 Fe1     13.0194   0.2156  10.8146   Fe        1 RES1   1.0000
     2 N1      13.9231   1.5437  11.9131   N.2       1 RES1   0.0000
     3 C1      14.8656   2.4060  11.1651   C.3       1 RES1   0.0000
     4 H1      15.7480   1.9652  11.0837   H         1 RES1   0.0000
     5 H2      14.9862   3.2733  11.6277   H         1 RES1   0.0000
     6 C2      14.2413   2.6192   9.7816   C.3       1 RES1   0.0000
     7 H3      13.5092   3.2827   9.8444   H         1 RES1   0.0000
     8 H4      14.9251   2.9684   9.1549   H         1 RES1   0.0000
     9 N2      13.6994   1.3061   9.2646   N.3       1 RES1   0.0000
    10 H5      12.9687   1.5039   8.7244   H         1 RES1   0.0000
    11 C3      14.6627   0.5024   8.4349   C.3       1 RES1   0.0000
    12 H6      15.2515   1.1106   7.9186   H         1 RES1   0.0000
    13 H7      14.1647  -0.0648   7.7935   H         1 RES1   0.0000
    14 C4      15.5040  -0.3744   9.3600   C.3       1 RES1   0.0000
    15 H8      15.9140  -1.1106   8.8408   H         1 RES1   0.0000
    16 H9      16.2332   0.1643   9.7571   H         1 RES1   0.0000
    17 N3      14.6447  -0.9460  10.4536   N.3       1 RES1   0.0000
    18 H10     15.1536  -0.9779  11.2320   H         1 RES1   0.0000
    19 C5      14.1292  -2.3254  10.1801   C.3       1 RES1   0.0000
    20 H11     13.8526  -2.7567  11.0284   H         1 RES1   0.0000
    21 H12     14.8400  -2.8767   9.7688   H         1 RES1   0.0000
    22 C6      12.9332  -2.2243   9.2341   C.3       1 RES1   0.0000
    23 H13     13.2368  -2.0379   8.3113   H         1 RES1   0.0000
    24 H14     12.4182  -3.0695   9.2335   H         1 RES1   0.0000
    25 N4      12.0948  -1.1008   9.7461   N.2       1 RES1   0.0000
    26 C7      13.6156   1.8215  13.1387   C.2       1 RES1   0.0000
    27 H15     14.0172   2.5861  13.5360   H         1 RES1   0.0000
    28 C8      12.6949   1.0379  13.9468   C.ar      1 RES1   0.0000
    29 C9      12.3274  -0.2670  13.5395   C.ar      1 RES1   0.0000
    30 C10     11.5798  -1.0964  14.4585   C.ar      1 RES1   0.0000
    31 H16     11.4251  -2.0095  14.2459   H         1 RES1   0.0000
    32 C11     11.0889  -0.5893  15.6294   C.ar      1 RES1   0.0000
    33 H17     10.5810  -1.1532  16.2008   H         1 RES1   0.0000
    34 C12     11.3215   0.7709  16.0161   C.ar      1 RES1   0.0000
    35 C13     12.1827   1.5845  15.2044   C.ar      1 RES1   0.0000
    36 O1      12.6288  -0.8080  12.3747   O.3       1 RES1   0.0000
    37 C14     10.7980  -1.1512   9.5148   C.2       1 RES1   0.0000
    38 H18     10.4660  -1.9052   9.0415   H         1 RES1   0.0000
    39 C15      9.8432  -0.1532   9.9235   C.ar      1 RES1   0.0000
    40 C16     10.2575   1.0521  10.5452   C.ar      1 RES1   0.0000
    41 C17      9.2885   2.0916  10.7808   C.ar      1 RES1   0.0000
    42 H19      9.5708   2.9194  11.1535   H         1 RES1   0.0000
    43 C18      7.9691   1.9068  10.4742   C.ar      1 RES1   0.0000
    44 H20      7.3533   2.6145  10.6357   H         1 RES1   0.0000
    45 C19      7.4867   0.6746   9.9165   C.ar      1 RES1   0.0000
    46 C20      8.4188  -0.3791   9.6346   C.ar      1 RES1   0.0000
    47 O2      11.4968   1.3349  10.9147   O.3       1 RES1   0.0000
    48 C21     10.6987   1.3302  17.1750   C.ar      1 RES1   0.0000
    49 H21     10.1199   0.7867  17.6961   H         1 RES1   0.0000
    50 C22     10.9172   2.6350  17.5529   C.ar      1 RES1   0.0000
    51 H22     10.4817   2.9984  18.3157   H         1 RES1   0.0000
    52 C23     11.8025   3.4265  16.7867   C.ar      1 RES1   0.0000
    53 H23     11.9855   4.3159  17.0619   H         1 RES1   0.0000
    54 C24     12.4111   2.9305  15.6411   C.ar      1 RES1   0.0000
    55 H24     12.9886   3.4928  15.1390   H         1 RES1   0.0000
    56 C25      6.0977   0.4897   9.6378   C.ar      1 RES1   0.0000
    57 H25      5.4877   1.1975   9.8095   H         1 RES1   0.0000
    58 C26      5.6324  -0.6951   9.1264   C.ar      1 RES1   0.0000
    59 H26      4.7088  -0.8009   8.9309   H         1 RES1   0.0000
    60 C27      6.5361  -1.7646   8.8879   C.ar      1 RES1   0.0000
    61 H27      6.2112  -2.5971   8.5673   H         1 RES1   0.0000
    62 C28      7.8995  -1.5940   9.1215   C.ar      1 RES1   0.0000
    63 H28      8.4954  -2.3096   8.9309   H         1 RES1   0.0000
    64 P1      11.0090   3.2222   6.9292   P.3       2 RES2  -1.0000
    65 F1      12.5835   3.3069   6.6086   F         2 RES2   0.0000
    66 F2      11.3086   3.5995   8.4762   F         2 RES2   0.0000
    67 F3      11.1730   1.6614   7.2882   F         2 RES2   0.0000
    68 F4       9.4358   3.1545   7.2623   F         2 RES2   0.0000
    69 F5      10.6974   2.8387   5.3906   F         2 RES2   0.0000
    70 F6      10.8528   4.7984   6.5836   F         2 RES2   0.0000
    71 C29     11.9316   4.9494  12.3128   C.3       3 RES3   0.0000
    72 H29     12.3757   4.4786  11.5753   H         3 RES3   0.0000
    73 H30     11.1669   5.4533  11.9651   H         3 RES3   0.0000
    74 H31     11.6181   4.2969  12.9746   H         3 RES3   0.0000
    75 C30     12.9105   5.9051  12.9676   C.3       3 RES3   0.0000
    76 H32     13.2482   6.5497  12.2968   H         3 RES3   0.0000
    77 H33     12.4551   6.4122  13.6873   H         3 RES3   0.0000
    78 O3      14.0050   5.1521  13.5180   O.3       3 RES3   0.0000
    79 C31     14.9166   5.9668  14.2656   C.3       3 RES3   0.0000
    80 H34     14.4399   6.4138  15.0110   H         3 RES3   0.0000
    81 H35     15.3054   6.6650  13.6815   H         3 RES3   0.0000
    82 C32     16.0147   5.0773  14.8131   C.3       3 RES3   0.0000
    83 H36     15.6217   4.3981  15.4008   H         3 RES3   0.0000
    84 H37     16.6532   5.6208  15.3193   H         3 RES3   0.0000
    85 H38     16.4787   4.6366  14.0713   H         3 RES3   0.0000
@<TRIPOS>BOND
     1     1     2    1
     2     2     3    1
     3     3     4    1
     4     5     3    1
     5     6     3    1
     6     7     6    1
     7     8     6    1
     8     9     1    1
     9    10     9    1
    10    11     9    1
    11    12    11    1
    12    13    11    1
    13    14    11    1
    14    15    14    1
    15    16    14    1
    16    17     1    1
    17    18    17    1
    18    19    17    1
    19    20    19    1
    20    21    19    1
    21    22    19    1
    22    23    22    1
    23    24    22    1
    24    25     1    1
    25    26     2    2
    26    27    26    1
    27    28    26    1
    28    29    28   ar
    29    30    29   ar
    30    31    30    1
    31    32    30   ar
    32    33    32    1
    33    34    32   ar
    34    35    28   ar
    35    36     1    1
    36    37    25    2
    37    38    37    1
    38    39    37    1
    39    40    39   ar
    40    41    40   ar
    41    42    41    1
    42    43    41   ar
    43    44    43    1
    44    45    43   ar
    45    46    39   ar
    46    47     1    1
    47    48    34   ar
    48    49    48    1
    49    50    48   ar
    50    51    50    1
    51    52    50   ar
    52    53    52    1
    53    54    35   ar
    54    55    54    1
    55    56    45   ar
    56    57    56    1
    57    58    56   ar
    58    59    58    1
    59    60    58   ar
    60    61    60    1
    61    62    46   ar
    62    63    62    1
    63     6     9    1
    64    14    17    1
    65    22    25    1
    66    29    36    1
    67    34    35   ar
    68    40    47    1
    69    45    46   ar
    70    52    54   ar
    71    60    62   ar
    72    64    65    1
    73    66    64    1
    74    67    64    1
    75    68    64    1
    76    69    64    1
    77    70    64    1
    78    71    72    1
    79    73    71    1
    80    74    71    1
    81    75    71    1
    82    76    75    1
    83    77    75    1
    84    78    75    1
    85    79    78    1
    86    80    79    1
    87    81    79    1
    88    82    79    1
    89    83    82    1
    90    84    82    1
    91    85    82    1
@<TRIPOS>SUBSTRUCTURE
     1 RES1        1 GROUP             0 ****  ****    0  
     2 RES2       64 GROUP             0 ****  ****    0  
     3 RES3       71 GROUP             0 ****  ****    0  
@<TRIPOS>CRYSIN
   14.1874   15.7976   29.0910   90.0000   90.0000   90.0000    61     1
