@<TRIPOS>MOLECULE
WOCQEO
    93    99     1     0     0
SMALL
NO_CHARGES
****
Generated from the CSD

@<TRIPOS>ATOM
     1 Fe1     -0.8474   1.0904   4.2441   Fe        1 RES1   0.0000
     2 Cl1     -0.4270   3.1921   3.3171   Cl        1 RES1   0.0000
     3 S1      -5.2229   1.5423   5.2995   S.2       1 RES1   0.0000
     4 C1      -3.9114   4.5392   1.4987   C.3       1 RES1   0.0000
     5 H1      -3.1131   5.0573   1.2627   H         1 RES1   0.0000
     6 H2      -3.7613   4.0788   2.3506   H         1 RES1   0.0000
     7 H3      -4.6785   5.1428   1.5840   H         1 RES1   0.0000
     8 C2      -4.4506   4.2246  -0.9042   C.3       1 RES1   0.0000
     9 H4      -5.2118   4.8333  -0.8044   H         1 RES1   0.0000
    10 H5      -4.6516   3.5601  -1.5956   H         1 RES1   0.0000
    11 H6      -3.6555   4.7361  -1.1643   H         1 RES1   0.0000
    12 C3      -5.4162   2.6931   0.8040   C.3       1 RES1   0.0000
    13 H7      -5.2423   2.2270   1.6485   H         1 RES1   0.0000
    14 H8      -5.6038   2.0365   0.1012   H         1 RES1   0.0000
    15 H9      -6.1889   3.2863   0.9116   H         1 RES1   0.0000
    16 C4      -4.1891   3.5197   0.4158   C.3       1 RES1   0.0000
    17 C5      -2.9872   2.5893   0.2138   C.3       1 RES1   0.0000
    18 H10     -3.2079   1.9338  -0.4942   H         1 RES1   0.0000
    19 H11     -2.2191   3.1274  -0.1047   H         1 RES1   0.0000
    20 C6      -2.8453   0.5876   1.7243   C.ar      1 RES1   0.0000
    21 C7      -3.5641  -0.2831   0.8769   C.ar      1 RES1   0.0000
    22 H12     -3.9039   0.0327   0.0479   H         1 RES1   0.0000
    23 C8      -3.7688  -1.5710   1.2481   C.ar      1 RES1   0.0000
    24 H13     -4.2254  -2.1655   0.6645   H         1 RES1   0.0000
    25 C9      -3.3129  -2.0232   2.4805   C.ar      1 RES1   0.0000
    26 H14     -3.4589  -2.9201   2.7586   H         1 RES1   0.0000
    27 C10     -2.6443  -1.1311   3.2838   C.ar      1 RES1   0.0000
    28 C11     -2.2781  -1.5123   4.6951   C.3       1 RES1   0.0000
    29 H15     -3.0314  -1.2801   5.2941   H         1 RES1   0.0000
    30 H16     -2.1494  -2.4925   4.7387   H         1 RES1   0.0000
    31 C12     -1.1285  -0.6022   6.6507   C.3       1 RES1   0.0000
    32 H17     -1.0989  -1.4611   7.1420   H         1 RES1   0.0000
    33 H18     -1.9749  -0.1413   6.8767   H         1 RES1   0.0000
    34 C13      0.0413   0.2515   7.0347   C.ar      1 RES1   0.0000
    35 C14      0.7301   0.0203   8.1971   C.ar      1 RES1   0.0000
    36 H19      0.4053  -0.5960   8.8429   H         1 RES1   0.0000
    37 C15      1.9185   0.7139   8.4046   C.ar      1 RES1   0.0000
    38 H20      2.4163   0.5743   9.2012   H         1 RES1   0.0000
    39 C16      2.3701   1.5980   7.4605   C.ar      1 RES1   0.0000
    40 H21      3.1936   2.0538   7.5870   H         1 RES1   0.0000
    41 C17      1.6019   1.8270   6.2994   C.ar      1 RES1   0.0000
    42 C18      3.3046   3.3697   5.4002   C.3       1 RES1   0.0000
    43 H22      4.0173   2.6843   5.4327   H         1 RES1   0.0000
    44 H23      3.3666   3.9116   6.2266   H         1 RES1   0.0000
    45 C19      3.5372   4.2719   4.1969   C.3       1 RES1   0.0000
    46 C20      4.9194   4.9035   4.3808   C.3       1 RES1   0.0000
    47 H24      4.9351   5.4200   5.2131   H         1 RES1   0.0000
    48 H25      5.1116   5.4960   3.6243   H         1 RES1   0.0000
    49 H26      5.5983   4.1970   4.4223   H         1 RES1   0.0000
    50 C21      2.4913   5.3873   4.1709   C.3       1 RES1   0.0000
    51 H27      1.6118   5.0052   3.9698   H         1 RES1   0.0000
    52 H28      2.7291   6.0414   3.4812   H         1 RES1   0.0000
    53 H29      2.4639   5.8291   5.0450   H         1 RES1   0.0000
    54 C22      3.4974   3.4802   2.8916   C.3       1 RES1   0.0000
    55 H30      4.1557   2.7553   2.9291   H         1 RES1   0.0000
    56 H31      3.7091   4.0753   2.1421   H         1 RES1   0.0000
    57 H32      2.6020   3.1024   2.7658   H         1 RES1   0.0000
    58 C23      0.1943  -1.5991   4.8721   C.3       1 RES1   0.0000
    59 H33     -0.0034  -2.5685   4.8492   H         1 RES1   0.0000
    60 H34      0.8592  -1.4406   5.5888   H         1 RES1   0.0000
    61 C24      0.8014  -1.1672   3.5065   C.3       1 RES1   0.0000
    62 C25      0.2757  -2.0401   2.3525   C.ar      1 RES1   0.0000
    63 C26     -0.0918  -1.4514   1.1458   C.ar      1 RES1   0.0000
    64 H35     -0.0156  -0.5111   1.0379   H         1 RES1   0.0000
    65 C27     -0.5706  -2.2329   0.0942   C.ar      1 RES1   0.0000
    66 H36     -0.8227  -1.8215  -0.7245   H         1 RES1   0.0000
    67 C28     -0.6807  -3.6111   0.2408   C.ar      1 RES1   0.0000
    68 H37     -1.0124  -4.1417  -0.4741   H         1 RES1   0.0000
    69 C29     -0.3049  -4.2099   1.4333   C.ar      1 RES1   0.0000
    70 H38     -0.3784  -5.1510   1.5359   H         1 RES1   0.0000
    71 C30      0.1788  -3.4351   2.4774   C.ar      1 RES1   0.0000
    72 H39      0.4487  -3.8537   3.2865   H         1 RES1   0.0000
    73 C31      2.3343  -1.2969   3.5794   C.ar      1 RES1   0.0000
    74 C32      2.9448  -2.3074   4.3199   C.ar      1 RES1   0.0000
    75 H40      2.4117  -2.9485   4.7746   H         1 RES1   0.0000
    76 C33      4.3284  -2.3818   4.3971   C.ar      1 RES1   0.0000
    77 H41      4.7349  -3.0701   4.9107   H         1 RES1   0.0000
    78 C34      5.1180  -1.4683   3.7371   C.ar      1 RES1   0.0000
    79 H42      6.0654  -1.5296   3.7854   H         1 RES1   0.0000
    80 C35      4.5189  -0.4590   3.0010   C.ar      1 RES1   0.0000
    81 H43      5.0563   0.1785   2.5447   H         1 RES1   0.0000
    82 C36      3.1356  -0.3778   2.9296   C.ar      1 RES1   0.0000
    83 H44      2.7331   0.3202   2.4264   H         1 RES1   0.0000
    84 C37     -3.6024   1.7266   5.3246   C.1       1 RES1   0.0000
    85 N1      -2.5883   1.8698   1.4066   N.pl3     1 RES1   0.0000
    86 H45     -2.1282   2.3119   1.9464   H         1 RES1   0.0000
    87 N2      -2.3704   0.1410   2.9191   N.ar      1 RES1   0.0000
    88 N3      -1.0564  -0.8492   5.1874   N.3       1 RES1   0.0000
    89 N4       0.4336   1.1677   6.0961   N.ar      1 RES1   0.0000
    90 N5       2.0055   2.7055   5.3627   N.pl3     1 RES1   0.0000
    91 H46      1.5267   2.7630   4.6694   H         1 RES1   0.0000
    92 N6      -2.5022   1.8067   5.3522   N.2       1 RES1   0.0000
    93 O1       0.4969   0.1896   3.2811   O.3       1 RES1   0.0000
@<TRIPOS>BOND
     1     1     2    1
     2     3    84    2
     3     4     5    1
     4     6     4    1
     5     7     4    1
     6     8     9    1
     7    10     8    1
     8    11     8    1
     9    12    13    1
    10    14    12    1
    11    15    12    1
    12    16     4    1
    13    17    16    1
    14    18    17    1
    15    19    17    1
    16    20    21   ar
    17    21    22    1
    18    23    21   ar
    19    24    23    1
    20    25    23   ar
    21    26    25    1
    22    27    25   ar
    23    28    27    1
    24    29    28    1
    25    30    28    1
    26    31    32    1
    27    33    31    1
    28    34    31    1
    29    35    34   ar
    30    36    35    1
    31    37    35   ar
    32    38    37    1
    33    39    37   ar
    34    40    39    1
    35    41    39   ar
    36    42    43    1
    37    44    42    1
    38    45    42    1
    39    46    45    1
    40    47    46    1
    41    48    46    1
    42    49    46    1
    43    50    45    1
    44    51    50    1
    45    52    50    1
    46    53    50    1
    47    54    45    1
    48    55    54    1
    49    56    54    1
    50    57    54    1
    51    58    59    1
    52    60    58    1
    53    61    58    1
    54    62    61    1
    55    63    62   ar
    56    64    63    1
    57    65    63   ar
    58    66    65    1
    59    67    65   ar
    60    68    67    1
    61    69    67   ar
    62    70    69    1
    63    71    62   ar
    64    72    71    1
    65    73    61    1
    66    74    73   ar
    67    75    74    1
    68    76    74   ar
    69    77    76    1
    70    78    76   ar
    71    79    78    1
    72    80    78   ar
    73    81    80    1
    74    82    73   ar
    75    83    82    1
    76    84    92    2
    77    85    17    1
    78    86    85    1
    79    87     1    1
    80    88     1    1
    81    89     1    1
    82    90    41    1
    83    91    90    1
    84    92     1    1
    85    93     1    1
    86     8    16    1
    87    12    16    1
    88    20    85    1
    89    20    87   ar
    90    27    87   ar
    91    28    88    1
    92    31    88    1
    93    34    89   ar
    94    41    89   ar
    95    42    90    1
    96    58    88    1
    97    61    93    1
    98    69    71   ar
    99    80    82   ar
@<TRIPOS>SUBSTRUCTURE
     1 RES1        1 GROUP             0 ****  ****    0  
@<TRIPOS>CRYSIN
   12.1816   11.2775   26.5697   90.0000   99.1400   90.0000    14     1
