@<TRIPOS>MOLECULE
WODLOQ
   114   123     2     0     0
SMALL
NO_CHARGES
****
Generated from the CSD

@<TRIPOS>ATOM
     1 Fe1      2.6540  13.1864   4.1530   Fe        1 RES1   0.0000
     2 O1       1.1325  12.1921   5.1318   O.2       1 RES1   0.0000
     3 O2       0.9837  14.4006   4.0593   O.3       1 RES1   0.0000
     4 N1       3.4896  15.1330   3.7223   N.2       1 RES1   0.0000
     5 N2       3.7586  13.3702   5.9288   N.2       1 RES1   0.0000
     6 N3       3.3759  11.1761   4.1516   N.2       1 RES1   0.0000
     7 N4       2.6667  12.9374   2.0793   N.2       1 RES1   0.0000
     8 C1       3.2869  15.8031   2.5561   C.2       1 RES1   0.0000
     9 C2       3.6423  17.1939   2.7435   C.2       1 RES1   0.0000
    10 C3       4.0153  17.3415   3.9949   C.2       1 RES1   0.0000
    11 C4       3.9093  16.0390   4.6354   C.2       1 RES1   0.0000
    12 C5       4.1547  15.7843   5.9693   C.2       1 RES1   0.0000
    13 C6       4.0815  14.5613   6.5874   C.2       1 RES1   0.0000
    14 C7       4.4746  14.2704   7.9395   C.2       1 RES1   0.0000
    15 C8       4.4210  12.9099   8.1087   C.2       1 RES1   0.0000
    16 C9       3.9731  12.3542   6.8335   C.2       1 RES1   0.0000
    17 C10      3.9688  11.0197   6.4923   C.2       1 RES1   0.0000
    18 C11      3.7516  10.4929   5.2870   C.2       1 RES1   0.0000
    19 C12      3.8897   9.0659   4.9584   C.2       1 RES1   0.0000
    20 C13      3.5067   8.8879   3.6552   C.2       1 RES1   0.0000
    21 C14      3.1438  10.2237   3.1658   C.2       1 RES1   0.0000
    22 C15      2.6717  10.5031   1.9213   C.2       1 RES1   0.0000
    23 C16      2.4281  11.7304   1.3759   C.2       1 RES1   0.0000
    24 C17      2.1013  12.0242   0.0098   C.2       1 RES1   0.0000
    25 C18      2.1613  13.3962  -0.1510   C.2       1 RES1   0.0000
    26 C19      2.5127  13.9303   1.1144   C.2       1 RES1   0.0000
    27 C20      2.8103  15.2705   1.3815   C.2       1 RES1   0.0000
    28 C21      3.6650  18.2258   1.6178   C.3       1 RES1   0.0000
    29 C22      4.9451  18.1911   0.8306   C.3       1 RES1   0.0000
    30 C23      4.5378  18.5602   4.7318   C.3       1 RES1   0.0000
    31 C24      6.0517  18.6673   4.6647   C.3       1 RES1   0.0000
    32 C25      5.0168  15.2994   8.8806   C.3       1 RES1   0.0000
    33 C26      6.5101  15.4702   8.7617   C.3       1 RES1   0.0000
    34 C27      4.7572  12.0951   9.3071   C.3       1 RES1   0.0000
    35 C28      6.1782  11.5118   9.2316   C.3       1 RES1   0.0000
    36 C29      4.4653   8.0499   5.8812   C.3       1 RES1   0.0000
    37 C30      5.9926   8.0803   5.8533   C.3       1 RES1   0.0000
    38 C31      3.4938   7.6663   2.8413   C.3       1 RES1   0.0000
    39 C32      4.7825   7.4724   2.0625   C.3       1 RES1   0.0000
    40 C33      1.7110  10.9995  -1.0417   C.3       1 RES1   0.0000
    41 C34      0.2699  10.6825  -1.0795   C.3       1 RES1   0.0000
    42 C35      1.8830  14.1937  -1.3871   C.3       1 RES1   0.0000
    43 C36      0.5021  14.8102  -1.4151   C.3       1 RES1   0.0000
    44 C37     -0.0228  12.6812   5.1765   C.2       1 RES1   0.0000
    45 C38     -1.0545  11.9996   5.8029   C.2       1 RES1   0.0000
    46 C39     -2.3836  12.3397   5.9554   C.2       1 RES1   0.0000
    47 C40     -3.0676  13.4512   5.5485   C.2       1 RES1   0.0000
    48 C41     -2.5665  14.5627   4.8731   C.2       1 RES1   0.0000
    49 C42     -1.2632  14.7914   4.4774   C.2       1 RES1   0.0000
    50 C43     -0.1165  14.0229   4.5473   C.2       1 RES1   0.0000
    51 H1       4.3961  16.5267   6.5119   H         1 RES1   0.0000
    52 H2       4.1382  10.4061   7.1970   H         1 RES1   0.0000
    53 H3       2.4903   9.7548   1.3647   H         1 RES1   0.0000
    54 H4       2.6662  15.8827   0.6698   H         1 RES1   0.0000
    55 H5       2.9051  18.0536   1.0068   H         1 RES1   0.0000
    56 H6       3.5465  19.1290   2.0038   H         1 RES1   0.0000
    57 H7       4.9330  18.9032   0.1552   H         1 RES1   0.0000
    58 H8       5.0340  17.3227   0.3859   H         1 RES1   0.0000
    59 H9       5.7042  18.3286   1.4347   H         1 RES1   0.0000
    60 H10      4.2579  18.5095   5.6813   H         1 RES1   0.0000
    61 H11      4.1357  19.3750   4.3403   H         1 RES1   0.0000
    62 H12      6.3454  19.4633   5.1555   H         1 RES1   0.0000
    63 H13      6.3314  18.7396   3.7279   H         1 RES1   0.0000
    64 H14      6.4540  17.8684   5.0646   H         1 RES1   0.0000
    65 H15      4.7951  15.0360   9.8091   H         1 RES1   0.0000
    66 H16      4.5772  16.1663   8.6988   H         1 RES1   0.0000
    67 H17      6.8163  16.1287   9.4203   H         1 RES1   0.0000
    68 H18      6.7319  15.7828   7.8598   H         1 RES1   0.0000
    69 H19      6.9519  14.6119   8.9281   H         1 RES1   0.0000
    70 H20      4.1061  11.3541   9.3896   H         1 RES1   0.0000
    71 H21      4.6810  12.6595  10.1167   H         1 RES1   0.0000
    72 H22      6.3735  11.0197  10.0566   H         1 RES1   0.0000
    73 H23      6.8251  12.2398   9.1225   H         1 RES1   0.0000
    74 H24      6.2405  10.9025   8.4653   H         1 RES1   0.0000
    75 H25      4.1491   7.1497   5.6170   H         1 RES1   0.0000
    76 H26      4.1493   8.2265   6.8027   H         1 RES1   0.0000
    77 H27      6.3441   7.3378   6.3874   H         1 RES1   0.0000
    78 H28      6.3084   8.9298   6.2266   H         1 RES1   0.0000
    79 H29      6.3044   7.9949   4.9290   H         1 RES1   0.0000
    80 H30      2.7360   7.7083   2.2065   H         1 RES1   0.0000
    81 H31      3.3523   6.8848   3.4314   H         1 RES1   0.0000
    82 H32      4.7121   6.6677   1.5102   H         1 RES1   0.0000
    83 H33      5.5297   7.3754   2.6889   H         1 RES1   0.0000
    84 H34      4.9363   8.2511   1.4878   H         1 RES1   0.0000
    85 H35      1.9846  11.3381  -1.9311   H         1 RES1   0.0000
    86 H36      2.2148  10.1644  -0.8711   H         1 RES1   0.0000
    87 H37      0.1109   9.9589  -1.7213   H         1 RES1   0.0000
    88 H38     -0.2334  11.4785  -1.3536   H         1 RES1   0.0000
    89 H39     -0.0260  10.4003  -0.1888   H         1 RES1   0.0000
    90 H40      1.9868  13.6061  -2.1772   H         1 RES1   0.0000
    91 H41      2.5568  14.9173  -1.4598   H         1 RES1   0.0000
    92 H42      0.4535  15.4702  -2.1380   H         1 RES1   0.0000
    93 H43      0.3240  15.2502  -0.5579   H         1 RES1   0.0000
    94 H44     -0.1653  14.1083  -1.5675   H         1 RES1   0.0000
    95 H45     -0.8086  11.1674   6.1889   H         1 RES1   0.0000
    96 H46     -2.9077  11.6956   6.4182   H         1 RES1   0.0000
    97 H47     -3.9968  13.4686   5.7512   H         1 RES1   0.0000
    98 H48     -3.1942  15.2430   4.6605   H         1 RES1   0.0000
    99 H49     -1.1299  15.6439   4.0788   H         1 RES1   0.0000
   100 C44     -3.1621  11.9648   2.3422   C.ar      2 RES2   0.0000
   101 C45     -3.9845  12.9765   2.1058   C.ar      2 RES2   0.0000
   102 C46     -3.5597  14.2559   1.4584   C.ar      2 RES2   0.0000
   103 C47     -2.2366  14.3066   1.1256   C.ar      2 RES2   0.0000
   104 C48     -1.3767  13.2269   1.3829   C.ar      2 RES2   0.0000
   105 C49     -1.7988  12.0864   1.9506   C.ar      2 RES2   0.0000
   106 C50     -3.6268  10.7433   2.9336   C.3       2 RES2   0.0000
   107 H50     -4.8947  12.8839   2.3617   H         2 RES2   0.0000
   108 H51     -4.1602  14.9723   1.2934   H         2 RES2   0.0000
   109 H52     -1.8904  15.0881   0.7103   H         2 RES2   0.0000
   110 H53     -0.4604  13.3065   1.1452   H         2 RES2   0.0000
   111 H54     -1.1937  11.3685   2.0905   H         2 RES2   0.0000
   112 H55     -2.9914  10.0240   2.7407   H         2 RES2   0.0000
   113 H56     -4.5041  10.5132   2.5617   H         2 RES2   0.0000
   114 H57     -3.7037  10.8591   3.9041   H         2 RES2   0.0000
@<TRIPOS>BOND
     1     1     2    1
     2     2    44    2
     3     3     1    1
     4     4     1    1
     5     5     1    1
     6     6     1    1
     7     7     1    1
     8     8     4    1
     9     9     8    1
    10    10     9    2
    11    11     4    1
    12    12    11    2
    13    13     5    2
    14    14    13    1
    15    15    14    2
    16    16     5    1
    17    17    16    2
    18    18     6    1
    19    19    18    2
    20    20    19    1
    21    21     6    1
    22    22    21    1
    23    23     7    1
    24    24    23    1
    25    25    24    2
    26    26     7    2
    27    27     8    2
    28    28     9    1
    29    29    28    1
    30    30    10    1
    31    31    30    1
    32    32    14    1
    33    33    32    1
    34    34    15    1
    35    35    34    1
    36    36    19    1
    37    37    36    1
    38    38    20    1
    39    39    38    1
    40    40    24    1
    41    41    40    1
    42    42    25    1
    43    43    42    1
    44    44    45    1
    45    45    46    2
    46    46    47    1
    47    47    48    2
    48    48    49    1
    49    49    50    2
    50    50     3    1
    51    51    12    1
    52    52    17    1
    53    53    22    1
    54    54    27    1
    55    55    28    1
    56    56    28    1
    57    57    29    1
    58    58    29    1
    59    59    29    1
    60    60    30    1
    61    61    30    1
    62    62    31    1
    63    63    31    1
    64    64    31    1
    65    65    32    1
    66    66    32    1
    67    67    33    1
    68    68    33    1
    69    69    33    1
    70    70    34    1
    71    71    34    1
    72    72    35    1
    73    73    35    1
    74    74    35    1
    75    75    36    1
    76    76    36    1
    77    77    37    1
    78    78    37    1
    79    79    37    1
    80    80    38    1
    81    81    38    1
    82    82    39    1
    83    83    39    1
    84    84    39    1
    85    85    40    1
    86    86    40    1
    87    87    41    1
    88    88    41    1
    89    89    41    1
    90    90    42    1
    91    91    42    1
    92    92    43    1
    93    93    43    1
    94    94    43    1
    95    95    45    1
    96    96    46    1
    97    97    47    1
    98    98    48    1
    99    99    49    1
   100    10    11    1
   101    12    13    1
   102    15    16    1
   103    17    18    1
   104    20    21    2
   105    22    23    2
   106    25    26    1
   107    26    27    1
   108    44    50    1
   109   100   101   ar
   110   101   102   ar
   111   102   103   ar
   112   103   104   ar
   113   104   105   ar
   114   105   100   ar
   115   106   100    1
   116   107   101    1
   117   108   102    1
   118   109   103    1
   119   110   104    1
   120   111   105    1
   121   112   106    1
   122   113   106    1
   123   114   106    1
@<TRIPOS>SUBSTRUCTURE
     1 RES1        1 GROUP             0 ****  ****    0  
     2 RES2      100 GROUP             0 ****  ****    0  
@<TRIPOS>CRYSIN
   10.4090   14.4730   14.8030   90.0000  109.1600   90.0000     4     1
