@<TRIPOS>MOLECULE
WOGLUA
    87    92     3     0     0
SMALL
USER_CHARGES
****
Generated from the CSD

@<TRIPOS>ATOM
     1 Fe1     18.5940   0.4362  12.4897   Fe        1 RES1   2.0000
     2 P1      20.5608  -0.3979  13.1074   P.3       1 RES1   0.0000
     3 P2      17.4252  -0.9997  13.7874   P.3       1 RES1   0.0000
     4 N1      18.1120  -0.8471  11.1070   N.2       1 RES1   0.0000
     5 N2      19.4119   1.4256  10.8874   N.3       1 RES1   0.0000
     6 H1      18.8466   2.0963  10.6090   H         1 RES1   0.0000
     7 H2      20.2164   1.8037  11.1275   H         1 RES1   0.0000
     8 N3      16.9369   1.6314  12.2369   N.3       1 RES1   0.0000
     9 H3      16.9804   2.0616  11.4257   H         1 RES1   0.0000
    10 H4      16.1753   1.1170  12.2502   H         1 RES1   0.0000
    11 N4      19.0528   1.7716  13.8192   N.2       1 RES1   0.0000
    12 C1      17.3587  -2.4784  12.6907   C.3       1 RES1   0.0000
    13 H5      18.0514  -3.1344  12.9558   H         1 RES1   0.0000
    14 H6      16.4728  -2.9140  12.7531   H         1 RES1   0.0000
    15 C2      17.6011  -2.0055  11.3049   C.2       1 RES1   0.0000
    16 H7      17.3783  -2.5599  10.5661   H         1 RES1   0.0000
    17 C3      18.3975  -0.4235   9.7144   C.3       1 RES1   0.0000
    18 H8      17.6356   0.0868   9.3441   H         1 RES1   0.0000
    19 H9      18.5590  -1.2132   9.1394   H         1 RES1   0.0000
    20 C4      19.6190   0.4342   9.7787   C.3       1 RES1   0.0000
    21 H10     19.7530   0.9059   8.9191   H         1 RES1   0.0000
    22 H11     20.4180  -0.1202   9.9600   H         1 RES1   0.0000
    23 C5      20.7449   0.3688  14.7704   C.3       1 RES1   0.0000
    24 H12     20.4000  -0.2378  15.4721   H         1 RES1   0.0000
    25 H13     21.6997   0.5612  14.9575   H         1 RES1   0.0000
    26 C6      19.9498   1.6420  14.7373   C.2       1 RES1   0.0000
    27 H14     20.1025   2.3315  15.3727   H         1 RES1   0.0000
    28 C7      16.8923   2.6281  13.3339   C.3       1 RES1   0.0000
    29 H15     16.4050   2.2486  14.1077   H         1 RES1   0.0000
    30 H16     16.4039   3.4351  13.0298   H         1 RES1   0.0000
    31 C8      18.2662   3.0048  13.7471   C.3       1 RES1   0.0000
    32 H17     18.6631   3.6275  13.0883   H         1 RES1   0.0000
    33 H18     18.2474   3.4511  14.6320   H         1 RES1   0.0000
    34 C9      20.8326  -2.1858  13.2598   C.ar      1 RES1   0.0000
    35 C10     21.1710  -2.8031  14.4605   C.ar      1 RES1   0.0000
    36 H19     21.3025  -2.2874  15.2479   H         1 RES1   0.0000
    37 C11     21.3139  -4.2020  14.4897   C.ar      1 RES1   0.0000
    38 H20     21.5216  -4.6429  15.3044   H         1 RES1   0.0000
    39 C12     21.1511  -4.9408  13.3241   C.ar      1 RES1   0.0000
    40 H21     21.2478  -5.8854  13.3514   H         1 RES1   0.0000
    41 C13     20.8437  -4.3222  12.1332   C.ar      1 RES1   0.0000
    42 H22     20.7440  -4.8353  11.3399   H         1 RES1   0.0000
    43 C14     20.6870  -2.9608  12.1021   C.ar      1 RES1   0.0000
    44 H23     20.4767  -2.5359  11.2795   H         1 RES1   0.0000
    45 C15     15.6367  -0.6173  13.9985   C.ar      1 RES1   0.0000
    46 C16     14.7635  -0.7776  12.9304   C.ar      1 RES1   0.0000
    47 H24     15.0990  -1.0942  12.1001   H         1 RES1   0.0000
    48 C17     13.4169  -0.4863  13.0552   C.ar      1 RES1   0.0000
    49 H25     12.8352  -0.6012  12.3126   H         1 RES1   0.0000
    50 C18     12.9230  -0.0334  14.2480   C.ar      1 RES1   0.0000
    51 H26     11.9977   0.1563  14.3338   H         1 RES1   0.0000
    52 C19     13.7677   0.1496  15.3278   C.ar      1 RES1   0.0000
    53 H27     13.4200   0.4690  16.1523   H         1 RES1   0.0000
    54 C20     15.1168  -0.1336  15.2109   C.ar      1 RES1   0.0000
    55 H28     15.6964   0.0013  15.9516   H         1 RES1   0.0000
    56 C21     22.1211   0.1964  12.3379   C.ar      1 RES1   0.0000
    57 C22     23.0584  -0.6667  11.7688   C.ar      1 RES1   0.0000
    58 H29     22.8660  -1.5966  11.7181   H         1 RES1   0.0000
    59 C23     24.2639  -0.1911  11.2756   C.ar      1 RES1   0.0000
    60 H30     24.9036  -0.7963  10.9189   H         1 RES1   0.0000
    61 C24     24.5307   1.1517  11.3029   C.ar      1 RES1   0.0000
    62 H31     25.3572   1.4764  10.9618   H         1 RES1   0.0000
    63 C25     23.6030   2.0348  11.8253   C.ar      1 RES1   0.0000
    64 H32     23.7886   2.9661  11.8370   H         1 RES1   0.0000
    65 C26     22.3937   1.5579  12.3340   C.ar      1 RES1   0.0000
    66 H33     21.7561   2.1698  12.6790   H         1 RES1   0.0000
    67 C27     17.8722  -1.6607  15.4350   C.ar      1 RES1   0.0000
    68 C28     17.9167  -3.0222  15.6904   C.ar      1 RES1   0.0000
    69 H34     17.7530  -3.6368  14.9848   H         1 RES1   0.0000
    70 C29     18.1948  -3.5005  16.9631   C.ar      1 RES1   0.0000
    71 H35     18.2289  -4.4358  17.1230   H         1 RES1   0.0000
    72 C30     18.4166  -2.6214  17.9845   C.ar      1 RES1   0.0000
    73 H36     18.6001  -2.9514  18.8557   H         1 RES1   0.0000
    74 C31     18.3791  -1.2559  17.7642   C.ar      1 RES1   0.0000
    75 H37     18.5453  -0.6493  18.4776   H         1 RES1   0.0000
    76 C32     18.0973  -0.7763  16.4739   C.ar      1 RES1   0.0000
    77 H38     18.0589   0.1590  16.3160   H         1 RES1   0.0000
    78 B1      17.4666   2.6788  17.9981   B         2 RES2  -1.0000
    79 F1      18.5488   3.2640  17.3958   F         2 RES2   0.0000
    80 F2      17.9709   1.7276  18.7899   F         2 RES2   0.0000
    81 F3      16.8221   2.2366  16.9436   F         2 RES2   0.0000
    82 F4      16.7852   3.6595  18.6435   F         2 RES2   0.0000
    83 B2      15.5017   1.7463   8.8568   B         3 RES3  -1.0000
    84 F5      15.0249   1.0315   9.9216   F         3 RES3   0.0000
    85 F6      15.7493   0.8978   7.8315   F         3 RES3   0.0000
    86 F7      14.5749   2.6855   8.4689   F         3 RES3   0.0000
    87 F8      16.6834   2.3862   9.2335   F         3 RES3   0.0000
@<TRIPOS>BOND
     1     1     2    1
     2     2    23    1
     3     3     1    1
     4     4     1    1
     5     5     1    1
     6     6     5    1
     7     7     5    1
     8     8     1    1
     9     9     8    1
    10    10     8    1
    11    11     1    1
    12    12     3    1
    13    13    12    1
    14    14    12    1
    15    15     4    2
    16    16    15    1
    17    17     4    1
    18    18    17    1
    19    19    17    1
    20    20     5    1
    21    21    20    1
    22    22    20    1
    23    23    24    1
    24    25    23    1
    25    26    11    2
    26    27    26    1
    27    28     8    1
    28    29    28    1
    29    30    28    1
    30    31    11    1
    31    32    31    1
    32    33    31    1
    33    34     2    1
    34    35    34   ar
    35    36    35    1
    36    37    35   ar
    37    38    37    1
    38    39    37   ar
    39    40    39    1
    40    41    39   ar
    41    42    41    1
    42    43    34   ar
    43    44    43    1
    44    45     3    1
    45    46    45   ar
    46    47    46    1
    47    48    46   ar
    48    49    48    1
    49    50    48   ar
    50    51    50    1
    51    52    50   ar
    52    53    52    1
    53    54    45   ar
    54    55    54    1
    55    56     2    1
    56    57    56   ar
    57    58    57    1
    58    59    57   ar
    59    60    59    1
    60    61    59   ar
    61    62    61    1
    62    63    61   ar
    63    64    63    1
    64    65    56   ar
    65    66    65    1
    66    67     3    1
    67    68    67   ar
    68    69    68    1
    69    70    68   ar
    70    71    70    1
    71    72    70   ar
    72    73    72    1
    73    74    72   ar
    74    75    74    1
    75    76    67   ar
    76    77    76    1
    77    12    15    1
    78    17    20    1
    79    23    26    1
    80    28    31    1
    81    41    43   ar
    82    52    54   ar
    83    63    65   ar
    84    74    76   ar
    85    78    79    1
    86    80    78    1
    87    81    78    1
    88    82    78    1
    89    83    84    1
    90    85    83    1
    91    86    83    1
    92    87    83    1
@<TRIPOS>SUBSTRUCTURE
     1 RES1        1 GROUP             0 ****  ****    0  
     2 RES2       78 GROUP             0 ****  ****    0  
     3 RES3       83 GROUP             0 ****  ****    0  
@<TRIPOS>CRYSIN
   29.3220   13.3608   21.2077   90.0000  113.2110   90.0000    15     1
