@<TRIPOS>MOLECULE
WOGMAH
   131   140     3     0     0
SMALL
USER_CHARGES
****
Generated from the CSD

@<TRIPOS>ATOM
     1 Fe1      8.2616   4.3781   3.7841   Fe        1 RES1   2.0000
     2 P1       7.4115   2.3053   3.5879   P.3       1 RES1   0.0000
     3 P2      10.3917   3.6649   3.8020   P.3       1 RES1   0.0000
     4 N1       8.8633   6.3197   3.4592   N.3       1 RES1   0.0000
     5 H1       8.1755   6.8972   3.6595   H         1 RES1   0.0000
     6 H2       9.5758   6.5208   4.0065   H         1 RES1   0.0000
     7 N2       7.9676   4.4281   1.8376   N.2       1 RES1   0.0000
     8 N3       6.4117   5.1513   4.3078   N.3       1 RES1   0.0000
     9 H3       6.4088   6.0661   4.2084   H         1 RES1   0.0000
    10 H4       5.7538   4.7965   3.7699   H         1 RES1   0.0000
    11 N4       8.5403   4.4146   5.7353   N.2       1 RES1   0.0000
    12 C1       9.2644   6.4870   2.0222   C.3       1 RES1   0.0000
    13 H5      10.1220   5.9919   1.8881   H         1 RES1   0.0000
    14 C2       8.1810   5.7720   1.1941   C.3       1 RES1   0.0000
    15 H6       7.3325   6.2955   1.2682   H         1 RES1   0.0000
    16 C3       7.6257   3.4162   1.1515   C.2       1 RES1   0.0000
    17 H7       7.4756   3.5147   0.2193   H         1 RES1   0.0000
    18 C4       7.4567   2.1075   1.7635   C.3       1 RES1   0.0000
    19 H8       8.2069   1.5165   1.5080   H         1 RES1   0.0000
    20 H9       6.6131   1.6946   1.4496   H         1 RES1   0.0000
    21 C5       7.4472   5.1405   6.5098   C.3       1 RES1   0.0000
    22 H10      7.6038   6.1268   6.4546   H         1 RES1   0.0000
    23 C6       6.1658   4.7843   5.7353   C.3       1 RES1   0.0000
    24 H11      6.0216   3.7967   5.7921   H         1 RES1   0.0000
    25 C7       9.5230   3.8965   6.3489   C.2       1 RES1   0.0000
    26 H12      9.5738   3.9546   7.2954   H         1 RES1   0.0000
    27 C8      10.6041   3.1936   5.5808   C.3       1 RES1   0.0000
    28 H13     10.5204   2.2127   5.6896   H         1 RES1   0.0000
    29 H14     11.4951   3.4715   5.9073   H         1 RES1   0.0000
    30 C9       9.4932   7.9213   1.5884   C.ar      1 RES1   0.0000
    31 C10     10.8040   8.3476   1.4985   C.ar      1 RES1   0.0000
    32 H15     11.5240   7.7607   1.6988   H         1 RES1   0.0000
    33 C11     11.0447   9.6753   1.0994   C.ar      1 RES1   0.0000
    34 H16     11.9381   9.9977   1.0789   H         1 RES1   0.0000
    35 C12     10.0375  10.5050   0.7429   C.ar      1 RES1   0.0000
    36 H17     10.2281  11.3699   0.4007   H         1 RES1   0.0000
    37 C13      8.7131  10.0733   0.8818   C.ar      1 RES1   0.0000
    38 H18      7.9842  10.6602   0.7177   H         1 RES1   0.0000
    39 C14      8.5068   8.7834   1.2619   C.ar      1 RES1   0.0000
    40 H19      7.6111   8.4677   1.2998   H         1 RES1   0.0000
    41 C15      8.5296   5.6222  -0.2918   C.ar      1 RES1   0.0000
    42 C16      9.8097   5.2066  -0.7146   C.ar      1 RES1   0.0000
    43 H20     10.5078   5.0852  -0.0836   H         1 RES1   0.0000
    44 C17     10.0303   4.9854  -2.0285   C.ar      1 RES1   0.0000
    45 H21     10.8974   4.7196  -2.3156   H         1 RES1   0.0000
    46 C18      9.0461   5.1311  -2.9434   C.ar      1 RES1   0.0000
    47 H22      9.2321   4.9786  -3.8630   H         1 RES1   0.0000
    48 C19      7.8106   5.4900  -2.5664   C.ar      1 RES1   0.0000
    49 H23      7.1186   5.5561  -3.2147   H         1 RES1   0.0000
    50 C20      7.5429   5.7612  -1.2477   C.ar      1 RES1   0.0000
    51 H24      6.6740   6.0459  -0.9906   H         1 RES1   0.0000
    52 C21      7.3977   4.7169   7.9768   C.ar      1 RES1   0.0000
    53 C22      8.1378   5.4549   8.8775   C.ar      1 RES1   0.0000
    54 H25      8.6086   6.2293   8.5888   H         1 RES1   0.0000
    55 C23      8.1903   5.0542  10.2198   C.ar      1 RES1   0.0000
    56 H26      8.7165   5.5466  10.8382   H         1 RES1   0.0000
    57 C24      7.4911   3.9586  10.6441   C.ar      1 RES1   0.0000
    58 H27      7.5133   3.7050  11.5606   H         1 RES1   0.0000
    59 C25      6.7832   3.2530   9.7829   C.ar      1 RES1   0.0000
    60 H28      6.2882   2.5001  10.0858   H         1 RES1   0.0000
    61 C26      6.7525   3.6092   8.3806   C.ar      1 RES1   0.0000
    62 H29      6.2845   3.0695   7.7544   H         1 RES1   0.0000
    63 C27      4.9141   5.5048   6.2985   C.ar      1 RES1   0.0000
    64 C28      4.9213   6.7650   6.7070   C.ar      1 RES1   0.0000
    65 H30      5.7250   7.2709   6.6707   H         1 RES1   0.0000
    66 C29      3.7062   7.3708   7.2070   C.ar      1 RES1   0.0000
    67 H31      3.7095   8.2761   7.4925   H         1 RES1   0.0000
    68 C30      2.5492   6.6368   7.2701   C.ar      1 RES1   0.0000
    69 H32      1.7450   7.0389   7.5777   H         1 RES1   0.0000
    70 C31      2.5578   5.3618   6.9010   C.ar      1 RES1   0.0000
    71 H33      1.7650   4.8464   6.9894   H         1 RES1   0.0000
    72 C32      3.7664   4.7358   6.3600   C.ar      1 RES1   0.0000
    73 H34      3.7621   3.8345   6.0603   H         1 RES1   0.0000
    74 C33      5.5976   2.0373   3.8788   C.ar      1 RES1   0.0000
    75 C34      4.6692   2.5919   3.0333   C.ar      1 RES1   0.0000
    76 H35      4.9987   3.0992   2.3014   H         1 RES1   0.0000
    77 C35      3.3425   2.4812   3.1484   C.ar      1 RES1   0.0000
    78 H36      2.7480   2.8941   2.5333   H         1 RES1   0.0000
    79 C36      2.8855   1.7310   4.2195   C.ar      1 RES1   0.0000
    80 H37      1.9507   1.6312   4.3520   H         1 RES1   0.0000
    81 C37      3.7354   1.1428   5.0681   C.ar      1 RES1   0.0000
    82 H38      3.3850   0.6071   5.7700   H         1 RES1   0.0000
    83 C38      5.1223   1.2872   4.9609   C.ar      1 RES1   0.0000
    84 H39      5.7136   0.8959   5.5918   H         1 RES1   0.0000
    85 C39      8.1574   0.8149   4.3141   C.ar      1 RES1   0.0000
    86 C40      8.3625   0.7596   5.7070   C.ar      1 RES1   0.0000
    87 H40      8.0970   1.4936   6.2496   H         1 RES1   0.0000
    88 C41      8.9424  -0.3387   6.2874   C.ar      1 RES1   0.0000
    89 H41      9.1069  -0.3441   7.2228   H         1 RES1   0.0000
    90 C42      9.2857  -1.4234   5.5382   C.ar      1 RES1   0.0000
    91 H42      9.6340  -2.2033   5.9546   H         1 RES1   0.0000
    92 C43      9.1243  -1.3803   4.1895   C.ar      1 RES1   0.0000
    93 H43      9.4319  -2.1102   3.6642   H         1 RES1   0.0000
    94 C44      8.5303  -0.3171   3.5680   C.ar      1 RES1   0.0000
    95 H44      8.3700  -0.3427   2.6311   H         1 RES1   0.0000
    96 C45     11.7596   4.8774   3.6311   C.ar      1 RES1   0.0000
    97 C46     12.7050   4.8208   2.5964   C.ar      1 RES1   0.0000
    98 H45     12.6493   4.1340   1.9418   H         1 RES1   0.0000
    99 C47     13.7274   5.7693   2.5238   C.ar      1 RES1   0.0000
   100 H46     14.3741   5.7005   1.8313   H         1 RES1   0.0000
   101 C48     13.8206   6.7974   3.4229   C.ar      1 RES1   0.0000
   102 H47     14.5190   7.4382   3.3535   H         1 RES1   0.0000
   103 C49     12.8004   6.8945   4.5208   C.ar      1 RES1   0.0000
   104 H48     12.8253   7.6029   5.1533   H         1 RES1   0.0000
   105 C50     11.8155   5.9082   4.5775   C.ar      1 RES1   0.0000
   106 H49     11.1696   5.9366   5.2716   H         1 RES1   0.0000
   107 C51     11.0492   2.2289   2.8204   C.ar      1 RES1   0.0000
   108 C52     11.8031   1.3141   3.3835   C.ar      1 RES1   0.0000
   109 H50     11.9514   1.3155   4.3220   H         1 RES1   0.0000
   110 C53     12.4093   0.2941   2.5301   C.ar      1 RES1   0.0000
   111 H51     12.9462  -0.3926   2.9087   H         1 RES1   0.0000
   112 C54     12.1981   0.3400   1.2051   C.ar      1 RES1   0.0000
   113 H52     12.6281  -0.2968   0.6467   H         1 RES1   0.0000
   114 C55     11.4076   1.2467   0.6546   C.ar      1 RES1   0.0000
   115 H53     11.2337   1.2278  -0.2792   H         1 RES1   0.0000
   116 C56     10.8255   2.2465   1.4670   C.ar      1 RES1   0.0000
   117 H54     10.2835   2.9238   1.0789   H         1 RES1   0.0000
   118 B1       9.9247   8.3733   6.6833   B         2 RES2  -1.0000
   119 F1      11.2640   8.7214   7.0761   F         2 RES2   0.0000
   120 F2       9.7743   8.7146   5.3773   F         2 RES2   0.0000
   121 F3       9.1217   9.0020   7.4941   F         2 RES2   0.0000
   122 F4       9.9013   7.0497   6.8222   F         2 RES2   0.0000
   123 O1       6.9222   8.2383   4.5618   O.3       3 RES3   0.0000
   124 H55      7.7192   8.3706   4.7921   H         3 RES3   0.0000
   125 C57      6.2165   9.3690   4.3693   C.3       3 RES3   0.0000
   126 H56      5.3423   9.1194   3.9781   H         3 RES3   0.0000
   127 H57      6.6943   9.9141   3.6942   H         3 RES3   0.0000
   128 C58      5.9644  10.2095   5.5177   C.3       3 RES3   0.0000
   129 H58      5.5347   9.6807   6.2212   H         3 RES3   0.0000
   130 H59      5.3751  10.9489   5.2590   H         3 RES3   0.0000
   131 H60      6.8125  10.5698   5.8521   H         3 RES3   0.0000
@<TRIPOS>BOND
     1     1     2    1
     2     2    18    1
     3     3     1    1
     4     4     1    1
     5     5     4    1
     6     6     4    1
     7     7     1    1
     8     8     1    1
     9     9     8    1
    10    10     8    1
    11    11     1    1
    12    12     4    1
    13    13    12    1
    14    14     7    1
    15    15    14    1
    16    16     7    2
    17    17    16    1
    18    18    16    1
    19    19    18    1
    20    20    18    1
    21    21    11    1
    22    22    21    1
    23    23     8    1
    24    24    23    1
    25    25    11    2
    26    26    25    1
    27    27     3    1
    28    28    27    1
    29    29    27    1
    30    30    12    1
    31    31    30   ar
    32    32    31    1
    33    33    31   ar
    34    34    33    1
    35    35    33   ar
    36    36    35    1
    37    37    35   ar
    38    38    37    1
    39    39    30   ar
    40    40    39    1
    41    41    14    1
    42    42    41   ar
    43    43    42    1
    44    44    42   ar
    45    45    44    1
    46    46    44   ar
    47    47    46    1
    48    48    46   ar
    49    49    48    1
    50    50    41   ar
    51    51    50    1
    52    52    21    1
    53    53    52   ar
    54    54    53    1
    55    55    53   ar
    56    56    55    1
    57    57    55   ar
    58    58    57    1
    59    59    57   ar
    60    60    59    1
    61    61    52   ar
    62    62    61    1
    63    63    23    1
    64    64    63   ar
    65    65    64    1
    66    66    64   ar
    67    67    66    1
    68    68    66   ar
    69    69    68    1
    70    70    68   ar
    71    71    70    1
    72    72    63   ar
    73    73    72    1
    74    74     2    1
    75    75    74   ar
    76    76    75    1
    77    77    75   ar
    78    78    77    1
    79    79    77   ar
    80    80    79    1
    81    81    79   ar
    82    82    81    1
    83    83    74   ar
    84    84    83    1
    85    85     2    1
    86    86    85   ar
    87    87    86    1
    88    88    86   ar
    89    89    88    1
    90    90    88   ar
    91    91    90    1
    92    92    90   ar
    93    93    92    1
    94    94    85   ar
    95    95    94    1
    96    96     3    1
    97    97    96   ar
    98    98    97    1
    99    99    97   ar
   100   100    99    1
   101   101    99   ar
   102   102   101    1
   103   103   101   ar
   104   104   103    1
   105   105    96   ar
   106   106   105    1
   107   107     3    1
   108   108   107   ar
   109   109   108    1
   110   110   108   ar
   111   111   110    1
   112   112   110   ar
   113   113   112    1
   114   114   112   ar
   115   115   114    1
   116   116   107   ar
   117   117   116    1
   118    12    14    1
   119    21    23    1
   120    25    27    1
   121    37    39   ar
   122    48    50   ar
   123    59    61   ar
   124    70    72   ar
   125    81    83   ar
   126    92    94   ar
   127   103   105   ar
   128   114   116   ar
   129   118   119    1
   130   120   118    1
   131   121   118    1
   132   122   118    1
   133   123   124    1
   134   125   123    1
   135   126   125    1
   136   127   125    1
   137   128   125    1
   138   129   128    1
   139   130   128    1
   140   131   128    1
@<TRIPOS>SUBSTRUCTURE
     1 RES1        1 GROUP             0 ****  ****    0  
     2 RES2      118 GROUP             0 ****  ****    0  
     3 RES3      123 GROUP             0 ****  ****    0  
@<TRIPOS>CRYSIN
   12.7178   13.4922   16.3730   90.0000  105.5490   90.0000     4     1
