@<TRIPOS>MOLECULE
WOGMEL
    87    91     3     0     0
SMALL
USER_CHARGES
****
Generated from the CSD

@<TRIPOS>ATOM
     1 Fe1      3.2715   3.1655  12.9991   Fe        1 RES1   2.0000
     2 P1       1.7100   4.7369  13.4265   P.3       1 RES1   0.0000
     3 P2       2.5447   1.6488  11.5152   P.3       1 RES1   0.0000
     4 N1       4.3498   4.2322  14.2460   N.2       1 RES1   0.0000
     5 N2       4.8513   2.0125  13.0192   N.2       1 RES1   0.0000
     6 N3       3.9845   4.1635  11.5292   N.1       1 RES1   0.0000
     7 N4       2.6154   2.1968  14.5141   N.1       1 RES1   0.0000
     8 C1       2.4930   5.5721  14.8886   C.3       1 RES1   0.0000
     9 H1       2.4391   6.5554  14.7824   H         1 RES1   0.0000
    10 H2       2.0103   5.3224  15.7172   H         1 RES1   0.0000
    11 C2       3.8953   5.1578  14.9859   C.2       1 RES1   0.0000
    12 H3       4.4718   5.5873  15.6084   H         1 RES1   0.0000
    13 C3       5.7652   3.8016  14.3401   C.3       1 RES1   0.0000
    14 H4       6.1410   4.0360  15.2257   H         1 RES1   0.0000
    15 H5       6.3098   4.2420  13.6386   H         1 RES1   0.0000
    16 C4       5.7672   2.3123  14.1471   C.3       1 RES1   0.0000
    17 H6       6.6814   1.9951  13.9397   H         1 RES1   0.0000
    18 H7       5.4570   1.8599  14.9706   H         1 RES1   0.0000
    19 C5       5.1267   1.1011  12.1739   C.2       1 RES1   0.0000
    20 H8       5.9464   0.6225  12.2291   H         1 RES1   0.0000
    21 C6       4.1427   0.7980  11.0942   C.3       1 RES1   0.0000
    22 H9       4.0004  -0.1799  11.0288   H         1 RES1   0.0000
    23 H10      4.4829   1.1229  10.2237   H         1 RES1   0.0000
    24 C7       4.3722   4.8046  10.6693   C.1       1 RES1   0.0000
    25 C8       4.8336   5.6702   9.5913   C.3       1 RES1   0.0000
    26 H11      4.0674   5.9580   9.0526   H         1 RES1   0.0000
    27 H12      5.4653   5.1796   9.0255   H         1 RES1   0.0000
    28 H13      5.2782   6.4573   9.9727   H         1 RES1   0.0000
    29 C9       2.3452   1.6070  15.4545   C.1       1 RES1   0.0000
    30 C10      2.0326   0.8253  16.6413   C.3       1 RES1   0.0000
    31 H14      2.6331   0.0512  16.6896   H         1 RES1   0.0000
    32 H15      1.1042   0.5157  16.5934   H         1 RES1   0.0000
    33 H16      2.1504   1.3813  17.4403   H         1 RES1   0.0000
    34 C11      1.4179   6.0801  12.2268   C.ar      1 RES1   0.0000
    35 C12      0.1968   6.1924  11.5587   C.ar      1 RES1   0.0000
    36 H17     -0.5231   5.6157  11.7837   H         1 RES1   0.0000
    37 C13      0.0379   7.1540  10.5625   C.ar      1 RES1   0.0000
    38 H18     -0.7956   7.2368  10.1149   H         1 RES1   0.0000
    39 C14      1.0814   7.9836  10.2222   C.ar      1 RES1   0.0000
    40 H19      0.9748   8.6290   9.5336   H         1 RES1   0.0000
    41 C15      2.2812   7.8724  10.8868   C.ar      1 RES1   0.0000
    42 H20      2.9980   8.4491  10.6503   H         1 RES1   0.0000
    43 C16      2.4638   6.9403  11.8920   C.ar      1 RES1   0.0000
    44 H21      3.2942   6.8869  12.3504   H         1 RES1   0.0000
    45 C17      0.0301   4.3478  14.0024   C.ar      1 RES1   0.0000
    46 C18     -0.5653   3.1344  13.6605   C.ar      1 RES1   0.0000
    47 H22     -0.0597   2.4780  13.1931   H         1 RES1   0.0000
    48 C19     -1.8827   2.8738  13.9943   C.ar      1 RES1   0.0000
    49 H23     -2.2819   2.0485  13.7452   H         1 RES1   0.0000
    50 C20     -2.6183   3.8146  14.6889   C.ar      1 RES1   0.0000
    51 H24     -3.5262   3.6413  14.9079   H         1 RES1   0.0000
    52 C21     -2.0278   5.0117  15.0662   C.ar      1 RES1   0.0000
    53 H25     -2.5248   5.6440  15.5729   H         1 RES1   0.0000
    54 C22     -0.7245   5.2897  14.7103   C.ar      1 RES1   0.0000
    55 H26     -0.3377   6.1237  14.9476   H         1 RES1   0.0000
    56 C23      1.8603   2.0801   9.8881   C.ar      1 RES1   0.0000
    57 C24      1.9159   1.1633   8.8425   C.ar      1 RES1   0.0000
    58 H27      2.3251   0.3162   8.9753   H         1 RES1   0.0000
    59 C25      1.3710   1.4881   7.6035   C.ar      1 RES1   0.0000
    60 H28      1.4085   0.8645   6.8883   H         1 RES1   0.0000
    61 C26      0.7759   2.7168   7.4157   C.ar      1 RES1   0.0000
    62 H29      0.4073   2.9370   6.5683   H         1 RES1   0.0000
    63 C27      0.7096   3.6315   8.4487   C.ar      1 RES1   0.0000
    64 H30      0.2928   4.4742   8.3145   H         1 RES1   0.0000
    65 C28      1.2552   3.3142   9.6829   C.ar      1 RES1   0.0000
    66 H31      1.2168   3.9444  10.3931   H         1 RES1   0.0000
    67 C29      1.4534   0.3282  12.1292   C.ar      1 RES1   0.0000
    68 C30      1.9050  -0.5462  13.1087   C.ar      1 RES1   0.0000
    69 H32      2.8172  -0.5222  13.3730   H         1 RES1   0.0000
    70 C31      1.0491  -1.4489  13.7034   C.ar      1 RES1   0.0000
    71 H33      1.3743  -2.0420  14.3705   H         1 RES1   0.0000
    72 C32     -0.2746  -1.4903  13.3341   C.ar      1 RES1   0.0000
    73 H34     -0.8615  -2.1117  13.7473   H         1 RES1   0.0000
    74 C33     -0.7516  -0.6247  12.3579   C.ar      1 RES1   0.0000
    75 H35     -1.6665  -0.6541  12.1015   H         1 RES1   0.0000
    76 C34      0.1046   0.2780  11.7605   C.ar      1 RES1   0.0000
    77 H36     -0.2252   0.8689  11.0936   H         1 RES1   0.0000
    78 B1       3.1404   8.3532   7.1852   B         2 RES2  -1.0000
    79 F1       2.1053   9.1959   6.8074   F         2 RES2   0.0000
    80 F2       3.9040   8.9811   8.1620   F         2 RES2   0.0000
    81 F3       2.6232   7.1670   7.6802   F         2 RES2   0.0000
    82 F4       3.9411   8.0763   6.0786   F         2 RES2   0.0000
    83 B2       6.1184  -2.5467  13.0530   B         3 RES3  -1.0000
    84 F5       5.9620  -2.5631  11.7266   F         3 RES3   0.0000
    85 F6       5.2419  -1.6746  13.5946   F         3 RES3   0.0000
    86 F7       7.3574  -2.0987  13.2914   F         3 RES3   0.0000
    87 F8       5.9715  -3.7808  13.5792   F         3 RES3   0.0000
@<TRIPOS>BOND
     1     1     2    1
     2     2     8    1
     3     3     1    1
     4     4     1    1
     5     5     1    1
     6     6     1    1
     7     7     1    1
     8     8     9    1
     9    10     8    1
    10    11     4    2
    11    12    11    1
    12    13     4    1
    13    14    13    1
    14    15    13    1
    15    16     5    1
    16    17    16    1
    17    18    16    1
    18    19     5    2
    19    20    19    1
    20    21     3    1
    21    22    21    1
    22    23    21    1
    23    24     6    3
    24    25    24    1
    25    26    25    1
    26    27    25    1
    27    28    25    1
    28    29     7    3
    29    30    29    1
    30    31    30    1
    31    32    30    1
    32    33    30    1
    33    34     2    1
    34    35    34   ar
    35    36    35    1
    36    37    35   ar
    37    38    37    1
    38    39    37   ar
    39    40    39    1
    40    41    39   ar
    41    42    41    1
    42    43    34   ar
    43    44    43    1
    44    45     2    1
    45    46    45   ar
    46    47    46    1
    47    48    46   ar
    48    49    48    1
    49    50    48   ar
    50    51    50    1
    51    52    50   ar
    52    53    52    1
    53    54    45   ar
    54    55    54    1
    55    56     3    1
    56    57    56   ar
    57    58    57    1
    58    59    57   ar
    59    60    59    1
    60    61    59   ar
    61    62    61    1
    62    63    61   ar
    63    64    63    1
    64    65    56   ar
    65    66    65    1
    66    67     3    1
    67    68    67   ar
    68    69    68    1
    69    70    68   ar
    70    71    70    1
    71    72    70   ar
    72    73    72    1
    73    74    72   ar
    74    75    74    1
    75    76    67   ar
    76    77    76    1
    77     8    11    1
    78    13    16    1
    79    19    21    1
    80    41    43   ar
    81    52    54   ar
    82    63    65   ar
    83    74    76   ar
    84    78    79    1
    85    80    78    1
    86    81    78    1
    87    82    78    1
    88    83    84    1
    89    85    83    1
    90    86    83    1
    91    87    83    1
@<TRIPOS>SUBSTRUCTURE
     1 RES1        1 GROUP             0 ****  ****    0  
     2 RES2       78 GROUP             0 ****  ****    0  
     3 RES3       83 GROUP             0 ****  ****    0  
@<TRIPOS>CRYSIN
   15.6111   10.9021   21.1149   90.0000   97.9570   90.0000    14     1
