@<TRIPOS>MOLECULE
WOHFUV
   242   263     3     0     0
SMALL
NO_CHARGES
****
Generated from the CSD

@<TRIPOS>ATOM
     1 Er1     15.9391   3.8238   4.7950   Er        1 RES1   0.0000
     2 Fe1     15.4436   6.3192   0.0000   Fe        1 RES1   0.0000
     3 N1      16.6915   5.7720   5.8517   N.2       1 RES1   0.0000
     4 N2      14.6985   3.8971   6.7816   N.2       1 RES1   0.0000
     5 N3      16.2366   1.7050   5.7712   N.2       1 RES1   0.0000
     6 N4      18.2700   3.5728   4.8259   N.2       1 RES1   0.0000
     7 N5      16.2733   5.1576   2.7469   N.1       1 RES1   0.0000
     8 N6      12.8312   4.7125   0.3168   N.1       1 RES1   0.0000
     9 N7      14.1795   8.6959   1.5242   N.1       1 RES1   0.0000
    10 N8      11.9529   5.5047   3.6820   N.am      1 RES1   0.0000
    11 N9      15.8195   1.1014   1.1183   N.am      1 RES1   0.0000
    12 O1      13.8227   4.4409   4.2026   O.2       1 RES1   0.0000
    13 O2      15.7167   2.2951   3.0466   O.2       1 RES1   0.0000
    14 C1      17.7578   6.5037   5.3928   C.2       1 RES1   0.0000
    15 C2      17.5850   7.8736   5.7130   C.2       1 RES1   0.0000
    16 H1      18.1491   8.5697   5.4664   H         1 RES1   0.0000
    17 C3      16.4476   7.9837   6.4460   C.2       1 RES1   0.0000
    18 H2      16.1015   8.7632   6.8176   H         1 RES1   0.0000
    19 C4      15.8874   6.6786   6.5350   C.2       1 RES1   0.0000
    20 C5      14.7431   6.3176   7.2731   C.2       1 RES1   0.0000
    21 C6      14.2453   5.0183   7.4324   C.2       1 RES1   0.0000
    22 C7      13.1609   4.6589   8.3126   C.2       1 RES1   0.0000
    23 H3      12.7035   5.2292   8.8863   H         1 RES1   0.0000
    24 C8      12.9385   3.3456   8.1465   C.2       1 RES1   0.0000
    25 H4      12.2834   2.8397   8.5712   H         1 RES1   0.0000
    26 C9      13.8862   2.8691   7.2029   C.2       1 RES1   0.0000
    27 C10     14.0023   1.5301   6.7851   C.2       1 RES1   0.0000
    28 C11     15.1340   0.9704   6.1686   C.2       1 RES1   0.0000
    29 C12     15.4100  -0.4322   5.9870   C.2       1 RES1   0.0000
    30 H5      14.8251  -1.1360   6.1514   H         1 RES1   0.0000
    31 C13     16.6566  -0.5316   5.5366   C.2       1 RES1   0.0000
    32 H6      17.1121  -1.3223   5.3585   H         1 RES1   0.0000
    33 C14     17.1791   0.8005   5.3756   C.2       1 RES1   0.0000
    34 C15     18.4578   1.1162   4.8841   C.2       1 RES1   0.0000
    35 C16     18.9586   2.3896   4.6307   C.2       1 RES1   0.0000
    36 C17     20.3010   2.7113   4.1597   C.2       1 RES1   0.0000
    37 H7      20.9696   2.1009   3.9457   H         1 RES1   0.0000
    38 C18     20.3995   4.0554   4.0930   C.2       1 RES1   0.0000
    39 H8      21.1406   4.5402   3.8121   H         1 RES1   0.0000
    40 C19     19.1433   4.5980   4.5331   C.2       1 RES1   0.0000
    41 C20     18.8891   5.9636   4.7352   C.2       1 RES1   0.0000
    42 C21     13.9582   7.4316   7.9325   C.ar      1 RES1   0.0000
    43 C22     14.5103   8.2141   8.9069   C.ar      1 RES1   0.0000
    44 H9      15.4030   8.0898   9.1398   H         1 RES1   0.0000
    45 C23     13.7740   9.1858   9.5508   C.ar      1 RES1   0.0000
    46 H10     14.1664   9.7231  10.2016   H         1 RES1   0.0000
    47 C24     12.4413   9.3493   9.2100   C.ar      1 RES1   0.0000
    48 H11     11.9236   9.9972   9.6313   H         1 RES1   0.0000
    49 C25     11.8986   8.5527   8.2578   C.ar      1 RES1   0.0000
    50 H12     11.0004   8.6511   8.0386   H         1 RES1   0.0000
    51 C26     12.6429   7.6115   7.6174   C.ar      1 RES1   0.0000
    52 H13     12.2517   7.0863   6.9563   H         1 RES1   0.0000
    53 C27     12.8037   0.6579   7.1070   C.ar      1 RES1   0.0000
    54 C28     11.5888   0.9838   6.5641   C.ar      1 RES1   0.0000
    55 H14     11.5133   1.7060   5.9819   H         1 RES1   0.0000
    56 C29     10.4579   0.2219   6.8912   C.ar      1 RES1   0.0000
    57 H15      9.6403   0.4258   6.4956   H         1 RES1   0.0000
    58 C30     10.5304  -0.7962   7.7663   C.ar      1 RES1   0.0000
    59 H16      9.7592  -1.2589   8.0044   H         1 RES1   0.0000
    60 C31     11.7271  -1.1514   8.3041   C.ar      1 RES1   0.0000
    61 H17     11.7789  -1.8761   8.8846   H         1 RES1   0.0000
    62 C32     12.8917  -0.4209   7.9804   C.ar      1 RES1   0.0000
    63 H18     13.7126  -0.6589   8.3486   H         1 RES1   0.0000
    64 C33     19.3795  -0.0566   4.6170   C.ar      1 RES1   0.0000
    65 C34     19.6752  -0.4535   3.3480   C.ar      1 RES1   0.0000
    66 H19     19.3215   0.0197   2.6305   H         1 RES1   0.0000
    67 C35     20.5149  -1.5813   3.0946   C.ar      1 RES1   0.0000
    68 H20     20.6984  -1.8497   2.2229   H         1 RES1   0.0000
    69 C36     21.0405  -2.2533   4.1546   C.ar      1 RES1   0.0000
    70 H21     21.6083  -2.9755   4.0073   H         1 RES1   0.0000
    71 C37     20.7453  -1.8847   5.4116   C.ar      1 RES1   0.0000
    72 H22     21.0914  -2.3668   6.1275   H         1 RES1   0.0000
    73 C38     19.9102  -0.7675   5.6548   C.ar      1 RES1   0.0000
    74 H23     19.7219  -0.5141   6.5299   H         1 RES1   0.0000
    75 C39     19.9360   6.9453   4.2985   C.ar      1 RES1   0.0000
    76 C40     20.9478   7.3270   5.1085   C.ar      1 RES1   0.0000
    77 H24     21.0446   6.9108   5.9339   H         1 RES1   0.0000
    78 C41     21.8588   8.3360   4.7403   C.ar      1 RES1   0.0000
    79 H25     22.5385   8.5957   5.3191   H         1 RES1   0.0000
    80 C42     21.7282   8.9013   3.5604   C.ar      1 RES1   0.0000
    81 H26     22.3394   9.5512   3.2983   H         1 RES1   0.0000
    82 C43     20.7304   8.5635   2.7178   C.ar      1 RES1   0.0000
    83 H27     20.6528   8.9991   1.9009   H         1 RES1   0.0000
    84 C44     19.8132   7.5685   3.0603   C.ar      1 RES1   0.0000
    85 H28     19.1335   7.3274   2.4729   H         1 RES1   0.0000
    86 C45     16.0205   5.6020   1.7125   C.1       1 RES1   0.0000
    87 C46     13.7916   5.2983   0.1678   C.1       1 RES1   0.0000
    88 C47     14.6422   7.8201   0.9333   C.1       1 RES1   0.0000
    89 C48     13.2172   5.3832   3.6511   C.2       1 RES1   0.0000
    90 H29     13.7131   6.0242   3.1973   H         1 RES1   0.0000
    91 C49     11.2560   6.5480   2.9130   C.3       1 RES1   0.0000
    92 H30     11.8940   7.0417   2.3924   H         1 RES1   0.0000
    93 H31     10.8054   7.1437   3.5158   H         1 RES1   0.0000
    94 H32     10.6136   6.1401   2.3273   H         1 RES1   0.0000
    95 C50     11.1501   4.6532   4.5519   C.3       1 RES1   0.0000
    96 H33     11.7223   4.0259   5.0006   H         1 RES1   0.0000
    97 H34     10.5032   4.1774   4.0262   H         1 RES1   0.0000
    98 H35     10.6994   5.1956   5.2027   H         1 RES1   0.0000
    99 C51     15.4685   2.2127   1.9352   C.2       1 RES1   0.0000
   100 H36     15.0089   2.9170   1.5379   H         1 RES1   0.0000
   101 C52     15.5436   1.0257  -0.2809   C.3       1 RES1   0.0000
   102 H37     15.3350   1.9011  -0.6131   H         1 RES1   0.0000
   103 H38     14.7970   0.4400  -0.4281   H         1 RES1   0.0000
   104 H39     16.3140   0.6844  -0.7398   H         1 RES1   0.0000
   105 C53     16.1366  -0.1557   1.8273   C.3       1 RES1   0.0000
   106 H40     16.4331   0.0452   2.7178   H         1 RES1   0.0000
   107 H41     16.8309  -0.6227   1.3563   H         1 RES1   0.0000
   108 H42     15.3520  -0.7075   1.8667   H         1 RES1   0.0000
   109 Er1A    14.9481   8.8146  -4.7950   Er        1 RES1   0.0000
   110 N1A     14.1958   6.8664  -5.8517   N.2       1 RES1   0.0000
   111 N2A     16.1888   8.7413  -6.7816   N.2       1 RES1   0.0000
   112 N3A     14.6507  10.9334  -5.7712   N.2       1 RES1   0.0000
   113 N4A     12.6172   9.0655  -4.8259   N.2       1 RES1   0.0000
   114 N5A     14.6140   7.4808  -2.7469   N.1       1 RES1   0.0000
   115 N6A     18.0560   7.9258  -0.3168   N.1       1 RES1   0.0000
   116 N7A     16.7078   3.9425  -1.5242   N.1       1 RES1   0.0000
   117 N8A     18.9344   7.1336  -3.6820   N.am      1 RES1   0.0000
   118 N9A     15.0678  11.5369  -1.1183   N.am      1 RES1   0.0000
   119 O1A     17.0646   8.1974  -4.2026   O.2       1 RES1   0.0000
   120 O2A     15.1706  10.3432  -3.0466   O.2       1 RES1   0.0000
   121 C1A     13.1294   6.1346  -5.3928   C.2       1 RES1   0.0000
   122 C2A     13.3022   4.7648  -5.7130   C.2       1 RES1   0.0000
   123 H1A     12.7381   4.0686  -5.4664   H         1 RES1   0.0000
   124 C3A     14.4397   4.6546  -6.4460   C.2       1 RES1   0.0000
   125 H2A     14.7858   3.8751  -6.8176   H         1 RES1   0.0000
   126 C4A     14.9999   5.9598  -6.5350   C.2       1 RES1   0.0000
   127 C5A     16.1442   6.3208  -7.2731   C.2       1 RES1   0.0000
   128 C6A     16.6419   7.6201  -7.4324   C.2       1 RES1   0.0000
   129 C7A     17.7263   7.9795  -8.3126   C.2       1 RES1   0.0000
   130 H3A     18.1838   7.4091  -8.8863   H         1 RES1   0.0000
   131 C8A     17.9487   9.2928  -8.1465   C.2       1 RES1   0.0000
   132 H4A     18.6039   9.7986  -8.5712   H         1 RES1   0.0000
   133 C9A     17.0010   9.7693  -7.2029   C.2       1 RES1   0.0000
   134 C10A    16.8849  11.1083  -6.7851   C.2       1 RES1   0.0000
   135 C11A    15.7532  11.6680  -6.1686   C.2       1 RES1   0.0000
   136 C12A    15.4773  13.0705  -5.9870   C.2       1 RES1   0.0000
   137 H5A     16.0622  13.7744  -6.1514   H         1 RES1   0.0000
   138 C13A    14.2307  13.1700  -5.5366   C.2       1 RES1   0.0000
   139 H6A     13.7751  13.9606  -5.3585   H         1 RES1   0.0000
   140 C14A    13.7081  11.8379  -5.3756   C.2       1 RES1   0.0000
   141 C15A    12.4295  11.5222  -4.8841   C.2       1 RES1   0.0000
   142 C16A    11.9287  10.2488  -4.6307   C.2       1 RES1   0.0000
   143 C17A    10.5862   9.9271  -4.1597   C.2       1 RES1   0.0000
   144 H7A      9.9176  10.5374  -3.9457   H         1 RES1   0.0000
   145 C18A    10.4878   8.5830  -4.0930   C.2       1 RES1   0.0000
   146 H8A      9.7466   8.0982  -3.8121   H         1 RES1   0.0000
   147 C19A    11.7440   8.0404  -4.5331   C.2       1 RES1   0.0000
   148 C20A    11.9982   6.6748  -4.7352   C.2       1 RES1   0.0000
   149 C21A    16.9290   5.2067  -7.9325   C.ar      1 RES1   0.0000
   150 C22A    16.3769   4.4243  -8.9069   C.ar      1 RES1   0.0000
   151 H9A     15.4843   4.5486  -9.1398   H         1 RES1   0.0000
   152 C23A    17.1133   3.4525  -9.5508   C.ar      1 RES1   0.0000
   153 H10A    16.7209   2.9152 -10.2016   H         1 RES1   0.0000
   154 C24A    18.4459   3.2890  -9.2100   C.ar      1 RES1   0.0000
   155 H11A    18.9637   2.6411  -9.6313   H         1 RES1   0.0000
   156 C25A    18.9886   4.0856  -8.2578   C.ar      1 RES1   0.0000
   157 H12A    19.8869   3.9872  -8.0386   H         1 RES1   0.0000
   158 C26A    18.2443   5.0269  -7.6174   C.ar      1 RES1   0.0000
   159 H13A    18.6355   5.5520  -6.9563   H         1 RES1   0.0000
   160 C27A    18.0835  11.9804  -7.1070   C.ar      1 RES1   0.0000
   161 C28A    19.2984  11.6545  -6.5641   C.ar      1 RES1   0.0000
   162 H14A    19.3739  10.9323  -5.9819   H         1 RES1   0.0000
   163 C29A    20.4294  12.4164  -6.8912   C.ar      1 RES1   0.0000
   164 H15A    21.2470  12.2125  -6.4956   H         1 RES1   0.0000
   165 C30A    20.3568  13.4345  -7.7663   C.ar      1 RES1   0.0000
   166 H16A    21.1280  13.8973  -8.0044   H         1 RES1   0.0000
   167 C31A    19.1602  13.7897  -8.3041   C.ar      1 RES1   0.0000
   168 H17A    19.1083  14.5145  -8.8846   H         1 RES1   0.0000
   169 C32A    17.9956  13.0592  -7.9804   C.ar      1 RES1   0.0000
   170 H18A    17.1746  13.2973  -8.3486   H         1 RES1   0.0000
   171 C33A    11.5077  12.6949  -4.6170   C.ar      1 RES1   0.0000
   172 C34A    11.2121  13.0918  -3.3480   C.ar      1 RES1   0.0000
   173 H19A    11.5657  12.6187  -2.6305   H         1 RES1   0.0000
   174 C35A    10.3723  14.2197  -3.0946   C.ar      1 RES1   0.0000
   175 H20A    10.1888  14.4880  -2.2229   H         1 RES1   0.0000
   176 C36A     9.8468  14.8917  -4.1546   C.ar      1 RES1   0.0000
   177 H21A     9.2790  15.6139  -4.0073   H         1 RES1   0.0000
   178 C37A    10.1419  14.5231  -5.4116   C.ar      1 RES1   0.0000
   179 H22A     9.7958  15.0052  -6.1275   H         1 RES1   0.0000
   180 C38A    10.9770  13.4058  -5.6548   C.ar      1 RES1   0.0000
   181 H23A    11.1654  13.1525  -6.5299   H         1 RES1   0.0000
   182 C39A    10.9513   5.6930  -4.2985   C.ar      1 RES1   0.0000
   183 C40A     9.9394   5.3113  -5.1085   C.ar      1 RES1   0.0000
   184 H24A     9.8426   5.7276  -5.9339   H         1 RES1   0.0000
   185 C41A     9.0285   4.3023  -4.7403   C.ar      1 RES1   0.0000
   186 H25A     8.3487   4.0427  -5.3191   H         1 RES1   0.0000
   187 C42A     9.1590   3.7371  -3.5604   C.ar      1 RES1   0.0000
   188 H26A     8.5479   3.0871  -3.2983   H         1 RES1   0.0000
   189 C43A    10.1568   4.0749  -2.7178   C.ar      1 RES1   0.0000
   190 H27A    10.2344   3.6392  -1.9009   H         1 RES1   0.0000
   191 C44A    11.0740   5.0699  -3.0603   C.ar      1 RES1   0.0000
   192 H28A    11.7538   5.3110  -2.4729   H         1 RES1   0.0000
   193 C45A    14.8667   7.0364  -1.7125   C.1       1 RES1   0.0000
   194 C46A    17.0957   7.3401  -0.1678   C.1       1 RES1   0.0000
   195 C47A    16.2450   4.8182  -0.9333   C.1       1 RES1   0.0000
   196 C48A    17.6701   7.2552  -3.6511   C.2       1 RES1   0.0000
   197 H29A    17.1741   6.6142  -3.1973   H         1 RES1   0.0000
   198 C49A    19.6313   6.0904  -2.9130   C.3       1 RES1   0.0000
   199 H30A    18.9932   5.5966  -2.3924   H         1 RES1   0.0000
   200 H31A    20.0818   5.4947  -3.5158   H         1 RES1   0.0000
   201 H32A    20.2736   6.4982  -2.3273   H         1 RES1   0.0000
   202 C50A    19.7371   7.9851  -4.5519   C.3       1 RES1   0.0000
   203 H33A    19.1649   8.6124  -5.0006   H         1 RES1   0.0000
   204 H34A    20.3841   8.4610  -4.0262   H         1 RES1   0.0000
   205 H35A    20.1878   7.4428  -5.2027   H         1 RES1   0.0000
   206 C51A    15.4188  10.4257  -1.9352   C.2       1 RES1   0.0000
   207 H36A    15.8783   9.7214  -1.5379   H         1 RES1   0.0000
   208 C52A    15.3436  11.6126   0.2809   C.3       1 RES1   0.0000
   209 H37A    15.5523  10.7372   0.6131   H         1 RES1   0.0000
   210 H38A    16.0902  12.1984   0.4281   H         1 RES1   0.0000
   211 H39A    14.5733  11.9539   0.7398   H         1 RES1   0.0000
   212 C53A    14.7507  12.7941  -1.8273   C.3       1 RES1   0.0000
   213 H40A    14.4542  12.5931  -2.7178   H         1 RES1   0.0000
   214 H41A    14.0563  13.2610  -1.3563   H         1 RES1   0.0000
   215 H42A    15.5352  13.3458  -1.8667   H         1 RES1   0.0000
   216 N10     12.7733  -1.2474   3.0192   N.am      2 RES2   0.0000
   217 O3      13.8548  -2.0342   1.2519   O.2       2 RES2   0.0000
   218 C54     13.0701  -2.3172   2.2520   C.2       2 RES2   0.0000
   219 H43     12.7464  -3.1725   2.4198   H         2 RES2   0.0000
   220 C55     12.2976   0.3565   3.0483   C.3       2 RES2   0.0000
   221 H44     12.9132   0.8822   2.5346   H         2 RES2   0.0000
   222 H45     12.2886   0.6707   3.9560   H         2 RES2   0.0000
   223 H46     11.4171   0.4362   2.6733   H         2 RES2   0.0000
   224 C56     11.6775  -1.7447   3.8429   C.3       2 RES2   0.0000
   225 H47     11.7619  -2.6953   3.9457   H         2 RES2   0.0000
   226 H48     10.8408  -1.5422   3.4182   H         2 RES2   0.0000
   227 H49     11.7078  -1.3252   4.7043   H         2 RES2   0.0000
   228 O4       8.5411   2.5739   0.6079   O.3       3 RES3   0.0000
   229 C57      6.2972   3.0126   0.6919   C.3       3 RES3   0.0000
   230 H50      5.5942   3.6654   0.6525   H         3 RES3   0.0000
   231 H51      6.2671   2.5592   1.5361   H         3 RES3   0.0000
   232 H52      6.1826   2.3764  -0.0188   H         3 RES3   0.0000
   233 C58      7.4409   3.6041   0.5583   C.3       3 RES3   0.0000
   234 H53      7.5637   4.2493   1.2741   H         3 RES3   0.0000
   235 H54      7.4715   4.0775  -0.2877   H         3 RES3   0.0000
   236 C59      9.7290   3.4282   0.9316   C.3       3 RES3   0.0000
   237 H55      9.5955   3.8095   1.8136   H         3 RES3   0.0000
   238 H56      9.7544   4.1645   0.2997   H         3 RES3   0.0000
   239 C60     11.1997   2.6778   0.9111   C.3       3 RES3   0.0000
   240 H57     11.8925   3.3268   1.0601   H         3 RES3   0.0000
   241 H58     11.3340   2.2599   0.0565   H         3 RES3   0.0000
   242 H59     11.2296   2.0125   1.6012   H         3 RES3   0.0000
@<TRIPOS>BOND
     1     1     3    1
     2     2    86    1
     3     3    14    1
     4     4     1    1
     5     5     1    1
     6     6     1    1
     7     7     1    1
     8     8    87    3
     9     9    88    3
    10    10    89   am
    11    11    99   am
    12    12     1    1
    13    13     1    1
    14    14    15    1
    15    15    16    1
    16    17    15    2
    17    18    17    1
    18    19     3    1
    19    20    19    2
    20    21     4    2
    21    22    21    1
    22    23    22    1
    23    24    22    2
    24    25    24    1
    25    26     4    1
    26    27    26    2
    27    28     5    1
    28    29    28    2
    29    30    29    1
    30    31    29    1
    31    32    31    1
    32    33     5    1
    33    34    33    1
    34    35     6    1
    35    36    35    1
    36    37    36    1
    37    38    36    2
    38    39    38    1
    39    40     6    2
    40    41    14    2
    41    42    20    1
    42    43    42   ar
    43    44    43    1
    44    45    43   ar
    45    46    45    1
    46    47    45   ar
    47    48    47    1
    48    49    47   ar
    49    50    49    1
    50    51    42   ar
    51    52    51    1
    52    53    27    1
    53    54    53   ar
    54    55    54    1
    55    56    54   ar
    56    57    56    1
    57    58    56   ar
    58    59    58    1
    59    60    58   ar
    60    61    60    1
    61    62    53   ar
    62    63    62    1
    63    64    34    1
    64    65    64   ar
    65    66    65    1
    66    67    65   ar
    67    68    67    1
    68    69    67   ar
    69    70    69    1
    70    71    69   ar
    71    72    71    1
    72    73    64   ar
    73    74    73    1
    74    75    41    1
    75    76    75   ar
    76    77    76    1
    77    78    76   ar
    78    79    78    1
    79    80    78   ar
    80    81    80    1
    81    82    80   ar
    82    83    82    1
    83    84    75   ar
    84    85    84    1
    85    86     7    3
    86    87     2    1
    87    88     2    1
    88    89    12    2
    89    90    89    1
    90    91    10    1
    91    92    91    1
    92    93    91    1
    93    94    91    1
    94    95    10    1
    95    96    95    1
    96    97    95    1
    97    98    95    1
    98    99    13    2
    99   100    99    1
   100   101    11    1
   101   102   101    1
   102   103   101    1
   103   104   101    1
   104   105    11    1
   105   106   105    1
   106   107   105    1
   107   108   105    1
   108   109   110    1
   109   110   121    1
   110   111   109    1
   111   112   109    1
   112   113   109    1
   113   114   109    1
   114   115   194    3
   115   116   195    3
   116   117   196   am
   117   118   206   am
   118   119   109    1
   119   120   109    1
   120   121   122    1
   121   122   123    1
   122   124   122    2
   123   125   124    1
   124   126   110    2
   125   127   126    1
   126   128   111    1
   127   129   128    1
   128   130   129    1
   129   131   129    2
   130   132   131    1
   131   133   111    1
   132   134   133    2
   133   135   112    2
   134   136   135    1
   135   137   136    1
   136   138   136    2
   137   139   138    1
   138   140   112    1
   139   141   140    2
   140   142   113    1
   141   143   142    2
   142   144   143    1
   143   145   143    1
   144   146   145    1
   145   147   113    1
   146   148   121    2
   147   149   127    1
   148   150   149   ar
   149   151   150    1
   150   152   150   ar
   151   153   152    1
   152   154   152   ar
   153   155   154    1
   154   156   154   ar
   155   157   156    1
   156   158   149   ar
   157   159   158    1
   158   160   134    1
   159   161   160   ar
   160   162   161    1
   161   163   161   ar
   162   164   163    1
   163   165   163   ar
   164   166   165    1
   165   167   165   ar
   166   168   167    1
   167   169   160   ar
   168   170   169    1
   169   171   141    1
   170   172   171   ar
   171   173   172    1
   172   174   172   ar
   173   175   174    1
   174   176   174   ar
   175   177   176    1
   176   178   176   ar
   177   179   178    1
   178   180   171   ar
   179   181   180    1
   180   182   148    1
   181   183   182   ar
   182   184   183    1
   183   185   183   ar
   184   186   185    1
   185   187   185   ar
   186   188   187    1
   187   189   187   ar
   188   190   189    1
   189   191   182   ar
   190   192   191    1
   191   193     2    1
   192   194     2    1
   193   195     2    1
   194   196   119    2
   195   197   196    1
   196   198   117    1
   197   199   198    1
   198   200   198    1
   199   201   198    1
   200   202   117    1
   201   203   202    1
   202   204   202    1
   203   205   202    1
   204   206   120    2
   205   207   206    1
   206   208   118    1
   207   209   208    1
   208   210   208    1
   209   211   208    1
   210   212   118    1
   211   213   212    1
   212   214   212    1
   213   215   212    1
   214    17    19    1
   215    20    21    1
   216    24    26    1
   217    27    28    1
   218    31    33    2
   219    34    35    2
   220    38    40    1
   221    40    41    1
   222    49    51   ar
   223    60    62   ar
   224    71    73   ar
   225    82    84   ar
   226   114   193    3
   227   124   126    1
   228   127   128    2
   229   131   133    1
   230   134   135    1
   231   138   140    1
   232   141   142    1
   233   145   147    2
   234   147   148    1
   235   156   158   ar
   236   167   169   ar
   237   178   180   ar
   238   189   191   ar
   239   216   218   am
   240   217   218    2
   241   218   219    1
   242   220   216    1
   243   221   220    1
   244   222   220    1
   245   223   220    1
   246   224   216    1
   247   225   224    1
   248   226   224    1
   249   227   224    1
   250   228   233    1
   251   229   230    1
   252   231   229    1
   253   232   229    1
   254   233   229    1
   255   234   233    1
   256   235   233    1
   257   236   228    1
   258   237   236    1
   259   238   236    1
   260   239   236    1
   261   240   239    1
   262   241   239    1
   263   242   239    1
@<TRIPOS>SUBSTRUCTURE
     1 RES1        1 GROUP             0 ****  ****    0  
     2 RES2      216 GROUP             0 ****  ****    0  
     3 RES3      228 GROUP             0 ****  ****    0  
@<TRIPOS>CRYSIN
   13.1210   13.4650   17.4960   83.5750   78.4900   69.8190     2     1
