@<TRIPOS>MOLECULE
WOJVEX
    93   100     1     0     0
SMALL
NO_CHARGES
****
Generated from the CSD

@<TRIPOS>ATOM
     1 Fe1      0.1922   1.0862   5.4780   Fe        1 RES1   0.0000
     2 O1       1.3407  -0.4497   6.0756   O.3       1 RES1   0.0000
     3 O2      -1.2501   0.3312   4.3166   O.3       1 RES1   0.0000
     4 O3       4.7930  -0.5580   8.4867   O.2       1 RES1   0.0000
     5 O4       4.2095   1.4551   9.2406   O.3       1 RES1   0.0000
     6 O5      -4.7217   1.9535   2.7330   O.2       1 RES1   0.0000
     7 O6      -3.9643   3.9945   3.1613   O.3       1 RES1   0.0000
     8 N1       1.4626   2.2982   6.5878   N.2       1 RES1   0.0000
     9 N2      -0.7231   2.9317   5.1762   N.2       1 RES1   0.0000
    10 N3       1.4677   1.3690   3.6727   N.ar      1 RES1   0.0000
    11 N4      -1.1045   0.5761   7.2947   N.ar      1 RES1   0.0000
    12 C1       2.6158  -1.9843   7.3019   C.3       1 RES1   0.0000
    13 H1       1.8135  -2.5114   7.3189   H         1 RES1   0.0000
    14 H2       3.0286  -2.0038   8.1689   H         1 RES1   0.0000
    15 H3       3.2213  -2.3447   6.6503   H         1 RES1   0.0000
    16 C2       2.2766  -0.5691   6.9415   C.2       1 RES1   0.0000
    17 C3       2.8897   0.5625   7.5330   C.2       1 RES1   0.0000
    18 C4       2.4514   1.8882   7.3293   C.2       1 RES1   0.0000
    19 H4       2.9271   2.5486   7.7785   H         1 RES1   0.0000
    20 C5       1.1453   3.6839   6.4936   C.ar      1 RES1   0.0000
    21 C6       1.9015   4.7125   7.0642   C.ar      1 RES1   0.0000
    22 H5       2.6786   4.5019   7.5304   H         1 RES1   0.0000
    23 C7       1.5243   6.0170   6.9506   C.ar      1 RES1   0.0000
    24 H6       2.0398   6.6846   7.3437   H         1 RES1   0.0000
    25 C8       0.3801   6.3512   6.2560   C.ar      1 RES1   0.0000
    26 H7       0.1201   7.2413   6.1802   H         1 RES1   0.0000
    27 C9      -0.3679   5.3618   5.6775   C.ar      1 RES1   0.0000
    28 H8      -1.1371   5.5917   5.2087   H         1 RES1   0.0000
    29 C10     -0.0091   4.0224   5.7728   C.ar      1 RES1   0.0000
    30 C11     -1.8289   3.1415   4.5232   C.2       1 RES1   0.0000
    31 H9      -2.1337   4.0198   4.5023   H         1 RES1   0.0000
    32 C12     -2.6215   2.1880   3.8390   C.2       1 RES1   0.0000
    33 C13     -2.2835   0.8241   3.7685   C.2       1 RES1   0.0000
    34 C14     -3.0857  -0.2088   2.9981   C.3       1 RES1   0.0000
    35 H10     -2.5780  -1.0220   2.9302   H         1 RES1   0.0000
    36 H11     -3.2757   0.1237   2.1193   H         1 RES1   0.0000
    37 H12     -3.9092  -0.3839   3.4603   H         1 RES1   0.0000
    38 C15      4.0452   0.3849   8.4314   C.2       1 RES1   0.0000
    39 C16      5.3687   1.4337  10.0975   C.3       1 RES1   0.0000
    40 H13      6.1673   1.2526   9.5791   H         1 RES1   0.0000
    41 H14      5.2762   0.7432  10.7726   H         1 RES1   0.0000
    42 C17      5.4612   2.7499  10.7282   C.3       1 RES1   0.0000
    43 H15      5.5377   3.4245  10.0492   H         1 RES1   0.0000
    44 H16      6.2339   2.7784  11.2962   H         1 RES1   0.0000
    45 H17      4.6722   2.9102  11.2505   H         1 RES1   0.0000
    46 C18     -3.8571   2.6349   3.2018   C.2       1 RES1   0.0000
    47 C19     -5.2247   4.5391   2.5946   C.3       1 RES1   0.0000
    48 H18     -5.9217   3.8647   2.6194   H         1 RES1   0.0000
    49 H19     -5.5197   5.3056   3.1103   H         1 RES1   0.0000
    50 C20     -4.9641   4.9275   1.2418   C.3       1 RES1   0.0000
    51 H20     -4.2087   5.5192   1.2183   H         1 RES1   0.0000
    52 H21     -5.7331   5.3766   0.8840   H         1 RES1   0.0000
    53 H22     -4.7766   4.1469   0.7156   H         1 RES1   0.0000
    54 C21      0.9717   1.7692   2.4953   C.ar      1 RES1   0.0000
    55 H23      0.0493   1.8553   2.4183   H         1 RES1   0.0000
    56 C22      1.7357   2.0592   1.3972   C.ar      1 RES1   0.0000
    57 H24      1.3226   2.3320   0.6098   H         1 RES1   0.0000
    58 C23      3.1095   1.9528   1.4442   C.ar      1 RES1   0.0000
    59 C24      3.6326   1.5301   2.6716   C.ar      1 RES1   0.0000
    60 H25      4.5519   1.4393   2.7761   H         1 RES1   0.0000
    61 C25      2.7929   1.2453   3.7241   C.ar      1 RES1   0.0000
    62 H26      3.1736   0.9493   4.5193   H         1 RES1   0.0000
    63 C26      3.9776   2.2453   0.2977   C.ar      1 RES1   0.0000
    64 C27      3.6046   3.1324  -0.6842   C.ar      1 RES1   0.0000
    65 H27      2.7793   3.5584  -0.6150   H         1 RES1   0.0000
    66 C28      4.4050   3.4091  -1.7589   C.ar      1 RES1   0.0000
    67 H28      4.1263   4.0144  -2.4078   H         1 RES1   0.0000
    68 C29      5.6242   2.7867  -1.8725   C.ar      1 RES1   0.0000
    69 H29      6.1724   2.9712  -2.5998   H         1 RES1   0.0000
    70 C30      6.0341   1.8997  -0.9193   C.ar      1 RES1   0.0000
    71 H30      6.8542   1.4666  -1.0015   H         1 RES1   0.0000
    72 C31      5.2175   1.6493   0.1698   C.ar      1 RES1   0.0000
    73 H31      5.5118   1.0662   0.8305   H         1 RES1   0.0000
    74 C32     -0.9577   1.1867   8.4601   C.ar      1 RES1   0.0000
    75 H32     -0.3619   1.9006   8.5032   H         1 RES1   0.0000
    76 C33     -1.6246   0.8385   9.6079   C.ar      1 RES1   0.0000
    77 H33     -1.4781   1.3173  10.3913   H         1 RES1   0.0000
    78 C34     -2.5163  -0.2230   9.6053   C.ar      1 RES1   0.0000
    79 C35     -2.6768  -0.8633   8.3883   C.ar      1 RES1   0.0000
    80 H34     -3.2666  -1.5787   8.3139   H         1 RES1   0.0000
    81 C36     -1.9689  -0.4447   7.2914   C.ar      1 RES1   0.0000
    82 H35     -2.0996  -0.9015   6.4923   H         1 RES1   0.0000
    83 C37     -3.2621  -0.6279  10.8144   C.ar      1 RES1   0.0000
    84 C38     -3.5021   0.2454  11.8512   C.ar      1 RES1   0.0000
    85 H36     -3.1599   1.1092  11.8055   H         1 RES1   0.0000
    86 C39     -4.2375  -0.1309  12.9585   C.ar      1 RES1   0.0000
    87 H37     -4.3899   0.4779  13.6453   H         1 RES1   0.0000
    88 C40     -4.7352  -1.3824  13.0434   C.ar      1 RES1   0.0000
    89 H38     -5.2400  -1.6356  13.7824   H         1 RES1   0.0000
    90 C41     -4.4957  -2.2688  12.0497   C.ar      1 RES1   0.0000
    91 H39     -4.8275  -3.1349  12.1110   H         1 RES1   0.0000
    92 C42     -3.7604  -1.8900  10.9463   C.ar      1 RES1   0.0000
    93 H40     -3.6007  -2.5130  10.2738   H         1 RES1   0.0000
@<TRIPOS>BOND
     1     1     2    1
     2     2    16    1
     3     3     1    1
     4     4    38    2
     5     5    38    1
     6     6    46    2
     7     7    46    1
     8     8     1    1
     9     9     1    1
    10    10     1    1
    11    11     1    1
    12    12    13    1
    13    14    12    1
    14    15    12    1
    15    16    12    1
    16    17    16    2
    17    18     8    2
    18    19    18    1
    19    20     8    1
    20    21    20   ar
    21    22    21    1
    22    23    21   ar
    23    24    23    1
    24    25    23   ar
    25    26    25    1
    26    27    25   ar
    27    28    27    1
    28    29     9    1
    29    30     9    2
    30    31    30    1
    31    32    30    1
    32    33     3    1
    33    34    33    1
    34    35    34    1
    35    36    34    1
    36    37    34    1
    37    38    17    1
    38    39     5    1
    39    40    39    1
    40    41    39    1
    41    42    39    1
    42    43    42    1
    43    44    42    1
    44    45    42    1
    45    46    32    1
    46    47     7    1
    47    48    47    1
    48    49    47    1
    49    50    47    1
    50    51    50    1
    51    52    50    1
    52    53    50    1
    53    54    10   ar
    54    55    54    1
    55    56    54   ar
    56    57    56    1
    57    58    56   ar
    58    59    58   ar
    59    60    59    1
    60    61    10   ar
    61    62    61    1
    62    63    58    1
    63    64    63   ar
    64    65    64    1
    65    66    64   ar
    66    67    66    1
    67    68    66   ar
    68    69    68    1
    69    70    68   ar
    70    71    70    1
    71    72    63   ar
    72    73    72    1
    73    74    11   ar
    74    75    74    1
    75    76    74   ar
    76    77    76    1
    77    78    76   ar
    78    79    78   ar
    79    80    79    1
    80    81    11   ar
    81    82    81    1
    82    83    78    1
    83    84    83   ar
    84    85    84    1
    85    86    84   ar
    86    87    86    1
    87    88    86   ar
    88    89    88    1
    89    90    88   ar
    90    91    90    1
    91    92    83   ar
    92    93    92    1
    93    17    18    1
    94    20    29   ar
    95    27    29   ar
    96    32    33    2
    97    59    61   ar
    98    70    72   ar
    99    79    81   ar
   100    90    92   ar
@<TRIPOS>SUBSTRUCTURE
     1 RES1        1 GROUP             0 ****  ****    0  
@<TRIPOS>CRYSIN
   11.7640   12.3600   13.9680  104.9970  102.2650   96.4750     2     1
