@<TRIPOS>MOLECULE
WOJVEX01
    93   100     1     0     0
SMALL
NO_CHARGES
****
Generated from the CSD

@<TRIPOS>ATOM
     1 Fe1      1.9797   0.9654   7.3684   Fe        1 RES1   0.0000
     2 O1       0.9808   2.6145   6.9892   O.3       1 RES1   0.0000
     3 O2       3.2226   1.9932   8.4661   O.3       1 RES1   0.0000
     4 O3      -2.5473   2.9197   4.6291   O.2       1 RES1   0.0000
     5 O4      -2.0470   0.8851   3.7832   O.3       1 RES1   0.0000
     6 O5       6.8435   0.6535  10.1772   O.2       1 RES1   0.0000
     7 O6       6.2714  -1.4631   9.7139   O.3       1 RES1   0.0000
     8 N1       0.7747  -0.0972   6.3134   N.2       1 RES1   0.0000
     9 N2       2.9443  -0.6653   7.6854   N.2       1 RES1   0.0000
    10 N3       3.0664   1.4472   5.7477   N.ar      1 RES1   0.0000
    11 N4       0.8684   0.6685   8.9921   N.ar      1 RES1   0.0000
    12 C1       0.0092   2.7799   6.1752   C.2       1 RES1   0.0000
    13 C2      -0.6439   1.7011   5.4841   C.2       1 RES1   0.0000
    14 C3      -0.2265   0.3594   5.5916   C.2       1 RES1   0.0000
    15 H1      -0.7183  -0.2815   5.0924   H         1 RES1   0.0000
    16 C4       1.1148  -1.5058   6.3633   C.ar      1 RES1   0.0000
    17 C5       0.3775  -2.5469   5.7592   C.ar      1 RES1   0.0000
    18 H2      -0.4296  -2.3592   5.2934   H         1 RES1   0.0000
    19 C6       0.8497  -3.8464   5.8565   C.ar      1 RES1   0.0000
    20 H3       0.3722  -4.5458   5.4252   H         1 RES1   0.0000
    21 C7       2.0016  -4.1550   6.5707   C.ar      1 RES1   0.0000
    22 H4       2.2937  -5.0569   6.6398   H         1 RES1   0.0000
    23 C8       2.7226  -3.1390   7.1811   C.ar      1 RES1   0.0000
    24 H5       3.5155  -3.3461   7.6636   H         1 RES1   0.0000
    25 C9       2.2873  -1.8110   7.0915   C.ar      1 RES1   0.0000
    26 C10      4.0478  -0.8021   8.3471   C.2       1 RES1   0.0000
    27 H6       4.4183  -1.6766   8.3931   H         1 RES1   0.0000
    28 C11      4.7668   0.2526   9.0241   C.2       1 RES1   0.0000
    29 C12      4.2928   1.6099   9.0382   C.2       1 RES1   0.0000
    30 C13     -0.4073   4.2310   5.9589   C.3       1 RES1   0.0000
    31 H7      -1.1782   4.4372   6.5259   H         1 RES1   0.0000
    32 H8      -0.6481   4.3639   5.0182   H         1 RES1   0.0000
    33 H9       0.3382   4.8227   6.1918   H         1 RES1   0.0000
    34 C14     -1.8277   1.9514   4.6432   C.2       1 RES1   0.0000
    35 C15     -3.2240   0.9921   2.9334   C.3       1 RES1   0.0000
    36 H10     -3.0915   1.6861   2.2384   H         1 RES1   0.0000
    37 H11     -4.0213   1.2279   3.4696   H         1 RES1   0.0000
    38 C16     -3.3915  -0.3669   2.3011   C.3       1 RES1   0.0000
    39 H12     -2.5662  -0.6142   1.8353   H         1 RES1   0.0000
    40 H13     -4.1324  -0.3400   1.6599   H         1 RES1   0.0000
    41 H14     -3.5843  -1.0294   2.9974   H         1 RES1   0.0000
    42 C17      5.0511   2.7046   9.7638   C.3       1 RES1   0.0000
    43 H15      4.5313   3.5341   9.7382   H         1 RES1   0.0000
    44 H16      5.9165   2.8468   9.3287   H         1 RES1   0.0000
    45 H17      5.1947   2.4391  10.6968   H         1 RES1   0.0000
    46 C18      6.0446  -0.1118   9.6973   C.2       1 RES1   0.0000
    47 C19      7.5062  -1.9276  10.3730   C.3       1 RES1   0.0000
    48 H18      8.1775  -1.1993  10.3628   H         1 RES1   0.0000
    49 H19      7.8801  -2.6932   9.8688   H         1 RES1   0.0000
    50 C20      7.2432  -2.3439  11.7885   C.3       1 RES1   0.0000
    51 H20      6.9919  -1.5598  12.3184   H         1 RES1   0.0000
    52 H21      8.0527  -2.7466  12.1661   H         1 RES1   0.0000
    53 H22      6.5146  -2.9984  11.8064   H         1 RES1   0.0000
    54 C21      3.7005   2.6545   5.7119   C.ar      1 RES1   0.0000
    55 H23      3.6596   3.2036   6.4862   H         1 RES1   0.0000
    56 C22      4.4020   3.1310   4.6100   C.ar      1 RES1   0.0000
    57 H24      4.8313   3.9774   4.6496   H         1 RES1   0.0000
    58 C23      4.4766   2.3598   3.4363   C.ar      1 RES1   0.0000
    59 C24      5.2389   2.8257   2.2512   C.ar      1 RES1   0.0000
    60 C25      5.6077   4.1662   2.1220   C.ar      1 RES1   0.0000
    61 H25      5.3320   4.7934   2.7811   H         1 RES1   0.0000
    62 C26      6.3739   4.5960   1.0379   C.ar      1 RES1   0.0000
    63 H26      6.6000   5.5155   0.9586   H         1 RES1   0.0000
    64 C27      6.8131   3.6904   0.0653   C.ar      1 RES1   0.0000
    65 H27      7.3823   3.9747  -0.6412   H         1 RES1   0.0000
    66 C28      6.4031   2.3743   0.1561   C.ar      1 RES1   0.0000
    67 H28      6.6479   1.7546  -0.5209   H         1 RES1   0.0000
    68 C29      5.6349   1.9524   1.2338   C.ar      1 RES1   0.0000
    69 H29      5.3686   1.0424   1.2798   H         1 RES1   0.0000
    70 C30      3.7855   1.1389   3.4683   C.ar      1 RES1   0.0000
    71 H30      3.7687   0.5945   2.6902   H         1 RES1   0.0000
    72 C31      3.1311   0.7108   4.6023   C.ar      1 RES1   0.0000
    73 H31      2.7056  -0.1369   4.5844   H         1 RES1   0.0000
    74 C32      0.6114   0.1785  11.3380   C.ar      1 RES1   0.0000
    75 H32      1.0360  -0.0451  12.1584   H         1 RES1   0.0000
    76 C33     -0.7899   0.3299  11.2971   C.ar      1 RES1   0.0000
    77 C34     -1.6313   0.1305  12.5014   C.ar      1 RES1   0.0000
    78 C35     -1.2674  -0.7121  13.5419   C.ar      1 RES1   0.0000
    79 H33     -0.4424  -1.1808  13.4881   H         1 RES1   0.0000
    80 C36     -2.0702  -0.8903  14.6592   C.ar      1 RES1   0.0000
    81 H34     -1.8051  -1.4788  15.3580   H         1 RES1   0.0000
    82 C37     -3.2822  -0.1863  14.7385   C.ar      1 RES1   0.0000
    83 H35     -3.8386  -0.2898  15.5026   H         1 RES1   0.0000
    84 C38     -3.6728   0.6552  13.7147   C.ar      1 RES1   0.0000
    85 H36     -4.4991   1.1209  13.7748   H         1 RES1   0.0000
    86 C39     -2.8617   0.8216  12.5961   C.ar      1 RES1   0.0000
    87 H37     -3.1341   1.4010  11.8948   H         1 RES1   0.0000
    88 C40     -1.3136   0.6666  10.0364   C.ar      1 RES1   0.0000
    89 H38     -2.2510   0.7691   9.9302   H         1 RES1   0.0000
    90 C41     -0.4789   0.8491   8.9473   C.ar      1 RES1   0.0000
    91 H39     -0.8684   1.1155   8.1231   H         1 RES1   0.0000
    92 C42      1.3724   0.3552  10.1964   C.ar      1 RES1   0.0000
    93 H40      2.3139   0.2462  10.2694   H         1 RES1   0.0000
@<TRIPOS>BOND
     1     1     2    1
     2     2    12    1
     3     3     1    1
     4     4    34    2
     5     5    34    1
     6     6    46    2
     7     7    46    1
     8     8     1    1
     9     9     1    1
    10    10     1    1
    11    11     1    1
    12    12    13    2
    13    13    14    1
    14    14     8    2
    15    15    14    1
    16    16     8    1
    17    17    16   ar
    18    18    17    1
    19    19    17   ar
    20    20    19    1
    21    21    19   ar
    22    22    21    1
    23    23    21   ar
    24    24    23    1
    25    25     9    1
    26    26     9    2
    27    27    26    1
    28    28    26    1
    29    29     3    1
    30    30    12    1
    31    31    30    1
    32    32    30    1
    33    33    30    1
    34    34    13    1
    35    35     5    1
    36    36    35    1
    37    37    35    1
    38    38    35    1
    39    39    38    1
    40    40    38    1
    41    41    38    1
    42    42    29    1
    43    43    42    1
    44    44    42    1
    45    45    42    1
    46    46    28    1
    47    47     7    1
    48    48    47    1
    49    49    47    1
    50    50    47    1
    51    51    50    1
    52    52    50    1
    53    53    50    1
    54    54    10   ar
    55    55    54    1
    56    56    54   ar
    57    57    56    1
    58    58    56   ar
    59    59    58    1
    60    60    59   ar
    61    61    60    1
    62    62    60   ar
    63    63    62    1
    64    64    62   ar
    65    65    64    1
    66    66    64   ar
    67    67    66    1
    68    68    59   ar
    69    69    68    1
    70    70    58   ar
    71    71    70    1
    72    72    10   ar
    73    73    72    1
    74    74    75    1
    75    76    74   ar
    76    77    76    1
    77    78    77   ar
    78    79    78    1
    79    80    78   ar
    80    81    80    1
    81    82    80   ar
    82    83    82    1
    83    84    82   ar
    84    85    84    1
    85    86    77   ar
    86    87    86    1
    87    88    76   ar
    88    89    88    1
    89    90    11   ar
    90    91    90    1
    91    92    11   ar
    92    93    92    1
    93    16    25   ar
    94    23    25   ar
    95    28    29    2
    96    66    68   ar
    97    70    72   ar
    98    74    92   ar
    99    84    86   ar
   100    88    90   ar
@<TRIPOS>SUBSTRUCTURE
     1 RES1        1 GROUP             0 ****  ****    0  
@<TRIPOS>CRYSIN
   11.8390   12.4310   13.5990  103.2490  101.9060   99.7110     2     1
