@<TRIPOS>MOLECULE
WOKGIQ
    84    91     2     0     0
SMALL
NO_CHARGES
****
Generated from the CSD

@<TRIPOS>ATOM
     1 Fe1      8.8402   2.4403   3.8840   Fe        1 RES1   0.0000
     2 Cl1      6.5103   2.5917   4.5816   Cl        1 RES1   0.0000
     3 Cl2      8.8567   0.0470   4.2635   Cl        1 RES1   0.0000
     4 N1      10.9074   2.4078   3.1737   N.3       1 RES1   0.0000
     5 N2       8.7073   2.3816   1.6187   N.ar      1 RES1   0.0000
     6 N3       9.2703   4.7411   3.6170   N.ar      1 RES1   0.0000
     7 N4      10.0489   2.9149   5.7428   N.ar      1 RES1   0.0000
     8 N5       6.7114   3.4901   1.3613   N.pl3     1 RES1   0.0000
     9 H1       6.7635   3.6003   2.2328   H         1 RES1   0.0000
    10 N6       7.2255   5.6287   4.2284   N.pl3     1 RES1   0.0000
    11 H2       6.9083   4.8238   4.0711   H         1 RES1   0.0000
    12 N7       8.3149   3.7104   7.0158   N.pl3     1 RES1   0.0000
    13 H3       7.7929   3.2172   6.5079   H         1 RES1   0.0000
    14 C1      10.9150   1.4603   2.0402   C.3       1 RES1   0.0000
    15 H4      10.7914   0.5378   2.3771   H         1 RES1   0.0000
    16 H5      11.7877   1.5048   1.5750   H         1 RES1   0.0000
    17 C2      11.3260   3.7579   2.7216   C.3       1 RES1   0.0000
    18 H6      11.1814   3.8199   1.7444   H         1 RES1   0.0000
    19 H7      12.2967   3.8568   2.8866   H         1 RES1   0.0000
    20 C3      11.7279   1.9302   4.3034   C.3       1 RES1   0.0000
    21 H8      12.6875   2.0556   4.0935   H         1 RES1   0.0000
    22 H9      11.5675   0.9636   4.4451   H         1 RES1   0.0000
    23 C4       9.8098   1.7990   1.0764   C.ar      1 RES1   0.0000
    24 C5       9.9347   1.5376  -0.2647   C.ar      1 RES1   0.0000
    25 H10     10.7106   1.1068  -0.6041   H         1 RES1   0.0000
    26 C6       8.9046   1.9143  -1.1143   C.ar      1 RES1   0.0000
    27 H11      8.9619   1.7297  -2.0446   H         1 RES1   0.0000
    28 C7       7.8030   2.5554  -0.6071   C.ar      1 RES1   0.0000
    29 H12      7.1008   2.8375  -1.1810   H         1 RES1   0.0000
    30 C8       7.7314   2.7864   0.7792   C.ar      1 RES1   0.0000
    31 C9       5.5856   4.0581   0.7271   C.ar      1 RES1   0.0000
    32 C10      4.8113   3.3575  -0.1966   C.ar      1 RES1   0.0000
    33 H13      5.0205   2.4535  -0.4023   H         1 RES1   0.0000
    34 C11      3.7358   3.9763  -0.8179   C.ar      1 RES1   0.0000
    35 H14      3.2288   3.5053  -1.4681   H         1 RES1   0.0000
    36 C12      3.4017   5.2702  -0.4930   C.ar      1 RES1   0.0000
    37 H15      2.6606   5.6867  -0.9164   H         1 RES1   0.0000
    38 C13      4.1354   5.9675   0.4454   C.ar      1 RES1   0.0000
    39 H16      3.8926   6.8571   0.6755   H         1 RES1   0.0000
    40 C14      5.2358   5.3619   1.0573   C.ar      1 RES1   0.0000
    41 H17      5.7462   5.8419   1.6989   H         1 RES1   0.0000
    42 C15     10.6091   4.9059   3.3848   C.ar      1 RES1   0.0000
    43 C16     11.2752   6.0803   3.6172   C.ar      1 RES1   0.0000
    44 H18     12.2122   6.1425   3.4759   H         1 RES1   0.0000
    45 C17     10.5503   7.1766   4.0610   C.ar      1 RES1   0.0000
    46 H19     10.9907   8.0019   4.2292   H         1 RES1   0.0000
    47 C18      9.1913   7.0669   4.2585   C.ar      1 RES1   0.0000
    48 H20      8.6799   7.8152   4.5421   H         1 RES1   0.0000
    49 C19      8.5769   5.8210   4.0312   C.ar      1 RES1   0.0000
    50 C20      6.2971   6.6185   4.6643   C.ar      1 RES1   0.0000
    51 C21      5.4700   6.3167   5.7476   C.ar      1 RES1   0.0000
    52 H21      5.5384   5.4758   6.1841   H         1 RES1   0.0000
    53 C22      4.5409   7.2652   6.1835   C.ar      1 RES1   0.0000
    54 H22      3.9721   7.0657   6.9183   H         1 RES1   0.0000
    55 C23      4.4438   8.4901   5.5542   C.ar      1 RES1   0.0000
    56 H23      3.8315   9.1432   5.8732   H         1 RES1   0.0000
    57 C24      5.2409   8.7633   4.4589   C.ar      1 RES1   0.0000
    58 H24      5.1646   9.6011   4.0166   H         1 RES1   0.0000
    59 C25      6.1561   7.8180   3.9992   C.ar      1 RES1   0.0000
    60 H25      6.6818   7.9997   3.2291   H         1 RES1   0.0000
    61 C26     11.3817   2.6891   5.5574   C.ar      1 RES1   0.0000
    62 C27     12.3350   3.0977   6.4514   C.ar      1 RES1   0.0000
    63 H26     13.2567   2.9507   6.2765   H         1 RES1   0.0000
    64 C28     11.9257   3.7307   7.6164   C.ar      1 RES1   0.0000
    65 H27     12.5707   4.0057   8.2578   H         1 RES1   0.0000
    66 C29     10.5887   3.9595   7.8447   C.ar      1 RES1   0.0000
    67 H28     10.2945   4.3856   8.6413   H         1 RES1   0.0000
    68 C30      9.6682   3.5419   6.8627   C.ar      1 RES1   0.0000
    69 C31      7.6761   4.6029   7.9125   C.ar      1 RES1   0.0000
    70 C32      8.1319   5.8973   8.1078   C.ar      1 RES1   0.0000
    71 H29      8.9344   6.1872   7.6887   H         1 RES1   0.0000
    72 C33      7.4172   6.7689   8.9130   C.ar      1 RES1   0.0000
    73 H30      7.7380   7.6509   9.0608   H         1 RES1   0.0000
    74 C34      6.2321   6.3520   9.5043   C.ar      1 RES1   0.0000
    75 H31      5.7236   6.9621  10.0259   H         1 RES1   0.0000
    76 C35      5.7873   5.0500   9.3347   C.ar      1 RES1   0.0000
    77 H32      4.9875   4.7609   9.7589   H         1 RES1   0.0000
    78 C36      6.5136   4.1722   8.5469   C.ar      1 RES1   0.0000
    79 H33      6.2183   3.2758   8.4390   H         1 RES1   0.0000
    80 Cl3     14.1643   1.4194  -3.4249   Cl        2 RES2   0.0000
    81 Cl4     12.8300  -0.3313  -1.5412   Cl        2 RES2   0.0000
    82 C37     12.7145   0.4534  -3.1068   C.3       2 RES2   0.0000
    83 H34     11.9601   1.1740  -3.0910   H         2 RES2   0.0000
    84 H35     12.6452  -0.1986  -3.7725   H         2 RES2   0.0000
@<TRIPOS>BOND
     1     1     2    1
     2     3     1    1
     3     4     1    1
     4     5     1    1
     5     6     1    1
     6     7     1    1
     7     8     9    1
     8    10    11    1
     9    12    13    1
    10    14     4    1
    11    15    14    1
    12    16    14    1
    13    17     4    1
    14    18    17    1
    15    19    17    1
    16    20     4    1
    17    21    20    1
    18    22    20    1
    19    23     5   ar
    20    24    23   ar
    21    25    24    1
    22    26    24   ar
    23    27    26    1
    24    28    26   ar
    25    29    28    1
    26    30     5   ar
    27    31     8    1
    28    32    31   ar
    29    33    32    1
    30    34    32   ar
    31    35    34    1
    32    36    34   ar
    33    37    36    1
    34    38    36   ar
    35    39    38    1
    36    40    31   ar
    37    41    40    1
    38    42     6   ar
    39    43    42   ar
    40    44    43    1
    41    45    43   ar
    42    46    45    1
    43    47    45   ar
    44    48    47    1
    45    49     6   ar
    46    50    10    1
    47    51    50   ar
    48    52    51    1
    49    53    51   ar
    50    54    53    1
    51    55    53   ar
    52    56    55    1
    53    57    55   ar
    54    58    57    1
    55    59    50   ar
    56    60    59    1
    57    61     7   ar
    58    62    61   ar
    59    63    62    1
    60    64    62   ar
    61    65    64    1
    62    66    64   ar
    63    67    66    1
    64    68     7   ar
    65    69    12    1
    66    70    69   ar
    67    71    70    1
    68    72    70   ar
    69    73    72    1
    70    74    72   ar
    71    75    74    1
    72    76    74   ar
    73    77    76    1
    74    78    69   ar
    75    79    78    1
    76     8    30    1
    77    10    49    1
    78    12    68    1
    79    14    23    1
    80    17    42    1
    81    20    61    1
    82    28    30   ar
    83    38    40   ar
    84    47    49   ar
    85    57    59   ar
    86    66    68   ar
    87    76    78   ar
    88    80    82    1
    89    81    82    1
    90    82    83    1
    91    84    82    1
@<TRIPOS>SUBSTRUCTURE
     1 RES1        1 GROUP             0 ****  ****    0  
     2 RES2       80 GROUP             0 ****  ****    0  
@<TRIPOS>CRYSIN
    9.1126   12.6898   16.6446   72.9650   80.4000   73.0780     2     1
