@<TRIPOS>MOLECULE
WONGEL
    87    92     2     0     0
SMALL
USER_CHARGES
****
Generated from the CSD

@<TRIPOS>ATOM
     1 Fe1      4.2033   4.1725   8.9518   Fe        1 RES1   2.0000
     2 N1       3.1186   5.4860   7.5448   N.2       1 RES1   0.0000
     3 N2       2.3766   6.4473   5.7070   N.pl3     1 RES1   0.0000
     4 N3       2.3641   3.0025   9.2068   N.2       1 RES1   0.0000
     5 N4       0.8887   1.5255   9.9077   N.pl3     1 RES1   0.0000
     6 N5       3.6359   5.6262  10.5499   N.2       1 RES1   0.0000
     7 N6       2.6954   6.5625  12.3050   N.pl3     1 RES1   0.0000
     8 C1       2.0829   6.3272   7.8436   C.2       1 RES1   0.0000
     9 C2       1.6217   6.9180   6.7246   C.2       1 RES1   0.0000
    10 C3       3.2660   5.6012   6.2444   C.2       1 RES1   0.0000
    11 C4       2.3181   6.8154   4.2843   C.3       1 RES1   0.0000
    12 C5       1.4590   2.7313   8.2069   C.2       1 RES1   0.0000
    13 C6       0.5618   1.8284   8.6206   C.2       1 RES1   0.0000
    14 C7       1.9760   2.2473  10.2140   C.2       1 RES1   0.0000
    15 C8       0.1875   0.6167  10.8264   C.3       1 RES1   0.0000
    16 C9       4.0449   6.9330  10.6473   C.2       1 RES1   0.0000
    17 C10      3.4868   7.5188  11.7162   C.2       1 RES1   0.0000
    18 C11      2.8211   5.4551  11.5713   C.2       1 RES1   0.0000
    19 C12      1.8654   6.7277  13.5173   C.3       1 RES1   0.0000
    20 H1       1.7499   6.3380   8.7334   H         1 RES1   0.0000
    21 H2       0.9360   7.3778   6.5545   H         1 RES1   0.0000
    22 H3       3.9127   5.1447   5.6969   H         1 RES1   0.0000
    23 H4       3.1005   6.2304   3.5915   H         1 RES1   0.0000
    24 H5       1.5285   6.6768   3.9979   H         1 RES1   0.0000
    25 H6       2.4366   7.6891   4.1930   H         1 RES1   0.0000
    26 H7       1.5255   3.2028   7.4139   H         1 RES1   0.0000
    27 H8      -0.0744   1.4721   8.3288   H         1 RES1   0.0000
    28 H9       2.3509   2.2365  11.1289   H         1 RES1   0.0000
    29 H10     -0.6564   0.6784  10.7941   H         1 RES1   0.0000
    30 H11      0.5596   0.5883  11.6392   H         1 RES1   0.0000
    31 H12      0.2977  -0.2512  10.3823   H         1 RES1   0.0000
    32 H13      4.6511   7.2935  10.0046   H         1 RES1   0.0000
    33 H14      3.5465   8.3558  12.1083   H         1 RES1   0.0000
    34 H15      2.3042   4.6540  11.6965   H         1 RES1   0.0000
    35 H16      1.5221   5.9725  13.7823   H         1 RES1   0.0000
    36 H17      2.6743   6.9330  14.3050   H         1 RES1   0.0000
    37 H18      1.5667   7.5255  13.5889   H         1 RES1   0.0000
    38 N1B      5.2881   2.8590  10.3589   N.2       1 RES1   0.0000
    39 C1B      6.3238   2.0178  10.0601   C.2       1 RES1   0.0000
    40 C2B      6.7849   1.4270  11.1791   C.2       1 RES1   0.0000
    41 N2B      6.0300   1.8977  12.1967   N.pl3     1 RES1   0.0000
    42 C3B      5.1406   2.7438  11.6592   C.2       1 RES1   0.0000
    43 H3B      4.4940   3.2003  12.2067   H         1 RES1   0.0000
    44 C4B      6.0886   1.5296  13.6193   C.3       1 RES1   0.0000
    45 H4B      5.3062   2.1146  14.3122   H         1 RES1   0.0000
    46 H5B      6.8782   1.6682  13.9058   H         1 RES1   0.0000
    47 H6B      5.9701   0.6559  13.7106   H         1 RES1   0.0000
    48 H2B      7.4706   0.9672  11.3491   H         1 RES1   0.0000
    49 H1B      6.6568   2.0070   9.1703   H         1 RES1   0.0000
    50 N3B      6.0426   5.3425   8.6969   N.2       1 RES1   0.0000
    51 C5B      6.9477   5.6137   9.6968   C.2       1 RES1   0.0000
    52 C6B      7.8449   6.5166   9.2831   C.2       1 RES1   0.0000
    53 N4B      7.5180   6.8195   7.9960   N.pl3     1 RES1   0.0000
    54 C7B      6.4307   6.0977   7.6896   C.2       1 RES1   0.0000
    55 H9B      6.0558   6.1085   6.7748   H         1 RES1   0.0000
    56 C8B      8.2192   7.7283   7.0773   C.3       1 RES1   0.0000
    57 H10B     9.0631   7.6666   7.1096   H         1 RES1   0.0000
    58 H11B     7.8471   7.7567   6.2645   H         1 RES1   0.0000
    59 H12B     8.1090   8.5962   7.5213   H         1 RES1   0.0000
    60 H8B      8.4811   6.8729   9.5749   H         1 RES1   0.0000
    61 H7B      6.8811   5.1422  10.4898   H         1 RES1   0.0000
    62 N5B      4.7708   2.7188   7.3538   N.2       1 RES1   0.0000
    63 C9B      4.3618   1.4120   7.2564   C.2       1 RES1   0.0000
    64 C10B     4.9198   0.8262   6.1875   C.2       1 RES1   0.0000
    65 N6B      5.7113   1.7825   5.5987   N.pl3     1 RES1   0.0000
    66 C11B     5.5856   2.8899   6.3324   C.2       1 RES1   0.0000
    67 H15B     6.1025   3.6910   6.2072   H         1 RES1   0.0000
    68 C12B     6.5413   1.6173   4.3864   C.3       1 RES1   0.0000
    69 H16B     6.8846   2.3725   4.1214   H         1 RES1   0.0000
    70 H17B     5.7324   1.4120   3.5986   H         1 RES1   0.0000
    71 H18B     6.8400   0.8195   4.3148   H         1 RES1   0.0000
    72 H14B     4.8602  -0.0108   5.7954   H         1 RES1   0.0000
    73 H13B     3.7555   1.0515   7.8991   H         1 RES1   0.0000
    74 S1       2.0613   2.8163  14.2427   S.o2      2 RES2   0.0000
    75 O1       3.0855   3.7185  14.6782   O.3       2 RES2  -1.0000
    76 O2       2.5503   1.6915  13.5459   O.2       2 RES2   0.0000
    77 O3       0.9802   3.4732  13.4859   O.2       2 RES2   0.0000
    78 N7       1.5317   2.7205  16.8445   N.ar      2 RES2   0.0000
    79 C13      1.2472   2.1530  15.6920   C.ar      2 RES2   0.0000
    80 C14      0.3437   1.1449  15.5511   C.ar      2 RES2   0.0000
    81 C15     -0.2639   0.6426  16.6862   C.ar      2 RES2   0.0000
    82 C16      0.0488   1.1850  17.8911   C.ar      2 RES2   0.0000
    83 C17      0.9041   2.2089  17.9359   C.ar      2 RES2   0.0000
    84 H19      0.2348   0.8829  14.8153   H         2 RES2   0.0000
    85 H20     -0.8251  -0.1227  16.6970   H         2 RES2   0.0000
    86 H21     -0.4471   0.7786  18.6700   H         2 RES2   0.0000
    87 H22      1.0758   2.7413  18.7792   H         2 RES2   0.0000
@<TRIPOS>BOND
     1     1     2    1
     2     2     8    1
     3     3     9    1
     4     4     1    1
     5     5    13    1
     6     6     1    1
     7     7    17    1
     8     8     9    2
     9     9    21    1
    10    10     2    2
    11    11     3    1
    12    12     4    1
    13    13    12    2
    14    14     4    2
    15    15     5    1
    16    16     6    1
    17    17    16    2
    18    18     6    2
    19    19     7    1
    20    20     8    1
    21    22    10    1
    22    23    11    1
    23    24    11    1
    24    25    11    1
    25    26    12    1
    26    27    13    1
    27    28    14    1
    28    29    15    1
    29    30    15    1
    30    31    15    1
    31    32    16    1
    32    33    17    1
    33    34    18    1
    34    35    19    1
    35    36    19    1
    36    37    19    1
    37    38     1    1
    38    39    38    1
    39    40    39    2
    40    41    40    1
    41    42    38    2
    42    43    42    1
    43    44    41    1
    44    45    44    1
    45    46    44    1
    46    47    44    1
    47    48    40    1
    48    49    39    1
    49    50     1    1
    50    51    50    1
    51    52    51    2
    52    53    52    1
    53    54    50    2
    54    55    54    1
    55    56    53    1
    56    57    56    1
    57    58    56    1
    58    59    56    1
    59    60    52    1
    60    61    51    1
    61    62     1    1
    62    63    62    1
    63    64    63    2
    64    65    64    1
    65    66    62    2
    66    67    66    1
    67    68    65    1
    68    69    68    1
    69    70    68    1
    70    71    68    1
    71    72    64    1
    72    73    63    1
    73     3    10    1
    74     5    14    1
    75     7    18    1
    76    41    42    1
    77    53    54    1
    78    65    66    1
    79    74    75    1
    80    76    74    2
    81    77    74    2
    82    78    79   ar
    83    79    74    1
    84    80    79   ar
    85    81    80   ar
    86    82    81   ar
    87    83    78   ar
    88    84    80    1
    89    85    81    1
    90    86    82    1
    91    87    83    1
    92    82    83   ar
@<TRIPOS>SUBSTRUCTURE
     1 RES1        1 GROUP             0 ****  ****    0  
     2 RES2       74 GROUP             0 ****  ****    0  
@<TRIPOS>CRYSIN
   13.6760    8.3450   18.6630   90.0000  106.4000   90.0000   231     1
