@<TRIPOS>MOLECULE
WONWON
    79    85     3     0     0
SMALL
USER_CHARGES
****
Generated from the CSD

@<TRIPOS>ATOM
     1 C1       7.1489   3.4217   1.0705   C.ar      1 RES1   0.0000
     2 H1       7.6712   3.8527   1.7091   H         1 RES1   0.0000
     3 C2       7.7337   3.0334  -0.1051   C.ar      1 RES1   0.0000
     4 H2       8.6396   3.1881  -0.2498   H         1 RES1   0.0000
     5 C3       6.9800   2.4151  -1.0717   C.ar      1 RES1   0.0000
     6 H3       7.3593   2.1739  -1.8854   H         1 RES1   0.0000
     7 C4       5.6453   2.1556  -0.8149   C.ar      1 RES1   0.0000
     8 H4       5.1179   1.7234  -1.4476   H         1 RES1   0.0000
     9 C5       5.1075   2.5490   0.3993   C.ar      1 RES1   0.0000
    10 C6       3.7039   2.3620   0.7950   C.2       1 RES1   0.0000
    11 C7       2.7294   1.6560  -0.0619   C.ar      1 RES1   0.0000
    12 C8       2.9513   0.3546  -0.4495   C.ar      1 RES1   0.0000
    13 H5       3.7239  -0.0890  -0.1821   H         1 RES1   0.0000
    14 C9       2.0041  -0.2997  -1.2503   C.ar      1 RES1   0.0000
    15 H6       2.1443  -1.1812  -1.5118   H         1 RES1   0.0000
    16 C10      0.8728   0.3625  -1.6461   C.ar      1 RES1   0.0000
    17 H7       0.2452  -0.0724  -2.1773   H         1 RES1   0.0000
    18 C11      0.6607   1.6518  -1.2667   C.ar      1 RES1   0.0000
    19 H8      -0.1096   2.0938  -1.5422   H         1 RES1   0.0000
    20 C12      1.5742   2.3080  -0.4798   C.ar      1 RES1   0.0000
    21 H9       1.4203   3.1893  -0.2253   H         1 RES1   0.0000
    22 C13      2.0941   2.8990   2.5415   C.3       1 RES1   0.0000
    23 H10      1.6823   2.0264   2.4470   H         1 RES1   0.0000
    24 H11      1.5310   3.5566   2.1037   H         1 RES1   0.0000
    25 C14      2.2686   3.2476   4.0148   C.3       1 RES1   0.0000
    26 H12      1.4407   3.6162   4.3604   H         1 RES1   0.0000
    27 H13      2.4731   2.4429   4.5157   H         1 RES1   0.0000
    28 C15      2.9870   5.6724   4.0674   C.3       1 RES1   0.0000
    29 H14      3.5422   6.2093   4.6546   H         1 RES1   0.0000
    30 H15      2.0611   5.7923   4.3312   H         1 RES1   0.0000
    31 C16      3.1710   6.1294   2.6384   C.3       1 RES1   0.0000
    32 H16      2.4220   5.8266   2.1002   H         1 RES1   0.0000
    33 H17      3.1937   7.0983   2.6069   H         1 RES1   0.0000
    34 C17      5.6622   6.4207   2.2613   C.3       1 RES1   0.0000
    35 H18      5.4181   7.3582   2.2065   H         1 RES1   0.0000
    36 H19      6.2908   6.2316   1.5480   H         1 RES1   0.0000
    37 C18      6.3210   6.1497   3.5992   C.3       1 RES1   0.0000
    38 H20      7.2601   6.3880   3.5665   H         1 RES1   0.0000
    39 H21      5.8929   6.6704   4.2962   H         1 RES1   0.0000
    40 C19      6.8048   4.0936   4.8087   C.2       1 RES1   0.0000
    41 C20      7.8587   4.6521   5.6831   C.ar      1 RES1   0.0000
    42 C21      7.6396   4.8601   7.0408   C.ar      1 RES1   0.0000
    43 H22      6.7996   4.6900   7.4027   H         1 RES1   0.0000
    44 C22      8.6500   5.3123   7.8499   C.ar      1 RES1   0.0000
    45 H23      8.4936   5.4440   8.7570   H         1 RES1   0.0000
    46 C23      9.8959   5.5705   7.3257   C.ar      1 RES1   0.0000
    47 H24     10.5765   5.8837   7.8755   H         1 RES1   0.0000
    48 C24     10.1312   5.3667   5.9901   C.ar      1 RES1   0.0000
    49 H25     10.9770   5.5321   5.6399   H         1 RES1   0.0000
    50 C25      9.1217   4.9166   5.1612   C.ar      1 RES1   0.0000
    51 H26      9.2864   4.7910   4.2553   H         1 RES1   0.0000
    52 C26      6.4108   2.6791   4.9208   C.ar      1 RES1   0.0000
    53 C27      6.9514   1.7952   5.8360   C.ar      1 RES1   0.0000
    54 H27      7.5912   2.0773   6.4489   H         1 RES1   0.0000
    55 C28      6.5209   0.4845   5.8185   C.ar      1 RES1   0.0000
    56 H28      6.8583  -0.1319   6.4279   H         1 RES1   0.0000
    57 C29      5.5874   0.1048   4.8881   C.ar      1 RES1   0.0000
    58 H29      5.3006  -0.7790   4.8507   H         1 RES1   0.0000
    59 C30      5.0781   1.0280   4.0125   C.ar      1 RES1   0.0000
    60 H30      4.4444   0.7511   3.3902   H         1 RES1   0.0000
    61 N1       5.8480   3.2048   1.3367   N.ar      1 RES1   0.0000
    62 N2       3.4412   2.8982   1.9438   N.2       1 RES1   0.0000
    63 N3       3.3640   4.2350   4.1945   N.3       1 RES1   0.0000
    64 H31      3.7015   4.1156   5.0317   H         1 RES1   0.0000
    65 N4       4.4422   5.5789   2.0835   N.3       1 RES1   0.0000
    66 H32      4.3212   5.4544   1.1896   H         1 RES1   0.0000
    67 N5       6.1675   4.7048   3.8730   N.2       1 RES1   0.0000
    68 N6       5.4575   2.3118   4.0177   N.ar      1 RES1   0.0000
    69 Fe1      4.8179   3.7884   2.8978   Fe        1 RES1   2.0000
    70 O1       8.5227   2.2552  -4.4433   O.3       2 RES2  -1.0000
    71 O2       9.9399   0.4435  -4.6546   O.2       2 RES2   0.0000
    72 O3      10.8043   2.5200  -4.2962   O.2       2 RES2   0.0000
    73 O4       9.6404   1.4400  -2.5952   O.2       2 RES2   0.0000
    74 Cl1      9.7264   1.6560  -3.9712   Cl        2 RES2   0.0000
    75 O5      10.9303   4.2370   0.7460   O.3       3 RES3  -1.0000
    76 O6       9.6120   5.8224   1.6776   O.2       3 RES3   0.0000
    77 O7      11.6825   6.2877   0.8499   O.2       3 RES3   0.0000
    78 O8      11.5290   5.1993   2.8042   O.2       3 RES3   0.0000
    79 Cl2     10.9118   5.3288   1.5585   Cl        3 RES3   0.0000
@<TRIPOS>BOND
     1     1     2    1
     2     3     1   ar
     3     4     3    1
     4     5     3   ar
     5     6     5    1
     6     7     5   ar
     7     8     7    1
     8     9     7   ar
     9    10     9    1
    10    11    10    1
    11    12    11   ar
    12    13    12    1
    13    14    12   ar
    14    15    14    1
    15    16    14   ar
    16    17    16    1
    17    18    16   ar
    18    19    18    1
    19    20    11   ar
    20    21    20    1
    21    22    23    1
    22    24    22    1
    23    25    22    1
    24    26    25    1
    25    27    25    1
    26    28    29    1
    27    30    28    1
    28    31    28    1
    29    32    31    1
    30    33    31    1
    31    34    35    1
    32    36    34    1
    33    37    34    1
    34    38    37    1
    35    39    37    1
    36    40    41    1
    37    41    42   ar
    38    42    43    1
    39    44    42   ar
    40    45    44    1
    41    46    44   ar
    42    47    46    1
    43    48    46   ar
    44    49    48    1
    45    50    41   ar
    46    51    50    1
    47    52    40    1
    48    53    52   ar
    49    54    53    1
    50    55    53   ar
    51    56    55    1
    52    57    55   ar
    53    58    57    1
    54    59    57   ar
    55    60    59    1
    56    61     1   ar
    57    62    10    2
    58    63    25    1
    59    64    63    1
    60    65    31    1
    61    66    65    1
    62    67    37    1
    63    68    52   ar
    64    69    61    1
    65     9    61   ar
    66    18    20   ar
    67    22    62    1
    68    28    63    1
    69    34    65    1
    70    40    67    2
    71    48    50   ar
    72    59    68   ar
    73    62    69    1
    74    63    69    1
    75    65    69    1
    76    67    69    1
    77    68    69    1
    78    70    74    1
    79    71    74    2
    80    72    74    2
    81    73    74    2
    82    75    79    1
    83    76    79    2
    84    77    79    2
    85    78    79    2
@<TRIPOS>SUBSTRUCTURE
     1 RES1        1 GROUP             0 ****  ****    0  
     2 RES2       70 GROUP             0 ****  ****    0  
     3 RES3       75 GROUP             0 ****  ****    0  
@<TRIPOS>CRYSIN
   11.9241   12.1994   13.0622   73.6110   65.5370   73.6240     2     1
