@<TRIPOS>MOLECULE
WONXAB
    79    82     1     0     0
SMALL
NO_CHARGES
****
Generated from the CSD

@<TRIPOS>ATOM
     1 Fe1      0.0000   7.0115   8.1722   Fe        1 RES1   0.0000
     2 Br1      2.1729   7.1149   7.0096   Br        1 RES1   0.0000
     3 C1      -0.9128   7.8698   6.7649   C.1       1 RES1   0.0000
     4 N1      -1.5088   8.4524   5.9633   N.1       1 RES1   0.0000
     5 C2      -2.1793   9.3962   5.1607   C.ar      1 RES1   0.0000
     6 C3      -2.3141   9.1541   3.7916   C.ar      1 RES1   0.0000
     7 C4      -2.8843  10.1693   3.0260   C.ar      1 RES1   0.0000
     8 H1      -2.9742  10.0515   2.0876   H         1 RES1   0.0000
     9 C5      -3.3210  11.3438   3.6072   C.ar      1 RES1   0.0000
    10 H2      -3.6818  12.0340   3.0630   H         1 RES1   0.0000
    11 C6      -3.2360  11.5223   4.9824   C.ar      1 RES1   0.0000
    12 H3      -3.5784  12.3173   5.3739   H         1 RES1   0.0000
    13 C7      -2.6569  10.5531   5.7929   C.ar      1 RES1   0.0000
    14 C8      -1.8925   7.8565   3.1664   C.3       1 RES1   0.0000
    15 H4      -1.5158   7.2694   3.8548   H         1 RES1   0.0000
    16 H5      -2.6704   7.4228   2.7574   H         1 RES1   0.0000
    17 H6      -1.2160   8.0296   2.4788   H         1 RES1   0.0000
    18 C9      -2.5459  10.7376   7.2844   C.3       1 RES1   0.0000
    19 H7      -2.1119   9.9527   7.6793   H         1 RES1   0.0000
    20 H8      -2.0121  11.5369   7.4759   H         1 RES1   0.0000
    21 H9      -3.4415  10.8433   7.6680   H         1 RES1   0.0000
    22 C10     -0.3662   5.3237   7.4427   C.1       1 RES1   0.0000
    23 N2      -0.6211   4.2764   7.0248   N.1       1 RES1   0.0000
    24 C11     -0.9825   3.1000   6.3540   C.ar      1 RES1   0.0000
    25 C12     -1.4104   1.9956   7.0984   C.ar      1 RES1   0.0000
    26 C13     -1.7946   0.8676   6.3763   C.ar      1 RES1   0.0000
    27 H10     -2.0903   0.0934   6.8406   H         1 RES1   0.0000
    28 C14     -1.7522   0.8576   4.9976   C.ar      1 RES1   0.0000
    29 H11     -2.0179   0.0774   4.5252   H         1 RES1   0.0000
    30 C15     -1.3278   1.9692   4.2960   C.ar      1 RES1   0.0000
    31 H12     -1.3134   1.9449   3.3463   H         1 RES1   0.0000
    32 C16     -0.9226   3.1191   4.9542   C.ar      1 RES1   0.0000
    33 C17     -1.4635   2.0274   8.6065   C.3       1 RES1   0.0000
    34 H13     -0.8144   2.6801   8.9425   H         1 RES1   0.0000
    35 H14     -1.2467   1.1394   8.9597   H         1 RES1   0.0000
    36 H15     -2.3640   2.2834   8.8963   H         1 RES1   0.0000
    37 C18     -0.4723   4.3499   4.2211   C.3       1 RES1   0.0000
    38 H16      0.4512   4.5604   4.4726   H         1 RES1   0.0000
    39 H17     -1.0547   5.1019   4.4571   H         1 RES1   0.0000
    40 H18     -0.5196   4.1905   3.2553   H         1 RES1   0.0000
    41 Br1D    -2.1729   6.9080   9.3348   Br        1 RES1   0.0000
    42 C1D      0.9128   6.1531   9.5795   C.1       1 RES1   0.0000
    43 N1D      1.5088   5.5705  10.3811   N.1       1 RES1   0.0000
    44 C2D      2.1793   4.6267  11.1837   C.ar      1 RES1   0.0000
    45 C3D      2.3141   4.8688  12.5528   C.ar      1 RES1   0.0000
    46 C4D      2.8843   3.8536  13.3184   C.ar      1 RES1   0.0000
    47 H1D      2.9742   3.9714  14.2568   H         1 RES1   0.0000
    48 C5D      3.3210   2.6791  12.7372   C.ar      1 RES1   0.0000
    49 H2D      3.6818   1.9889  13.2814   H         1 RES1   0.0000
    50 C6D      3.2360   2.5006  11.3620   C.ar      1 RES1   0.0000
    51 H3D      3.5784   1.7056  10.9705   H         1 RES1   0.0000
    52 C7D      2.6569   3.4698  10.5515   C.ar      1 RES1   0.0000
    53 C8D      1.8925   6.1664  13.1780   C.3       1 RES1   0.0000
    54 H4D      1.5158   6.7535  12.4896   H         1 RES1   0.0000
    55 H5D      2.6704   6.6001  13.5870   H         1 RES1   0.0000
    56 H6D      1.2160   5.9933  13.8656   H         1 RES1   0.0000
    57 C9D      2.5459   3.2853   9.0600   C.3       1 RES1   0.0000
    58 H7D      2.1119   4.0702   8.6651   H         1 RES1   0.0000
    59 H8D      2.0121   2.4860   8.8685   H         1 RES1   0.0000
    60 H9D      3.4415   3.1796   8.6764   H         1 RES1   0.0000
    61 C10D     0.3662   8.6992   8.9017   C.1       1 RES1   0.0000
    62 N2D      0.6211   9.7465   9.3196   N.1       1 RES1   0.0000
    63 C11D     0.9825  10.9229   9.9904   C.ar      1 RES1   0.0000
    64 C12D     1.4104  12.0273   9.2460   C.ar      1 RES1   0.0000
    65 C13D     1.7946  13.1553   9.9681   C.ar      1 RES1   0.0000
    66 H10D     2.0903  13.9295   9.5038   H         1 RES1   0.0000
    67 C14D     1.7522  13.1653  11.3468   C.ar      1 RES1   0.0000
    68 H11D     2.0179  13.9455  11.8192   H         1 RES1   0.0000
    69 C15D     1.3278  12.0537  12.0484   C.ar      1 RES1   0.0000
    70 H12D     1.3134  12.0780  12.9981   H         1 RES1   0.0000
    71 C16D     0.9226  10.9038  11.3902   C.ar      1 RES1   0.0000
    72 C17D     1.4635  11.9955   7.7379   C.3       1 RES1   0.0000
    73 H13D     0.8144  11.3428   7.4019   H         1 RES1   0.0000
    74 H14D     1.2467  12.8835   7.3847   H         1 RES1   0.0000
    75 H15D     2.3640  11.7395   7.4481   H         1 RES1   0.0000
    76 C18D     0.4723   9.6730  12.1233   C.3       1 RES1   0.0000
    77 H16D    -0.4512   9.4625  11.8718   H         1 RES1   0.0000
    78 H17D     1.0547   8.9210  11.8873   H         1 RES1   0.0000
    79 H18D     0.5196   9.8324  13.0891   H         1 RES1   0.0000
@<TRIPOS>BOND
     1     1     2    1
     2     3     1    1
     3     4     3    3
     4     5     4    1
     5     6     5   ar
     6     7     6   ar
     7     8     7    1
     8     9     7   ar
     9    10     9    1
    10    11     9   ar
    11    12    11    1
    12    13     5   ar
    13    14     6    1
    14    15    14    1
    15    16    14    1
    16    17    14    1
    17    18    13    1
    18    19    18    1
    19    20    18    1
    20    21    18    1
    21    22     1    1
    22    23    22    3
    23    24    23    1
    24    25    24   ar
    25    26    25   ar
    26    27    26    1
    27    28    26   ar
    28    29    28    1
    29    30    28   ar
    30    31    30    1
    31    32    24   ar
    32    33    25    1
    33    34    33    1
    34    35    33    1
    35    36    33    1
    36    37    32    1
    37    38    37    1
    38    39    37    1
    39    40    37    1
    40    41     1    1
    41    42     1    1
    42    43    42    3
    43    44    43    1
    44    45    44   ar
    45    46    45   ar
    46    47    46    1
    47    48    46   ar
    48    49    48    1
    49    50    48   ar
    50    51    50    1
    51    52    44   ar
    52    53    45    1
    53    54    53    1
    54    55    53    1
    55    56    53    1
    56    57    52    1
    57    58    57    1
    58    59    57    1
    59    60    57    1
    60    61     1    1
    61    62    61    3
    62    63    62    1
    63    64    63   ar
    64    65    64   ar
    65    66    65    1
    66    67    65   ar
    67    68    67    1
    68    69    67   ar
    69    70    69    1
    70    71    63   ar
    71    72    64    1
    72    73    72    1
    73    74    72    1
    74    75    72    1
    75    76    71    1
    76    77    76    1
    77    78    76    1
    78    79    76    1
    79    11    13   ar
    80    30    32   ar
    81    50    52   ar
    82    69    71   ar
@<TRIPOS>SUBSTRUCTURE
     1 RES1        1 GROUP             0 ****  ****    0  
@<TRIPOS>CRYSIN
   14.4246   14.0229   16.3444   90.0000   90.0000   90.0000    61     1
