@<TRIPOS>MOLECULE
WOQXEF
    82    84     6     0     0
SMALL
USER_CHARGES
****
Generated from the CSD

@<TRIPOS>ATOM
     1 I1      14.4058  -1.6952  -4.3343   I         1 RES1  -1.0000
     2 I2      13.8178   1.3685   2.6018   I         2 RES2  -1.0000
     3 Fe1     15.4924  -3.3466   2.2816   Fe        3 RES3   2.0000
     4 N1      17.0741  -2.5404   1.4101   N.ar      3 RES3   0.0000
     5 N2      16.0656  -2.1375   3.7206   N.2       3 RES3   0.0000
     6 C1      17.4902  -2.7186   0.1611   C.ar      3 RES3   0.0000
     7 H1      17.0309  -3.3181  -0.3829   H         3 RES3   0.0000
     8 C2      18.5823  -2.0446  -0.3601   C.ar      3 RES3   0.0000
     9 H2      18.8527  -2.1958  -1.2358   H         3 RES3   0.0000
    10 C3      19.2559  -1.1546   0.4302   C.ar      3 RES3   0.0000
    11 H3      19.9884  -0.6902   0.0948   H         3 RES3   0.0000
    12 C4      18.8391  -0.9559   1.7286   C.ar      3 RES3   0.0000
    13 H4      19.2901  -0.3608   2.2839   H         3 RES3   0.0000
    14 C5      17.7525  -1.6450   2.1891   C.ar      3 RES3   0.0000
    15 C6      17.1503  -1.4776   3.5348   C.2       3 RES3   0.0000
    16 C7      17.8002  -0.5368   4.5147   C.3       3 RES3   0.0000
    17 H5      17.3003  -0.5336   5.3354   H         3 RES3   0.0000
    18 H6      17.8148   0.3500   4.1451   H         3 RES3   0.0000
    19 H7      18.6988  -0.8263   4.6872   H         3 RES3   0.0000
    20 C8      15.2979  -1.9604   4.9848   C.3       3 RES3   0.0000
    21 H8      14.3529  -1.8967   4.7725   H         3 RES3   0.0000
    22 H9      15.5648  -1.1276   5.4018   H         3 RES3   0.0000
    23 C9      15.5071  -3.0837   5.9533   C.ar      3 RES3   0.0000
    24 C10     14.4507  -3.4747   6.7626   C.ar      3 RES3   0.0000
    25 H10     13.6395  -3.0200   6.7171   H         3 RES3   0.0000
    26 C11     14.5950  -4.5397   7.6402   C.ar      3 RES3   0.0000
    27 H11     13.8851  -4.7805   8.1917   H         3 RES3   0.0000
    28 C12     15.7623  -5.2385   7.7065   C.ar      3 RES3   0.0000
    29 H12     15.8366  -5.9730   8.2713   H         3 RES3   0.0000
    30 C13     16.8369  -4.8518   6.9294   C.ar      3 RES3   0.0000
    31 H13     17.6433  -5.3130   6.9863   H         3 RES3   0.0000
    32 C14     16.7131  -3.7782   6.0689   C.ar      3 RES3   0.0000
    33 H14     17.4421  -3.5136   5.5591   H         3 RES3   0.0000
    34 N3      16.4522  -4.8702   3.0174   N.ar      3 RES3   0.0000
    35 N4      14.0243  -4.1811   3.2752   N.2       3 RES3   0.0000
    36 C15     17.7526  -5.1737   2.9188   C.ar      3 RES3   0.0000
    37 H15     18.3046  -4.5731   2.4715   H         3 RES3   0.0000
    38 C16     18.3295  -6.3175   3.4363   C.ar      3 RES3   0.0000
    39 H16     19.2380  -6.4828   3.3301   H         3 RES3   0.0000
    40 C17     17.5235  -7.2097   4.1148   C.ar      3 RES3   0.0000
    41 H17     17.8769  -7.9938   4.4673   H         3 RES3   0.0000
    42 C18     16.1784  -6.9159   4.2608   C.ar      3 RES3   0.0000
    43 H18     15.6190  -7.5035   4.7156   H         3 RES3   0.0000
    44 C19     15.6710  -5.7418   3.7301   C.ar      3 RES3   0.0000
    45 C20     14.2648  -5.2838   3.8646   C.2       3 RES3   0.0000
    46 C21     13.3193  -6.1198   4.6455   C.3       3 RES3   0.0000
    47 H19     12.4540  -5.7062   4.6493   H         3 RES3   0.0000
    48 H20     13.6370  -6.2041   5.5477   H         3 RES3   0.0000
    49 H21     13.2577  -6.9915   4.2475   H         3 RES3   0.0000
    50 C22     12.6546  -3.5849   3.3263   C.3       3 RES3   0.0000
    51 H22     12.7295  -2.6192   3.3794   H         3 RES3   0.0000
    52 H23     12.2012  -3.8927   4.1262   H         3 RES3   0.0000
    53 C23     11.8305  -3.9532   2.1171   C.ar      3 RES3   0.0000
    54 C24     11.0408  -2.9800   1.5220   C.ar      3 RES3   0.0000
    55 H24     11.0122  -2.1246   1.8840   H         3 RES3   0.0000
    56 C25     10.2867  -3.2749   0.3848   C.ar      3 RES3   0.0000
    57 H25      9.7669  -2.6106  -0.0057   H         3 RES3   0.0000
    58 C26     10.3026  -4.5083  -0.1573   C.ar      3 RES3   0.0000
    59 H26      9.8147  -4.6844  -0.9287   H         3 RES3   0.0000
    60 C27     11.0526  -5.5182   0.4397   C.ar      3 RES3   0.0000
    61 H27     11.0489  -6.3780   0.0853   H         3 RES3   0.0000
    62 C28     11.8034  -5.2342   1.5694   C.ar      3 RES3   0.0000
    63 H28     12.2998  -5.9114   1.9674   H         3 RES3   0.0000
    64 N5      14.9180  -4.3150   0.6596   N.ar      3 RES3   0.0000
    65 O1      14.4300  -1.9787   1.4556   O.2       3 RES3   0.0000
    66 C29     15.1234  -5.6176   0.3298   C.ar      3 RES3   0.0000
    67 H29     15.6050  -6.1544   0.9174   H         3 RES3   0.0000
    68 C30     14.6479  -6.1793  -0.8434   C.ar      3 RES3   0.0000
    69 H30     14.8144  -7.0725  -1.0405   H         3 RES3   0.0000
    70 C31     13.9286  -5.3983  -1.7096   C.ar      3 RES3   0.0000
    71 H31     13.6134  -5.7569  -2.5076   H         3 RES3   0.0000
    72 C32     13.6738  -4.0806  -1.3950   C.ar      3 RES3   0.0000
    73 H32     13.1782  -3.5373  -1.9636   H         3 RES3   0.0000
    74 C33     14.1812  -3.5924  -0.2009   C.ar      3 RES3   0.0000
    75 C34     13.9387  -2.2120   0.2616   C.2       3 RES3   0.0000
    76 C35     13.1796  -1.2281  -0.5288   C.3       3 RES3   0.0000
    77 H33     13.1380  -0.3975  -0.0512   H         3 RES3   0.0000
    78 H34     12.2887  -1.5564  -0.6766   H         3 RES3   0.0000
    79 H35     13.6143  -1.0909  -1.3722   H         3 RES3   0.0000
    80 O2      13.6477   1.4495  -2.7634   O.3       4 RES4   0.0000
    81 O3      11.9414   2.1656  -0.6975   O.3       5 RES5   0.0000
    82 O4      10.1106   3.7361  -2.5834   O.3       6 RES6   0.0000
@<TRIPOS>BOND
     1     3     4    1
     2     4     6   ar
     3     5     3    1
     4     6     7    1
     5     8     6   ar
     6     9     8    1
     7    10     8   ar
     8    11    10    1
     9    12    10   ar
    10    13    12    1
    11    14     4   ar
    12    15     5    2
    13    16    15    1
    14    17    16    1
    15    18    16    1
    16    19    16    1
    17    20     5    1
    18    21    20    1
    19    22    20    1
    20    23    20    1
    21    24    23   ar
    22    25    24    1
    23    26    24   ar
    24    27    26    1
    25    28    26   ar
    26    29    28    1
    27    30    28   ar
    28    31    30    1
    29    32    23   ar
    30    33    32    1
    31    34     3    1
    32    35     3    1
    33    36    34   ar
    34    37    36    1
    35    38    36   ar
    36    39    38    1
    37    40    38   ar
    38    41    40    1
    39    42    40   ar
    40    43    42    1
    41    44    34   ar
    42    45    35    2
    43    46    45    1
    44    47    46    1
    45    48    46    1
    46    49    46    1
    47    50    35    1
    48    51    50    1
    49    52    50    1
    50    53    50    1
    51    54    53   ar
    52    55    54    1
    53    56    54   ar
    54    57    56    1
    55    58    56   ar
    56    59    58    1
    57    60    58   ar
    58    61    60    1
    59    62    53   ar
    60    63    62    1
    61    64     3    1
    62    65     3    1
    63    66    64   ar
    64    67    66    1
    65    68    66   ar
    66    69    68    1
    67    70    68   ar
    68    71    70    1
    69    72    70   ar
    70    73    72    1
    71    74    64   ar
    72    75    65    2
    73    76    75    1
    74    77    76    1
    75    78    76    1
    76    79    76    1
    77    12    14   ar
    78    14    15    1
    79    30    32   ar
    80    42    44   ar
    81    44    45    1
    82    60    62   ar
    83    72    74   ar
    84    74    75    1
@<TRIPOS>SUBSTRUCTURE
     1 RES1        1 GROUP             0 ****  ****    0  
     2 RES2        2 GROUP             0 ****  ****    0  
     3 RES3        3 GROUP             0 ****  ****    0  
     4 RES4       80 GROUP             0 ****  ****    0  
     5 RES5       81 GROUP             0 ****  ****    0  
     6 RES6       82 GROUP             0 ****  ****    0  
@<TRIPOS>CRYSIN
   17.8200   10.8010   19.6130   90.0000  104.9000   90.0000   231     1
