@<TRIPOS>MOLECULE
WOVLEY
   134   142    10     0     0
SMALL
USER_CHARGES
****
Generated from the CSD

@<TRIPOS>ATOM
     1 Fe1      7.9363   4.6377   9.3401   Fe        1 RES1   2.0000
     2 N1       7.4634   5.8681   7.8823   N.ar      1 RES1   0.0000
     3 C1       7.6495   5.7477   6.5680   C.ar      1 RES1   0.0000
     4 H1       8.0398   4.9701   6.2404   H         1 RES1   0.0000
     5 C2       7.2822   6.7431   5.6685   C.ar      1 RES1   0.0000
     6 H2       7.4421   6.6242   4.7607   H         1 RES1   0.0000
     7 C3       6.6899   7.8888   6.1053   C.ar      1 RES1   0.0000
     8 H3       6.4317   8.5474   5.5023   H         1 RES1   0.0000
     9 C4       6.4755   8.0601   7.4873   C.ar      1 RES1   0.0000
    10 C5       5.8772   9.2071   8.0762   C.ar      1 RES1   0.0000
    11 H4       5.5630   9.8906   7.5291   H         1 RES1   0.0000
    12 C6       5.7548   9.3235   9.4216   C.ar      1 RES1   0.0000
    13 H5       5.3355  10.0718   9.7830   H         1 RES1   0.0000
    14 C7       6.2609   8.3142  10.2857   C.ar      1 RES1   0.0000
    15 C8       6.2613   8.4108  11.6915   C.ar      1 RES1   0.0000
    16 H6       5.8774   9.1446  12.1160   H         1 RES1   0.0000
    17 C9       6.8354   7.4049  12.4204   C.ar      1 RES1   0.0000
    18 H7       6.8662   7.4637  13.3479   H         1 RES1   0.0000
    19 C10      7.3702   6.3022  11.7817   C.ar      1 RES1   0.0000
    20 H8       7.7549   5.6340  12.3018   H         1 RES1   0.0000
    21 N2       7.3630   6.1465  10.4567   N.ar      1 RES1   0.0000
    22 C11      6.8277   7.1708   9.7296   C.ar      1 RES1   0.0000
    23 C12      6.9107   7.0274   8.3257   C.ar      1 RES1   0.0000
    24 N3       6.1257   3.8513   9.3332   N.ar      1 RES1   0.0000
    25 C13      5.0034   4.2706   9.9154   C.ar      1 RES1   0.0000
    26 H9       5.0210   5.0636  10.3989   H         1 RES1   0.0000
    27 C14      3.8042   3.5659   9.8270   C.ar      1 RES1   0.0000
    28 H10      3.0435   3.8940  10.2475   H         1 RES1   0.0000
    29 C15      3.7423   2.4074   9.1326   C.ar      1 RES1   0.0000
    30 H11      2.9414   1.9403   9.0707   H         1 RES1   0.0000
    31 C16      4.9017   1.9171   8.5058   C.ar      1 RES1   0.0000
    32 C17      4.9538   0.7221   7.7238   C.ar      1 RES1   0.0000
    33 H12      4.1867   0.2041   7.6306   H         1 RES1   0.0000
    34 C18      6.0910   0.3325   7.1213   C.ar      1 RES1   0.0000
    35 H13      6.0968  -0.4522   6.6206   H         1 RES1   0.0000
    36 C19      7.2955   1.1012   7.2336   C.ar      1 RES1   0.0000
    37 C20      8.5093   0.7790   6.6130   C.ar      1 RES1   0.0000
    38 H14      8.5821   0.0114   6.0941   H         1 RES1   0.0000
    39 C21      9.5854   1.6065   6.7796   C.ar      1 RES1   0.0000
    40 H15     10.3969   1.4004   6.3729   H         1 RES1   0.0000
    41 C22      9.4709   2.7504   7.5521   C.ar      1 RES1   0.0000
    42 H16     10.2196   3.2911   7.6581   H         1 RES1   0.0000
    43 N4       8.3322   3.1129   8.1517   N.ar      1 RES1   0.0000
    44 C23      7.2632   2.2775   7.9955   C.ar      1 RES1   0.0000
    45 C24      6.0584   2.6899   8.6318   C.ar      1 RES1   0.0000
    46 N5       8.5070   3.5680  10.8839   N.ar      1 RES1   0.0000
    47 C25      7.7933   2.7798  11.6977   C.ar      1 RES1   0.0000
    48 H17      6.8827   2.6825  11.5413   H         1 RES1   0.0000
    49 C26      8.3694   2.0962  12.7734   C.ar      1 RES1   0.0000
    50 H18      7.8391   1.5664  13.3221   H         1 RES1   0.0000
    51 C27      9.7025   2.2057  13.0184   C.ar      1 RES1   0.0000
    52 H19     10.0869   1.7610  13.7385   H         1 RES1   0.0000
    53 C28     10.4894   2.9967  12.1724   C.ar      1 RES1   0.0000
    54 C29     11.9019   3.1809  12.3121   C.ar      1 RES1   0.0000
    55 H20     12.3526   2.7417  12.9952   H         1 RES1   0.0000
    56 C30     12.5868   3.9753  11.4763   C.ar      1 RES1   0.0000
    57 H21     13.5099   4.0486  11.5758   H         1 RES1   0.0000
    58 C31     11.9357   4.7116  10.4354   C.ar      1 RES1   0.0000
    59 C32     12.5794   5.5842   9.5684   C.ar      1 RES1   0.0000
    60 H22     13.5003   5.7103   9.6161   H         1 RES1   0.0000
    61 C33     11.8299   6.2549   8.6422   C.ar      1 RES1   0.0000
    62 H23     12.2406   6.8608   8.0676   H         1 RES1   0.0000
    63 C34     10.4616   6.0387   8.5516   C.ar      1 RES1   0.0000
    64 H24      9.9783   6.5059   7.9076   H         1 RES1   0.0000
    65 N6       9.8124   5.1935   9.3458   N.ar      1 RES1   0.0000
    66 C35     10.5619   4.5500  10.2872   C.ar      1 RES1   0.0000
    67 C36      9.8337   3.6729  11.1327   C.ar      1 RES1   0.0000
    68 N7       4.0542  -0.0441  14.4871   N.am      2 RES2  -1.0000
    69 C37      4.9833   0.2396  15.4201   C.2       2 RES2   0.0000
    70 O1       5.3010  -0.5025  16.3623   O.2       2 RES2   0.0000
    71 C38      5.6087   1.5952  15.2558   C.ar      2 RES2   0.0000
    72 C39      6.5785   2.2088  16.0299   C.ar      2 RES2   0.0000
    73 H25      6.9947   1.7553  16.7270   H         2 RES2   0.0000
    74 C40      6.9090   3.5071  15.7369   C.ar      2 RES2   0.0000
    75 H26      7.5654   3.9303  16.2401   H         2 RES2   0.0000
    76 C41      6.2886   4.2058  14.7107   C.ar      2 RES2   0.0000
    77 H27      6.5189   5.0922  14.5523   H         2 RES2   0.0000
    78 C42      5.3262   3.5880  13.9171   C.ar      2 RES2   0.0000
    79 H28      4.9101   4.0390  13.2189   H         2 RES2   0.0000
    80 C43      5.0215   2.2914  14.2104   C.ar      2 RES2   0.0000
    81 S1       3.8566   1.1867  13.4826   S.o2      2 RES2   0.0000
    82 O2       4.2594   0.8616  12.1380   O.2       2 RES2   0.0000
    83 O3       2.5242   1.7303  13.5979   O.2       2 RES2   0.0000
    84 N8      11.2886   6.9301  13.6578   N.am      3 RES3   0.0000
    85 H29     10.5906   6.4678  14.0396   H         3 RES3   0.0000
    86 C44     12.5828   6.4958  13.7700   C.2       3 RES3   0.0000
    87 O4      12.9620   5.6560  14.5537   O.2       3 RES3   0.0000
    88 C45     13.4257   7.1977  12.7719   C.ar      3 RES3   0.0000
    89 C46     14.7774   7.0382  12.5496   C.ar      3 RES3   0.0000
    90 H30     15.2800   6.4525  13.0675   H         3 RES3   0.0000
    91 C47     15.3650   7.7755  11.5327   C.ar      3 RES3   0.0000
    92 H31     16.2785   7.6927  11.3745   H         3 RES3   0.0000
    93 C48     14.6069   8.6348  10.7473   C.ar      3 RES3   0.0000
    94 H32     15.0212   9.1159  10.0686   H         3 RES3   0.0000
    95 C49     13.2511   8.7905  10.9522   C.ar      3 RES3   0.0000
    96 H33     12.7395   9.3602  10.4230   H         3 RES3   0.0000
    97 C50     12.6923   8.0655  11.9741   C.ar      3 RES3   0.0000
    98 S2      11.0203   8.0550  12.4935   S.o2      3 RES3   0.0000
    99 O5      10.6600   9.3016  13.0723   O.2       3 RES3   0.0000
   100 O6      10.1497   7.5332  11.4822   O.2       3 RES3   0.0000
   101 N9       5.9581   6.4815  17.1026   N.am      4 RES4  -1.0000
   102 C51      7.1597   6.9881  16.8098   C.2       4 RES4   0.0000
   103 O7       8.2417   6.4613  17.1477   O.2       4 RES4   0.0000
   104 C52      7.1236   8.2515  16.0208   C.ar      4 RES4   0.0000
   105 C53      8.1721   9.0328  15.5806   C.ar      4 RES4   0.0000
   106 H34      9.0531   8.7878  15.7481   H         4 RES4   0.0000
   107 C54      7.8783  10.1907  14.8845   C.ar      4 RES4   0.0000
   108 H35      8.5716  10.7358  14.5867   H         4 RES4   0.0000
   109 C55      6.5653  10.5488  14.6244   C.ar      4 RES4   0.0000
   110 H36      6.3921  11.3348  14.1583   H         4 RES4   0.0000
   111 C56      5.5067   9.7629  15.0413   C.ar      4 RES4   0.0000
   112 H37      4.6251   9.9898  14.8517   H         4 RES4   0.0000
   113 C57      5.8240   8.6306  15.7494   C.ar      4 RES4   0.0000
   114 S3       4.7932   7.3761  16.4402   S.o2      4 RES4   0.0000
   115 O8       3.9143   7.9115  17.4419   O.2       4 RES4   0.0000
   116 O9       4.1331   6.6595  15.3701   O.2       4 RES4   0.0000
   117 O10     11.1255   3.5374  15.5896   O.3       5 RES5   0.0000
   118 H38     11.7680   4.1592  15.6225   H         5 RES5   0.0000
   119 H39     10.9534   3.3197  16.4432   H         5 RES5   0.0000
   120 O11      9.4168   5.5465  14.8463   O.3       6 RES6   0.0000
   121 H40      9.8494   4.7698  15.0031   H         6 RES6   0.0000
   122 H41      9.0767   5.8191  15.6311   H         6 RES6   0.0000
   123 O12     11.9441   3.2818   3.9584   O.3       7 RES7   0.0000
   124 H42     11.9121   2.5432   3.4411   H         7 RES7   0.0000
   125 H43     11.7953   3.0145   4.8037   H         7 RES7   0.0000
   126 O13      4.0761  -2.9426  16.2566   O.3       8 RES8   0.0000
   127 H44      4.3503  -2.0892  16.3795   H         8 RES8   0.0000
   128 H45      4.8288  -3.4247  16.1558   H         8 RES8   0.0000
   129 O14      0.4946   5.0571  10.4357   O.3       9 RES9   0.0000
   130 H46      0.5211   4.3786   9.8432   H         9 RES9   0.0000
   131 H47      0.6118   4.6744  11.2471   H         9 RES9   0.0000
   132 O15      1.4449   4.3788  13.0000   O.3      10 RES10   0.0000
   133 H48      1.8191   3.5830  13.1965   H        10 RES10   0.0000
   134 H49      2.1032   4.9873  13.0589   H        10 RES10   0.0000
@<TRIPOS>BOND
     1     1     2    1
     2     2     3   ar
     3     3     4    1
     4     5     3   ar
     5     6     5    1
     6     7     5   ar
     7     8     7    1
     8     9     7   ar
     9    10     9   ar
    10    11    10    1
    11    12    10   ar
    12    13    12    1
    13    14    12   ar
    14    15    14   ar
    15    16    15    1
    16    17    15   ar
    17    18    17    1
    18    19    17   ar
    19    20    19    1
    20    21     1    1
    21    22    14   ar
    22    23     2   ar
    23    24     1    1
    24    25    24   ar
    25    26    25    1
    26    27    25   ar
    27    28    27    1
    28    29    27   ar
    29    30    29    1
    30    31    29   ar
    31    32    31   ar
    32    33    32    1
    33    34    32   ar
    34    35    34    1
    35    36    34   ar
    36    37    36   ar
    37    38    37    1
    38    39    37   ar
    39    40    39    1
    40    41    39   ar
    41    42    41    1
    42    43     1    1
    43    44    36   ar
    44    45    24   ar
    45    46     1    1
    46    47    46   ar
    47    48    47    1
    48    49    47   ar
    49    50    49    1
    50    51    49   ar
    51    52    51    1
    52    53    51   ar
    53    54    53   ar
    54    55    54    1
    55    56    54   ar
    56    57    56    1
    57    58    56   ar
    58    59    58   ar
    59    60    59    1
    60    61    59   ar
    61    62    61    1
    62    63    61   ar
    63    64    63    1
    64    65     1    1
    65    66    58   ar
    66    67    46   ar
    67     9    23   ar
    68    19    21   ar
    69    21    22   ar
    70    22    23   ar
    71    31    45   ar
    72    41    43   ar
    73    43    44   ar
    74    44    45   ar
    75    53    67   ar
    76    63    65   ar
    77    65    66   ar
    78    66    67   ar
    79    68    69   am
    80    69    70    2
    81    71    69    1
    82    72    71   ar
    83    73    72    1
    84    74    72   ar
    85    75    74    1
    86    76    74   ar
    87    77    76    1
    88    78    76   ar
    89    79    78    1
    90    80    71   ar
    91    81    68    1
    92    82    81    2
    93    83    81    2
    94    78    80   ar
    95    80    81    1
    96    84    85    1
    97    86    84   am
    98    87    86    2
    99    88    86    1
   100    89    88   ar
   101    90    89    1
   102    91    89   ar
   103    92    91    1
   104    93    91   ar
   105    94    93    1
   106    95    93   ar
   107    96    95    1
   108    97    88   ar
   109    98    84    1
   110    99    98    2
   111   100    98    2
   112    95    97   ar
   113    97    98    1
   114   101   102   am
   115   102   103    2
   116   104   102    1
   117   105   104   ar
   118   106   105    1
   119   107   105   ar
   120   108   107    1
   121   109   107   ar
   122   110   109    1
   123   111   109   ar
   124   112   111    1
   125   113   104   ar
   126   114   101    1
   127   115   114    2
   128   116   114    2
   129   111   113   ar
   130   113   114    1
   131   117   118    1
   132   119   117    1
   133   120   121    1
   134   122   120    1
   135   123   124    1
   136   125   123    1
   137   126   127    1
   138   128   126    1
   139   129   130    1
   140   131   129    1
   141   132   133    1
   142   134   132    1
@<TRIPOS>SUBSTRUCTURE
     1 RES1        1 GROUP             0 ****  ****    0  
     2 RES2       68 GROUP             0 ****  ****    0  
     3 RES3       84 GROUP             0 ****  ****    0  
     4 RES4      101 GROUP             0 ****  ****    0  
     5 RES5      117 GROUP             0 ****  ****    0  
     6 RES6      120 GROUP             0 ****  ****    0  
     7 RES7      123 GROUP             0 ****  ****    0  
     8 RES8      126 GROUP             0 ****  ****    0  
     9 RES9      129 GROUP             0 ****  ****    0  
    10 RES10     132 GROUP             0 ****  ****    0  
@<TRIPOS>CRYSIN
   16.1130   19.0790   17.2270   90.0000   92.8730   90.0000   231     1
