@<TRIPOS>MOLECULE
WOYCOE01
   183   197     2     0     0
SMALL
NO_CHARGES
****
Generated from the CSD

@<TRIPOS>ATOM
     1 Se1      7.4392   4.8410   3.9452   Se        1 RES1   0.0000
     2 Fe1      4.1158   5.8777   7.5072   Fe        1 RES1   0.0000
     3 N1       5.6147   5.3457   6.1639   N.2       1 RES1   0.0000
     4 C1       6.3388   5.1551   5.2977   C.1       1 RES1   0.0000
     5 N2       4.5537   8.0101   7.0345   N.ar      1 RES1   0.0000
     6 C2       4.6183   8.4405   5.7529   C.ar      1 RES1   0.0000
     7 H1       4.4005   7.8365   5.0794   H         1 RES1   0.0000
     8 N3       5.6920   6.2357   9.0499   N.ar      1 RES1   0.0000
     9 C3       4.9800   9.6995   5.3860   C.ar      1 RES1   0.0000
    10 H2       4.9919   9.9506   4.4908   H         1 RES1   0.0000
    11 N4       4.8833   8.4261   9.3254   N.pl3     1 RES1   0.0000
    12 C4       5.3290  10.5906   6.3712   C.ar      1 RES1   0.0000
    13 H3       5.5818  11.4581   6.1514   H         1 RES1   0.0000
    14 N5       4.1930   8.6647  11.5279   N.ar      1 RES1   0.0000
    15 C5       5.3005  10.1856   7.6880   C.ar      1 RES1   0.0000
    16 H4       5.5458  10.7686   8.3705   H         1 RES1   0.0000
    17 N6       3.3566  10.0776   9.7894   N.ar      1 RES1   0.0000
    18 C6       4.9013   8.8943   7.9704   C.ar      1 RES1   0.0000
    19 N7       2.6737  10.4394  12.0527   N.ar      1 RES1   0.0000
    20 C7       5.8095   7.4052   9.6873   C.ar      1 RES1   0.0000
    21 N8       1.9164  11.7894  10.3542   N.pl3     1 RES1   0.0000
    22 C8       6.8333   7.6619  10.5824   C.ar      1 RES1   0.0000
    23 H5       6.8880   8.4826  11.0161   H         1 RES1   0.0000
    24 N9       3.4528   9.0197  13.6885   N.pl3     1 RES1   0.0000
    25 C9       7.7698   6.6796  10.8191   C.ar      1 RES1   0.0000
    26 H6       8.4561   6.8240  11.4305   H         1 RES1   0.0000
    27 C10      7.6822   5.4825  10.1448   C.ar      1 RES1   0.0000
    28 H7       8.3130   4.8124  10.2743   H         1 RES1   0.0000
    29 C11      6.6351   5.3075   9.2759   C.ar      1 RES1   0.0000
    30 H8       6.5752   4.5005   8.8180   H         1 RES1   0.0000
    31 C12      4.1111   9.0915  10.2668   C.ar      1 RES1   0.0000
    32 C13      3.4239   9.3769  12.3795   C.ar      1 RES1   0.0000
    33 C14      2.6707  10.7282  10.7462   C.ar      1 RES1   0.0000
    34 C15      4.0426   7.7626  14.1251   C.3       1 RES1   0.0000
    35 H9       4.3663   7.2803  13.3478   H         1 RES1   0.0000
    36 H10      3.3553   7.2206  14.5429   H         1 RES1   0.0000
    37 C16      5.1797   7.9437  15.0982   C.ar      1 RES1   0.0000
    38 C17      6.3725   8.5186  14.6920   C.ar      1 RES1   0.0000
    39 H11      6.4594   8.8299  13.8192   H         1 RES1   0.0000
    40 C18      7.4309   8.6344  15.5669   C.ar      1 RES1   0.0000
    41 H12      8.2258   9.0254  15.2816   H         1 RES1   0.0000
    42 C19      7.3221   8.1770  16.8627   C.ar      1 RES1   0.0000
    43 H13      8.0460   8.2340  17.4437   H         1 RES1   0.0000
    44 C20      6.1497   7.6407  17.2825   C.ar      1 RES1   0.0000
    45 H14      6.0625   7.3589  18.1644   H         1 RES1   0.0000
    46 C21      5.0835   7.5105  16.4121   C.ar      1 RES1   0.0000
    47 H15      4.2903   7.1279  16.7110   H         1 RES1   0.0000
    48 C22      2.6922   9.7544  14.7051   C.3       1 RES1   0.0000
    49 H16      2.4194  10.6098  14.3372   H         1 RES1   0.0000
    50 H17      3.2692   9.9288  15.4648   H         1 RES1   0.0000
    51 C23      1.4705   9.0115  15.1789   C.ar      1 RES1   0.0000
    52 C24      1.3812   8.5375  16.4795   C.ar      1 RES1   0.0000
    53 H18      2.0836   8.6823  17.0714   H         1 RES1   0.0000
    54 C25      0.2589   7.8524  16.9062   C.ar      1 RES1   0.0000
    55 H19      0.1993   7.5604  17.7860   H         1 RES1   0.0000
    56 C26     -0.7614   7.6054  16.0324   C.ar      1 RES1   0.0000
    57 H20     -1.5047   7.1235  16.3131   H         1 RES1   0.0000
    58 C27     -0.6908   8.0727  14.7321   C.ar      1 RES1   0.0000
    59 H21     -1.3929   7.9157  14.1436   H         1 RES1   0.0000
    60 C28      0.4231   8.7726  14.3099   C.ar      1 RES1   0.0000
    61 H22      0.4689   9.0850  13.4349   H         1 RES1   0.0000
    62 C29      1.0582  12.4586  11.3192   C.3       1 RES1   0.0000
    63 H23      0.8122  13.3279  10.9650   H         1 RES1   0.0000
    64 H24      1.5642  12.6059  12.1346   H         1 RES1   0.0000
    65 C30     -0.2020  11.6986  11.6614   C.ar      1 RES1   0.0000
    66 C31     -0.9906  12.1201  12.7103   C.ar      1 RES1   0.0000
    67 H25     -0.7397  12.8699  13.2007   H         1 RES1   0.0000
    68 C32     -2.1501  11.4439  13.0430   C.ar      1 RES1   0.0000
    69 H26     -2.6721  11.7398  13.7532   H         1 RES1   0.0000
    70 C33     -2.5344  10.3373  12.3298   C.ar      1 RES1   0.0000
    71 H27     -3.3111   9.8804  12.5580   H         1 RES1   0.0000
    72 C34     -1.7668   9.9114  11.2818   C.ar      1 RES1   0.0000
    73 H28     -2.0261   9.1660  10.7908   H         1 RES1   0.0000
    74 C35     -0.6035  10.5842  10.9467   C.ar      1 RES1   0.0000
    75 H29     -0.0877  10.2836  10.2338   H         1 RES1   0.0000
    76 C36      1.8919  12.2353   8.9694   C.3       1 RES1   0.0000
    77 H30      0.9936  12.5370   8.7564   H         1 RES1   0.0000
    78 H31      2.0891  11.4780   8.3960   H         1 RES1   0.0000
    79 C37      2.8643  13.3493   8.6523   C.ar      1 RES1   0.0000
    80 C38      2.6566  14.1563   7.5375   C.ar      1 RES1   0.0000
    81 H32      1.8954  14.0343   7.0177   H         1 RES1   0.0000
    82 C39      3.5612  15.1304   7.1979   C.ar      1 RES1   0.0000
    83 H33      3.4056  15.6661   6.4532   H         1 RES1   0.0000
    84 C40      4.6899  15.3178   7.9441   C.ar      1 RES1   0.0000
    85 H34      5.3080  15.9682   7.7024   H         1 RES1   0.0000
    86 C41      4.9066  14.5421   9.0537   C.ar      1 RES1   0.0000
    87 H35      5.6722  14.6683   9.5657   H         1 RES1   0.0000
    88 C42      3.9818  13.5641   9.4125   C.ar      1 RES1   0.0000
    89 H36      4.1253  13.0526  10.1753   H         1 RES1   0.0000
    90 Se1A     0.7924   6.9144  11.0692   Se        1 RES1   0.0000
    91 N1A      2.6168   6.4096   8.8505   N.2       1 RES1   0.0000
    92 C1A      1.8928   6.6003   9.7167   C.1       1 RES1   0.0000
    93 N2A      3.6779   3.7453   7.9798   N.ar      1 RES1   0.0000
    94 C2A      3.6132   3.3149   9.2615   C.ar      1 RES1   0.0000
    95 H1A      3.8311   3.9189   9.9350   H         1 RES1   0.0000
    96 N3A      2.5396   5.5197   5.9645   N.ar      1 RES1   0.0000
    97 C3A      3.2515   2.0559   9.6284   C.ar      1 RES1   0.0000
    98 H2A      3.2396   1.8048  10.5236   H         1 RES1   0.0000
    99 N4A      3.3482   3.3293   5.6890   N.pl3     1 RES1   0.0000
   100 C4A      2.9025   1.1648   8.6432   C.ar      1 RES1   0.0000
   101 H3A      2.6497   0.2973   8.8630   H         1 RES1   0.0000
   102 N5A      4.0386   3.0907   3.4865   N.ar      1 RES1   0.0000
   103 C5A      2.9310   1.5698   7.3264   C.ar      1 RES1   0.0000
   104 H4A      2.6857   0.9868   6.6439   H         1 RES1   0.0000
   105 N6A      4.8749   1.6778   5.2250   N.ar      1 RES1   0.0000
   106 C6A      3.3303   2.8611   7.0440   C.ar      1 RES1   0.0000
   107 N7A      5.5578   1.3160   2.9617   N.ar      1 RES1   0.0000
   108 C7A      2.4220   4.3502   5.3271   C.ar      1 RES1   0.0000
   109 N8A      6.3151  -0.0340   4.6602   N.pl3     1 RES1   0.0000
   110 C8A      1.3982   4.0935   4.4319   C.ar      1 RES1   0.0000
   111 H5A      1.3435   3.2728   3.9983   H         1 RES1   0.0000
   112 N9A      4.7787   2.7357   1.3259   N.pl3     1 RES1   0.0000
   113 C9A      0.4617   5.0758   4.1953   C.ar      1 RES1   0.0000
   114 H6A     -0.2246   4.9314   3.5839   H         1 RES1   0.0000
   115 C10A     0.5493   6.2729   4.8696   C.ar      1 RES1   0.0000
   116 H7A     -0.0815   6.9430   4.7400   H         1 RES1   0.0000
   117 C11A     1.5965   6.4479   5.7385   C.ar      1 RES1   0.0000
   118 H8A      1.6563   7.2549   6.1964   H         1 RES1   0.0000
   119 C12A     4.1204   2.6639   4.7475   C.ar      1 RES1   0.0000
   120 C13A     4.8076   2.3785   2.6349   C.ar      1 RES1   0.0000
   121 C14A     5.5609   1.0272   4.2681   C.ar      1 RES1   0.0000
   122 C15A     4.1890   3.9928   0.8893   C.3       1 RES1   0.0000
   123 H9A      3.8652   4.4750   1.6666   H         1 RES1   0.0000
   124 H10A     4.8763   4.5348   0.4715   H         1 RES1   0.0000
   125 C16A     3.0518   3.8117  -0.0838   C.ar      1 RES1   0.0000
   126 C17A     1.8591   3.2368   0.3224   C.ar      1 RES1   0.0000
   127 H11A     1.7721   2.9255   1.1951   H         1 RES1   0.0000
   128 C18A     0.8006   3.1210  -0.5525   C.ar      1 RES1   0.0000
   129 H12A     0.0058   2.7300  -0.2673   H         1 RES1   0.0000
   130 C19A     0.9094   3.5784  -1.8483   C.ar      1 RES1   0.0000
   131 H13A     0.1856   3.5214  -2.4293   H         1 RES1   0.0000
   132 C20A     2.0818   4.1147  -2.2681   C.ar      1 RES1   0.0000
   133 H14A     2.1691   4.3965  -3.1500   H         1 RES1   0.0000
   134 C21A     3.1480   4.2449  -1.3977   C.ar      1 RES1   0.0000
   135 H15A     3.9413   4.6275  -1.6966   H         1 RES1   0.0000
   136 C22A     5.5393   2.0010   0.3093   C.3       1 RES1   0.0000
   137 H16A     5.8121   1.1456   0.6771   H         1 RES1   0.0000
   138 H17A     4.9623   1.8266  -0.4504   H         1 RES1   0.0000
   139 C23A     6.7611   2.7438  -0.1646   C.ar      1 RES1   0.0000
   140 C24A     6.8503   3.2179  -1.4651   C.ar      1 RES1   0.0000
   141 H18A     6.1480   3.0731  -2.0570   H         1 RES1   0.0000
   142 C25A     7.9726   3.9030  -1.8918   C.ar      1 RES1   0.0000
   143 H19A     8.0322   4.1950  -2.7717   H         1 RES1   0.0000
   144 C26A     8.9929   4.1500  -1.0180   C.ar      1 RES1   0.0000
   145 H20A     9.7362   4.6319  -1.2987   H         1 RES1   0.0000
   146 C27A     8.9223   3.6827   0.2823   C.ar      1 RES1   0.0000
   147 H21A     9.6244   3.8397   0.8708   H         1 RES1   0.0000
   148 C28A     7.8085   2.9828   0.7045   C.ar      1 RES1   0.0000
   149 H22A     7.7627   2.6704   1.5795   H         1 RES1   0.0000
   150 C29A     7.1733  -0.7032   3.6952   C.3       1 RES1   0.0000
   151 H23A     7.4193  -1.5725   4.0494   H         1 RES1   0.0000
   152 H24A     6.6673  -0.8505   2.8798   H         1 RES1   0.0000
   153 C30A     8.4335   0.0568   3.3530   C.ar      1 RES1   0.0000
   154 C31A     9.2221  -0.3647   2.3041   C.ar      1 RES1   0.0000
   155 H25A     8.9713  -1.1145   1.8137   H         1 RES1   0.0000
   156 C32A    10.3816   0.3115   1.9714   C.ar      1 RES1   0.0000
   157 H26A    10.9037   0.0155   1.2612   H         1 RES1   0.0000
   158 C33A    10.7659   1.4181   2.6846   C.ar      1 RES1   0.0000
   159 H27A    11.5426   1.8750   2.4564   H         1 RES1   0.0000
   160 C34A     9.9983   1.8440   3.7326   C.ar      1 RES1   0.0000
   161 H28A    10.2576   2.5893   4.2235   H         1 RES1   0.0000
   162 C35A     8.8350   1.1712   4.0677   C.ar      1 RES1   0.0000
   163 H29A     8.3193   1.4718   4.7806   H         1 RES1   0.0000
   164 C36A     6.3396  -0.4799   6.0449   C.3       1 RES1   0.0000
   165 H30A     7.2379  -0.7816   6.2580   H         1 RES1   0.0000
   166 H31A     6.1424   0.2774   6.6183   H         1 RES1   0.0000
   167 C37A     5.3672  -1.5939   6.3620   C.ar      1 RES1   0.0000
   168 C38A     5.5750  -2.4009   7.4769   C.ar      1 RES1   0.0000
   169 H32A     6.3361  -2.2789   7.9967   H         1 RES1   0.0000
   170 C39A     4.6703  -3.3750   7.8165   C.ar      1 RES1   0.0000
   171 H33A     4.8260  -3.9107   8.5612   H         1 RES1   0.0000
   172 C40A     3.5417  -3.5625   7.0703   C.ar      1 RES1   0.0000
   173 H34A     2.9236  -4.2128   7.3120   H         1 RES1   0.0000
   174 C41A     3.3249  -2.7867   5.9607   C.ar      1 RES1   0.0000
   175 H35A     2.5594  -2.9129   5.4487   H         1 RES1   0.0000
   176 C42A     4.2497  -1.8087   5.6019   C.ar      1 RES1   0.0000
   177 H36A     4.1063  -1.2972   4.8391   H         1 RES1   0.0000
   178 N10      7.5738  11.6577   3.9308   N.1       2 RES2   0.0000
   179 C43      7.8667  11.2657   2.9218   C.1       2 RES2   0.0000
   180 C44      8.2745  10.8211   1.6065   C.3       2 RES2   0.0000
   181 H37      7.7880  10.0279   1.3723   H         2 RES2   0.0000
   182 H38      9.2152  10.6307   1.6110   H         2 RES2   0.0000
   183 H39      8.0908  11.5108   0.9654   H         2 RES2   0.0000
@<TRIPOS>BOND
     1     1     4    2
     2     2     3    1
     3     3     4    2
     4     5     2    1
     5     6     5   ar
     6     7     6    1
     7     8     2    1
     8     9     6   ar
     9    10     9    1
    10    11    18    1
    11    12     9   ar
    12    13    12    1
    13    14    31   ar
    14    15    12   ar
    15    16    15    1
    16    17    31   ar
    17    18     5   ar
    18    19    32   ar
    19    20     8   ar
    20    21    33    1
    21    22    20   ar
    22    23    22    1
    23    24    32    1
    24    25    22   ar
    25    26    25    1
    26    27    25   ar
    27    28    27    1
    28    29     8   ar
    29    30    29    1
    30    31    11    1
    31    32    14   ar
    32    33    17   ar
    33    34    24    1
    34    35    34    1
    35    36    34    1
    36    37    34    1
    37    38    37   ar
    38    39    38    1
    39    40    38   ar
    40    41    40    1
    41    42    40   ar
    42    43    42    1
    43    44    42   ar
    44    45    44    1
    45    46    37   ar
    46    47    46    1
    47    48    24    1
    48    49    48    1
    49    50    48    1
    50    51    48    1
    51    52    51   ar
    52    53    52    1
    53    54    52   ar
    54    55    54    1
    55    56    54   ar
    56    57    56    1
    57    58    56   ar
    58    59    58    1
    59    60    51   ar
    60    61    60    1
    61    62    21    1
    62    63    62    1
    63    64    62    1
    64    65    62    1
    65    66    65   ar
    66    67    66    1
    67    68    66   ar
    68    69    68    1
    69    70    68   ar
    70    71    70    1
    71    72    70   ar
    72    73    72    1
    73    74    65   ar
    74    75    74    1
    75    76    21    1
    76    77    76    1
    77    78    76    1
    78    79    76    1
    79    80    79   ar
    80    81    80    1
    81    82    80   ar
    82    83    82    1
    83    84    82   ar
    84    85    84    1
    85    86    84   ar
    86    87    86    1
    87    88    79   ar
    88    89    88    1
    89    90    92    2
    90    91     2    1
    91    92    91    2
    92    93     2    1
    93    94    93   ar
    94    95    94    1
    95    96     2    1
    96    97    94   ar
    97    98    97    1
    98    99   106    1
    99   100    97   ar
   100   101   100    1
   101   102   119   ar
   102   103   100   ar
   103   104   103    1
   104   105   119   ar
   105   106    93   ar
   106   107   120   ar
   107   108    96   ar
   108   109   121    1
   109   110   108   ar
   110   111   110    1
   111   112   120    1
   112   113   110   ar
   113   114   113    1
   114   115   113   ar
   115   116   115    1
   116   117    96   ar
   117   118   117    1
   118   119    99    1
   119   120   102   ar
   120   121   105   ar
   121   122   112    1
   122   123   122    1
   123   124   122    1
   124   125   122    1
   125   126   125   ar
   126   127   126    1
   127   128   126   ar
   128   129   128    1
   129   130   128   ar
   130   131   130    1
   131   132   130   ar
   132   133   132    1
   133   134   125   ar
   134   135   134    1
   135   136   112    1
   136   137   136    1
   137   138   136    1
   138   139   136    1
   139   140   139   ar
   140   141   140    1
   141   142   140   ar
   142   143   142    1
   143   144   142   ar
   144   145   144    1
   145   146   144   ar
   146   147   146    1
   147   148   139   ar
   148   149   148    1
   149   150   109    1
   150   151   150    1
   151   152   150    1
   152   153   150    1
   153   154   153   ar
   154   155   154    1
   155   156   154   ar
   156   157   156    1
   157   158   156   ar
   158   159   158    1
   159   160   158   ar
   160   161   160    1
   161   162   153   ar
   162   163   162    1
   163   164   109    1
   164   165   164    1
   165   166   164    1
   166   167   164    1
   167   168   167   ar
   168   169   168    1
   169   170   168   ar
   170   171   170    1
   171   172   170   ar
   172   173   172    1
   173   174   172   ar
   174   175   174    1
   175   176   167   ar
   176   177   176    1
   177    11    20    1
   178    15    18   ar
   179    19    33   ar
   180    27    29   ar
   181    44    46   ar
   182    58    60   ar
   183    72    74   ar
   184    86    88   ar
   185    99   108    1
   186   103   106   ar
   187   107   121   ar
   188   115   117   ar
   189   132   134   ar
   190   146   148   ar
   191   160   162   ar
   192   174   176   ar
   193   178   179    3
   194   179   180    1
   195   180   181    1
   196   182   180    1
   197   183   180    1
@<TRIPOS>SUBSTRUCTURE
     1 RES1        1 GROUP             0 ****  ****    0  
     2 RES2      178 GROUP             0 ****  ****    0  
@<TRIPOS>CRYSIN
   11.7947   12.5435   15.2482   83.7670   80.1690   63.3410     2     1
