@<TRIPOS>MOLECULE
WOYCAQ
   110   120     2     0     0
SMALL
NO_CHARGES
****
Generated from the CSD

@<TRIPOS>ATOM
     1 Se1      1.3801   9.5756   3.2373   Se        1 RES1   0.0000
     2 Fe1      4.4938  13.4813   3.0585   Fe        1 RES1   0.0000
     3 N1       9.0776  14.2362   4.3446   N.ar      1 RES1   0.0000
     4 C1       2.5747  10.9137   3.1454   C.1       1 RES1   0.0000
     5 N2       5.9258  12.4290   4.4116   N.ar      1 RES1   0.0000
     6 N3       5.8616  12.5426   1.6018   N.ar      1 RES1   0.0000
     7 N4       9.3846  14.2454   1.9768   N.ar      1 RES1   0.0000
     8 O1      10.5147  15.5809   5.5695   O.3       1 RES1   0.0000
     9 C2       7.2024  12.5341   1.7201   C.ar      1 RES1   0.0000
    10 O2      11.1292  15.5016   1.1722   O.3       1 RES1   0.0000
    11 C3       7.2270  12.3096   4.1440   C.ar      1 RES1   0.0000
    12 N5       3.3185  11.7781   3.0877   N.2       1 RES1   0.0000
    13 N6       7.7097  12.9916   2.9743   N.pl3     1 RES1   0.0000
    14 C4       6.0987  11.4217  -0.5097   C.ar      1 RES1   0.0000
    15 H1       5.6891  11.0115  -1.2623   H         1 RES1   0.0000
    16 N7      10.8283  15.5390   3.3780   N.ar      1 RES1   0.0000
    17 C5       9.9571  15.1777   6.7931   C.ar      1 RES1   0.0000
    18 C6      10.0987  15.0789   4.3974   C.ar      1 RES1   0.0000
    19 C7       9.6477  16.1996   7.6702   C.ar      1 RES1   0.0000
    20 H2       9.7586  17.1068   7.4124   H         1 RES1   0.0000
    21 C8       5.3321  11.9539   0.5112   C.ar      1 RES1   0.0000
    22 H3       4.3859  11.9030   0.4386   H         1 RES1   0.0000
    23 C9       9.1755  15.8809   8.9311   C.ar      1 RES1   0.0000
    24 H4       8.9623  16.5747   9.5445   H         1 RES1   0.0000
    25 C10      8.7693  13.8553   3.1040   C.ar      1 RES1   0.0000
    26 C11      8.1024  11.5272   4.8715   C.ar      1 RES1   0.0000
    27 H5       9.0181  11.4698   4.6285   H         1 RES1   0.0000
    28 C12      8.0490  12.0407   0.7319   C.ar      1 RES1   0.0000
    29 H6       8.9929  12.0738   0.8371   H         1 RES1   0.0000
    30 C13     11.0555  14.8161  -0.0607   C.ar      1 RES1   0.0000
    31 C14     11.5885  12.9474  -1.4179   C.ar      1 RES1   0.0000
    32 H7      11.9210  12.0612  -1.5098   H         1 RES1   0.0000
    33 C15      9.3490  13.5483   8.4125   C.ar      1 RES1   0.0000
    34 H8       9.2409  12.6400   8.6718   H         1 RES1   0.0000
    35 C16      7.4798  11.5013  -0.4074   C.ar      1 RES1   0.0000
    36 H9       8.0312  11.1876  -1.1156   H         1 RES1   0.0000
    37 C17     10.4025  15.0544   2.2061   C.ar      1 RES1   0.0000
    38 C18     10.6484  15.5284  -1.1601   C.ar      1 RES1   0.0000
    39 H10     10.3392  16.4220  -1.0682   H         1 RES1   0.0000
    40 C19      7.6160  10.8263   5.9649   C.ar      1 RES1   0.0000
    41 H11      8.1948  10.3015   6.5027   H         1 RES1   0.0000
    42 C20     11.5543  13.5334  -0.1704   C.ar      1 RES1   0.0000
    43 H12     11.8671  13.0660   0.5956   H         1 RES1   0.0000
    44 C21     11.1481  13.6295  -2.5335   C.ar      1 RES1   0.0000
    45 H13     11.1571  13.2080  -3.3840   H         1 RES1   0.0000
    46 C22     10.6969  14.9210  -2.4076   C.ar      1 RES1   0.0000
    47 H14     10.4183  15.4010  -3.1780   H         1 RES1   0.0000
    48 C23      5.4664  11.7082   5.4627   C.ar      1 RES1   0.0000
    49 H15      4.5387  11.7557   5.6656   H         1 RES1   0.0000
    50 C24      9.8433  13.8449   7.1532   C.ar      1 RES1   0.0000
    51 H16     10.0966  13.1541   6.5516   H         1 RES1   0.0000
    52 C25      6.2607  10.9144   6.2524   C.ar      1 RES1   0.0000
    53 H17      5.8886  10.4327   6.9828   H         1 RES1   0.0000
    54 C26      9.0107  14.5580   9.3030   C.ar      1 RES1   0.0000
    55 H18      8.6675  14.3423  10.1623   H         1 RES1   0.0000
    56 Se1B     7.6074  17.3869   3.2373   Se        1 RES1   0.0000
    57 N1B     -0.0901  12.7263   4.3446   N.ar      1 RES1   0.0000
    58 C1B      6.4128  16.0488   3.1454   C.1       1 RES1   0.0000
    59 N2B      3.0617  14.5335   4.4116   N.ar      1 RES1   0.0000
    60 N3B      3.1259  14.4199   1.6018   N.ar      1 RES1   0.0000
    61 N4B     -0.3971  12.7171   1.9768   N.ar      1 RES1   0.0000
    62 O1B     -1.5272  11.3816   5.5695   O.3       1 RES1   0.0000
    63 C2B      1.7851  14.4284   1.7201   C.ar      1 RES1   0.0000
    64 O2B     -2.1417  11.4609   1.1722   O.3       1 RES1   0.0000
    65 C3B      1.7605  14.6529   4.1440   C.ar      1 RES1   0.0000
    66 N5B      5.6690  15.1844   3.0877   N.2       1 RES1   0.0000
    67 N6B      1.2778  13.9709   2.9743   N.pl3     1 RES1   0.0000
    68 C4B      2.8888  15.5408  -0.5097   C.ar      1 RES1   0.0000
    69 H1B      3.2984  15.9510  -1.2623   H         1 RES1   0.0000
    70 N7B     -1.8408  11.4235   3.3780   N.ar      1 RES1   0.0000
    71 C5B     -0.9696  11.7848   6.7931   C.ar      1 RES1   0.0000
    72 C6B     -1.1112  11.8836   4.3974   C.ar      1 RES1   0.0000
    73 C7B     -0.6602  10.7629   7.6702   C.ar      1 RES1   0.0000
    74 H2B     -0.7711   9.8557   7.4124   H         1 RES1   0.0000
    75 C8B      3.6554  15.0086   0.5112   C.ar      1 RES1   0.0000
    76 H3B      4.6016  15.0595   0.4386   H         1 RES1   0.0000
    77 C9B     -0.1880  11.0816   8.9311   C.ar      1 RES1   0.0000
    78 H4B      0.0252  10.3878   9.5445   H         1 RES1   0.0000
    79 C10B     0.2182  13.1072   3.1040   C.ar      1 RES1   0.0000
    80 C11B     0.8851  15.4353   4.8715   C.ar      1 RES1   0.0000
    81 H5B     -0.0306  15.4927   4.6285   H         1 RES1   0.0000
    82 C12B     0.9385  14.9218   0.7319   C.ar      1 RES1   0.0000
    83 H6B     -0.0054  14.8887   0.8371   H         1 RES1   0.0000
    84 C13B    -2.0680  12.1464  -0.0607   C.ar      1 RES1   0.0000
    85 C14B    -2.6010  14.0151  -1.4179   C.ar      1 RES1   0.0000
    86 H7B     -2.9335  14.9013  -1.5098   H         1 RES1   0.0000
    87 C15B    -0.3615  13.4142   8.4125   C.ar      1 RES1   0.0000
    88 H8B     -0.2534  14.3225   8.6718   H         1 RES1   0.0000
    89 C16B     1.5077  15.4612  -0.4074   C.ar      1 RES1   0.0000
    90 H9B      0.9563  15.7749  -1.1156   H         1 RES1   0.0000
    91 C17B    -1.4150  11.9081   2.2061   C.ar      1 RES1   0.0000
    92 C18B    -1.6609  11.4341  -1.1601   C.ar      1 RES1   0.0000
    93 H10B    -1.3517  10.5405  -1.0682   H         1 RES1   0.0000
    94 C19B     1.3715  16.1362   5.9649   C.ar      1 RES1   0.0000
    95 H11B     0.7927  16.6610   6.5027   H         1 RES1   0.0000
    96 C20B    -2.5668  13.4291  -0.1704   C.ar      1 RES1   0.0000
    97 H12B    -2.8796  13.8965   0.5956   H         1 RES1   0.0000
    98 C21B    -2.1606  13.3330  -2.5335   C.ar      1 RES1   0.0000
    99 H13B    -2.1696  13.7545  -3.3840   H         1 RES1   0.0000
   100 C22B    -1.7094  12.0415  -2.4076   C.ar      1 RES1   0.0000
   101 H14B    -1.4308  11.5615  -3.1780   H         1 RES1   0.0000
   102 C23B     3.5211  15.2543   5.4627   C.ar      1 RES1   0.0000
   103 H15B     4.4488  15.2069   5.6656   H         1 RES1   0.0000
   104 C24B    -0.8558  13.1176   7.1532   C.ar      1 RES1   0.0000
   105 H16B    -1.1091  13.8084   6.5516   H         1 RES1   0.0000
   106 C25B     2.7268  16.0481   6.2524   C.ar      1 RES1   0.0000
   107 H17B     3.0989  16.5298   6.9828   H         1 RES1   0.0000
   108 C26B    -0.0232  12.4045   9.3030   C.ar      1 RES1   0.0000
   109 H18B     0.3200  12.6202  10.1623   H         1 RES1   0.0000
   110 O3      13.4813  13.4813   3.7040   O.3       2 RES2   0.0000
@<TRIPOS>BOND
     1     1     4    2
     2     2     5    1
     3     3    18   ar
     4     4    12    2
     5     5    11   ar
     6     6     2    1
     7     7    25   ar
     8     8    17    1
     9     9     6   ar
    10    10    30    1
    11    11    13    1
    12    12     2    1
    13    13     9    1
    14    14    15    1
    15    16    18   ar
    16    17    19   ar
    17    18     8    1
    18    19    20    1
    19    21     6   ar
    20    22    21    1
    21    23    19   ar
    22    24    23    1
    23    25     3   ar
    24    26    11   ar
    25    27    26    1
    26    28     9   ar
    27    29    28    1
    28    30    38   ar
    29    31    32    1
    30    33    34    1
    31    35    14   ar
    32    36    35    1
    33    37     7   ar
    34    38    39    1
    35    40    26   ar
    36    41    40    1
    37    42    30   ar
    38    43    42    1
    39    44    31   ar
    40    45    44    1
    41    46    38   ar
    42    47    46    1
    43    48     5   ar
    44    49    48    1
    45    50    17   ar
    46    51    50    1
    47    52    40   ar
    48    53    52    1
    49    54    23   ar
    50    55    54    1
    51    56    58    2
    52    57    72   ar
    53    58    66    2
    54    59     2    1
    55    60     2    1
    56    61    79   ar
    57    62    71    1
    58    63    60   ar
    59    64    84    1
    60    65    59   ar
    61    66     2    1
    62    67    63    1
    63    68    69    1
    64    70    72   ar
    65    71    73   ar
    66    72    62    1
    67    73    74    1
    68    75    60   ar
    69    76    75    1
    70    77    73   ar
    71    78    77    1
    72    79    57   ar
    73    80    65   ar
    74    81    80    1
    75    82    63   ar
    76    83    82    1
    77    84    92   ar
    78    85    86    1
    79    87    88    1
    80    89    68   ar
    81    90    89    1
    82    91    61   ar
    83    92    93    1
    84    94    80   ar
    85    95    94    1
    86    96    84   ar
    87    97    96    1
    88    98    85   ar
    89    99    98    1
    90   100    92   ar
    91   101   100    1
    92   102    59   ar
    93   103   102    1
    94   104    71   ar
    95   105   104    1
    96   106    94   ar
    97   107   106    1
    98   108    77   ar
    99   109   108    1
   100    10    37    1
   101    13    25    1
   102    14    21   ar
   103    16    37   ar
   104    28    35   ar
   105    31    42   ar
   106    33    50   ar
   107    33    54   ar
   108    44    46   ar
   109    48    52   ar
   110    64    91    1
   111    65    67    1
   112    67    79    1
   113    68    75   ar
   114    70    91   ar
   115    82    89   ar
   116    85    96   ar
   117    87   104   ar
   118    87   108   ar
   119    98   100   ar
   120   102   106   ar
@<TRIPOS>SUBSTRUCTURE
     1 RES1        1 GROUP             0 ****  ****    0  
     2 RES2      110 GROUP             0 ****  ****    0  
