@<TRIPOS>MOLECULE
WOYCOE
   183   197     2     0     0
SMALL
NO_CHARGES
****
Generated from the CSD

@<TRIPOS>ATOM
     1 Fe1      3.9341   5.6391   7.4998   Fe        1 RES1   0.0000
     2 Se1      7.2819   4.6118   4.0627   Se        1 RES1   0.0000
     3 N1       5.3370   5.1440   6.2168   N.2       1 RES1   0.0000
     4 C1       6.1113   4.9457   5.3799   C.1       1 RES1   0.0000
     5 N2       3.1243   8.6133  13.6676   N.pl3     1 RES1   0.0000
     6 N3       5.3849   5.9012   8.9031   N.ar      1 RES1   0.0000
     7 C2       7.4500   6.2678  10.7488   C.ar      1 RES1   0.0000
     8 H1       8.1415   6.3850  11.3891   H         1 RES1   0.0000
     9 N4       1.5672  11.4005  10.3519   N.pl3     1 RES1   0.0000
    10 C3       6.5006   7.2500  10.5526   C.ar      1 RES1   0.0000
    11 H2       6.5380   8.0603  11.0471   H         1 RES1   0.0000
    12 N5       4.5795   8.0803   9.2961   N.pl3     1 RES1   0.0000
    13 N6       2.3496  10.0530  12.0424   N.ar      1 RES1   0.0000
    14 N7       3.8934   8.2965  11.5019   N.ar      1 RES1   0.0000
    15 N8       3.0266   9.7044   9.7744   N.ar      1 RES1   0.0000
    16 N9       4.2960   7.5874   7.0103   N.ar      1 RES1   0.0000
    17 C4       3.6991   7.3446  14.0898   C.3       1 RES1   0.0000
    18 H3       4.0463   6.8665  13.2956   H         1 RES1   0.0000
    19 H4       2.9893   6.7861  14.4940   H         1 RES1   0.0000
    20 C5       2.5218  12.9381   8.6340   C.ar      1 RES1   0.0000
    21 C6      -0.9423  10.1667  10.9391   C.ar      1 RES1   0.0000
    22 H5      -0.4343   9.8978  10.1832   H         1 RES1   0.0000
    23 C7       4.6823   7.1058  16.4108   C.ar      1 RES1   0.0000
    24 H6       3.8597   6.7328  16.7065   H         1 RES1   0.0000
    25 C8       3.7980   8.7310  10.2459   C.ar      1 RES1   0.0000
    26 C9       4.3588   7.9757   5.7088   C.ar      1 RES1   0.0000
    27 H7       4.2023   7.3259   5.0338   H         1 RES1   0.0000
    28 C10      5.4889   7.0406   9.6220   C.ar      1 RES1   0.0000
    29 C11      2.3659   9.3475  14.6805   C.3       1 RES1   0.0000
    30 H8       2.0775  10.2154  14.3005   H         1 RES1   0.0000
    31 H9       2.9575   9.5366  15.4525   H         1 RES1   0.0000
    32 C12      4.8170   7.5174  15.0870   C.ar      1 RES1   0.0000
    33 C13      1.1485   8.5950  15.1660   C.ar      1 RES1   0.0000
    34 C14      3.6536  13.1598   9.4050   C.ar      1 RES1   0.0000
    35 H10      3.7974  12.6367  10.1847   H         1 RES1   0.0000
    36 C15      1.5285  11.8426   8.9625   C.3       1 RES1   0.0000
    37 H11      0.6164  12.1681   8.7582   H         1 RES1   0.0000
    38 H12      1.7089  11.0654   8.3772   H         1 RES1   0.0000
    39 C16      4.8969   9.8323   7.6306   C.ar      1 RES1   0.0000
    40 H13      5.1050  10.4546   8.3187   H         1 RES1   0.0000
    41 C17      6.0290   8.0816  14.6851   C.ar      1 RES1   0.0000
    42 H14      6.1315   8.3821  13.7905   H         1 RES1   0.0000
    43 C18      4.5671   8.5161   7.9377   C.ar      1 RES1   0.0000
    44 C19      2.3273  13.7242   7.4944   C.ar      1 RES1   0.0000
    45 H15      1.5533  13.5941   6.9583   H         1 RES1   0.0000
    46 C20      0.0917   8.3290  14.3005   C.ar      1 RES1   0.0000
    47 H16      0.1284   8.6327  13.4006   H         1 RES1   0.0000
    48 C21      0.7142  12.0590  11.3254   C.3       1 RES1   0.0000
    49 H17      0.4380  12.9387  10.9646   H         1 RES1   0.0000
    50 H18      1.2382  12.2233  12.1496   H         1 RES1   0.0000
    51 C22      7.3767   5.0985   9.9898   C.ar      1 RES1   0.0000
    52 H19      8.0226   4.4094  10.0947   H         1 RES1   0.0000
    53 C23     -2.0888   9.4585  11.2841   C.ar      1 RES1   0.0000
    54 H20     -2.3602   8.7126  10.7621   H         1 RES1   0.0000
    55 C24      4.9170  10.2147   6.3046   C.ar      1 RES1   0.0000
    56 H21      5.1164  11.1120   6.0628   H         1 RES1   0.0000
    57 C25     -2.4389  10.9355  13.1288   C.ar      1 RES1   0.0000
    58 H22     -2.9545  11.2072  13.8790   H         1 RES1   0.0000
    59 C26      3.1073   8.9923  12.3560   C.ar      1 RES1   0.0000
    60 C27     -0.5318  11.2616  11.6855   C.ar      1 RES1   0.0000
    61 C28      1.0709   8.1450  16.4906   C.ar      1 RES1   0.0000
    62 H23      1.7864   8.3182  17.0904   H         1 RES1   0.0000
    63 C29     -2.8350   9.8388  12.3864   C.ar      1 RES1   0.0000
    64 H24     -3.6126   9.3497  12.6311   H         1 RES1   0.0000
    65 C30     -1.2919  11.6456  12.7880   C.ar      1 RES1   0.0000
    66 H25     -1.0261  12.3948  13.3091   H         1 RES1   0.0000
    67 C31      2.3424  10.3493  10.7345   C.ar      1 RES1   0.0000
    68 C32      6.3455   4.9676   9.0870   C.ar      1 RES1   0.0000
    69 H26      6.3077   4.1759   8.5632   H         1 RES1   0.0000
    70 C33     -1.0174   7.6244  14.7450   C.ar      1 RES1   0.0000
    71 H27     -1.7323   7.4425  14.1460   H         1 RES1   0.0000
    72 C34     -0.0445   7.4447  16.9329   C.ar      1 RES1   0.0000
    73 H28     -0.0929   7.1476  17.8344   H         1 RES1   0.0000
    74 C35      5.7403   7.2343  17.3067   C.ar      1 RES1   0.0000
    75 H29      5.6347   6.9469  18.2064   H         1 RES1   0.0000
    76 C36      4.6388   9.2605   5.3247   C.ar      1 RES1   0.0000
    77 H30      4.6440   9.4981   4.4054   H         1 RES1   0.0000
    78 C37      6.9468   7.7777  16.8965   C.ar      1 RES1   0.0000
    79 H31      7.6694   7.8559  17.5074   H         1 RES1   0.0000
    80 C38      7.0908   8.2088  15.5792   C.ar      1 RES1   0.0000
    81 H32      7.9126   8.5897  15.2905   H         1 RES1   0.0000
    82 C39     -1.0870   7.1822  16.0588   C.ar      1 RES1   0.0000
    83 H33     -1.8490   6.6998  16.3585   H         1 RES1   0.0000
    84 C40      4.5871  14.1389   9.0549   C.ar      1 RES1   0.0000
    85 H34      5.3580  14.2790   9.5922   H         1 RES1   0.0000
    86 C41      3.2558  14.6946   7.1393   C.ar      1 RES1   0.0000
    87 H35      3.1194  15.2165   6.3583   H         1 RES1   0.0000
    88 C42      4.3786  14.9014   7.9206   C.ar      1 RES1   0.0000
    89 H36      5.0081  15.5700   7.6767   H         1 RES1   0.0000
    90 Se1A     0.5863   6.6665  10.9368   Se        1 RES1   0.0000
    91 N1A      2.5312   6.1342   8.7827   N.2       1 RES1   0.0000
    92 C1A      1.7569   6.3326   9.6196   C.1       1 RES1   0.0000
    93 N2A      4.7439   2.6650   1.3320   N.pl3     1 RES1   0.0000
    94 N3A      2.4834   5.3770   6.0964   N.ar      1 RES1   0.0000
    95 C2A      0.4183   5.0105   4.2507   C.ar      1 RES1   0.0000
    96 H1A     -0.2732   4.8933   3.6104   H         1 RES1   0.0000
    97 N4A      6.3011  -0.1222   4.6476   N.pl3     1 RES1   0.0000
    98 C3A      1.3677   4.0283   4.4469   C.ar      1 RES1   0.0000
    99 H2A      1.3302   3.2180   3.9524   H         1 RES1   0.0000
   100 N5A      3.2888   3.1979   5.7034   N.pl3     1 RES1   0.0000
   101 N6A      5.5187   1.2252   2.9572   N.ar      1 RES1   0.0000
   102 N7A      3.9748   2.9818   3.4976   N.ar      1 RES1   0.0000
   103 N8A      4.8416   1.5739   5.2251   N.ar      1 RES1   0.0000
   104 N9A      3.5723   3.6909   7.9892   N.ar      1 RES1   0.0000
   105 C4A      4.1691   3.9337   0.9097   C.3       1 RES1   0.0000
   106 H3A      3.8220   4.4118   1.7039   H         1 RES1   0.0000
   107 H4A      4.8789   4.4922   0.5055   H         1 RES1   0.0000
   108 C5A      5.3465  -1.6598   6.3655   C.ar      1 RES1   0.0000
   109 C6A      8.8105   1.1115   4.0604   C.ar      1 RES1   0.0000
   110 H5A      8.3026   1.3805   4.8163   H         1 RES1   0.0000
   111 C7A      3.1859   4.1725  -1.4113   C.ar      1 RES1   0.0000
   112 H6A      4.0085   4.5455  -1.7069   H         1 RES1   0.0000
   113 C8A      4.0703   2.5473   4.7536   C.ar      1 RES1   0.0000
   114 C9A      3.5095   3.3026   9.2907   C.ar      1 RES1   0.0000
   115 H7A      3.6659   3.9524   9.9657   H         1 RES1   0.0000
   116 C10A     2.3794   4.2377   5.3775   C.ar      1 RES1   0.0000
   117 C11A     5.5023   1.9308   0.3190   C.3       1 RES1   0.0000
   118 H8A      5.7908   1.0628   0.6990   H         1 RES1   0.0000
   119 H9A      4.9108   1.7417  -0.4530   H         1 RES1   0.0000
   120 C12A     3.0513   3.7609  -0.0874   C.ar      1 RES1   0.0000
   121 C13A     6.7198   2.6833  -0.1665   C.ar      1 RES1   0.0000
   122 C14A     4.2147  -1.8815   5.5945   C.ar      1 RES1   0.0000
   123 H10A     4.0709  -1.3584   4.8148   H         1 RES1   0.0000
   124 C15A     6.3397  -0.5643   6.0370   C.3       1 RES1   0.0000
   125 H11A     7.2519  -0.8899   6.2413   H         1 RES1   0.0000
   126 H12A     6.1594   0.2129   6.6223   H         1 RES1   0.0000
   127 C16A     2.9714   1.4460   7.3690   C.ar      1 RES1   0.0000
   128 H13A     2.7633   0.8237   6.6808   H         1 RES1   0.0000
   129 C17A     1.8392   3.1967   0.3144   C.ar      1 RES1   0.0000
   130 H14A     1.7368   2.8961   1.2090   H         1 RES1   0.0000
   131 C18A     3.3011   2.7622   7.0618   C.ar      1 RES1   0.0000
   132 C19A     5.5409  -2.4459   7.5052   C.ar      1 RES1   0.0000
   133 H15A     6.3149  -2.3158   8.0412   H         1 RES1   0.0000
   134 C20A     7.7766   2.9493   0.6990   C.ar      1 RES1   0.0000
   135 H16A     7.7398   2.6456   1.5989   H         1 RES1   0.0000
   136 C21A     7.1541  -0.7807   3.6741   C.3       1 RES1   0.0000
   137 H17A     7.4303  -1.6604   4.0349   H         1 RES1   0.0000
   138 H18A     6.6301  -0.9450   2.8499   H         1 RES1   0.0000
   139 C22A     0.4915   6.1798   5.0097   C.ar      1 RES1   0.0000
   140 H19A    -0.1544   6.8689   4.9048   H         1 RES1   0.0000
   141 C23A     9.9571   1.8198   3.7154   C.ar      1 RES1   0.0000
   142 H20A    10.2284   2.5657   4.2374   H         1 RES1   0.0000
   143 C24A     2.9512   1.0636   8.6949   C.ar      1 RES1   0.0000
   144 H21A     2.7518   0.1663   8.9367   H         1 RES1   0.0000
   145 C25A    10.3072   0.3428   1.8707   C.ar      1 RES1   0.0000
   146 H22A    10.8228   0.0711   1.1205   H         1 RES1   0.0000
   147 C26A     4.7610   2.2860   2.6435   C.ar      1 RES1   0.0000
   148 C27A     8.4001   0.0167   3.3140   C.ar      1 RES1   0.0000
   149 C28A     6.7973   3.1333  -1.4911   C.ar      1 RES1   0.0000
   150 H23A     6.0818   2.9601  -2.0909   H         1 RES1   0.0000
   151 C29A    10.7033   1.4395   2.6131   C.ar      1 RES1   0.0000
   152 H24A    11.4809   1.9286   2.3684   H         1 RES1   0.0000
   153 C30A     9.1601  -0.3674   2.2115   C.ar      1 RES1   0.0000
   154 H25A     8.8943  -1.1165   1.6904   H         1 RES1   0.0000
   155 C31A     5.5258   0.9290   4.2650   C.ar      1 RES1   0.0000
   156 C32A     1.5227   6.3107   5.9125   C.ar      1 RES1   0.0000
   157 H26A     1.5605   7.1024   6.4363   H         1 RES1   0.0000
   158 C33A     8.8856   3.6539   0.2545   C.ar      1 RES1   0.0000
   159 H27A     9.6005   3.8358   0.8535   H         1 RES1   0.0000
   160 C34A     7.9127   3.8335  -1.9334   C.ar      1 RES1   0.0000
   161 H28A     7.9612   4.1307  -2.8349   H         1 RES1   0.0000
   162 C35A     2.1279   4.0440  -2.3072   C.ar      1 RES1   0.0000
   163 H29A     2.2336   4.3313  -3.2069   H         1 RES1   0.0000
   164 C36A     3.2295   2.0178   9.6748   C.ar      1 RES1   0.0000
   165 H30A     3.2243   1.7802  10.5942   H         1 RES1   0.0000
   166 C37A     0.9214   3.5006  -1.8970   C.ar      1 RES1   0.0000
   167 H31A     0.1989   3.4224  -2.5079   H         1 RES1   0.0000
   168 C38A     0.7774   3.0695  -0.5797   C.ar      1 RES1   0.0000
   169 H32A    -0.0443   2.6886  -0.2910   H         1 RES1   0.0000
   170 C39A     8.9552   4.0960  -1.0593   C.ar      1 RES1   0.0000
   171 H33A     9.7172   4.5785  -1.3590   H         1 RES1   0.0000
   172 C40A     3.2811  -2.8607   5.9446   C.ar      1 RES1   0.0000
   173 H34A     2.5103  -3.0007   5.4073   H         1 RES1   0.0000
   174 C41A     4.6124  -3.4163   7.8602   C.ar      1 RES1   0.0000
   175 H35A     4.7488  -3.9382   8.6412   H         1 RES1   0.0000
   176 C42A     3.4896  -3.6231   7.0789   C.ar      1 RES1   0.0000
   177 H36A     2.8601  -4.2917   7.3228   H         1 RES1   0.0000
   178 C43      7.4912  10.9698   2.9881   C.1       2 RES2   0.0000
   179 C44      7.8619  10.5980   1.6309   C.3       2 RES2   0.0000
   180 H37      8.8315  10.4635   1.5824   H         2 RES2   0.0000
   181 H38      7.6002  11.3118   1.0125   H         2 RES2   0.0000
   182 H39      7.4042   9.7674   1.3830   H         2 RES2   0.0000
   183 N10      7.2081  11.2899   4.0400   N.1       2 RES2   0.0000
@<TRIPOS>BOND
     1     1     3    1
     2     2     4    2
     3     3     4    2
     4     5    17    1
     5     6     1    1
     6     7     8    1
     7     9    36    1
     8    10     7   ar
     9    11    10    1
    10    12    25    1
    11    13    59   ar
    12    14    25   ar
    13    15    25   ar
    14    16     1    1
    15    17    18    1
    16    19    17    1
    17    20    34   ar
    18    21    22    1
    19    23    24    1
    20    26    16   ar
    21    27    26    1
    22    28     6   ar
    23    29     5    1
    24    30    29    1
    25    31    29    1
    26    32    17    1
    27    33    29    1
    28    34    35    1
    29    36    20    1
    30    37    36    1
    31    38    36    1
    32    39    40    1
    33    41    32   ar
    34    42    41    1
    35    43    12    1
    36    44    20   ar
    37    45    44    1
    38    46    33   ar
    39    47    46    1
    40    48     9    1
    41    49    48    1
    42    50    48    1
    43    51     7   ar
    44    52    51    1
    45    53    21   ar
    46    54    53    1
    47    55    39   ar
    48    56    55    1
    49    57    58    1
    50    59     5    1
    51    60    21   ar
    52    61    33   ar
    53    62    61    1
    54    63    53   ar
    55    64    63    1
    56    65    57   ar
    57    66    65    1
    58    67     9    1
    59    68     6   ar
    60    69    68    1
    61    70    46   ar
    62    71    70    1
    63    72    61   ar
    64    73    72    1
    65    74    23   ar
    66    75    74    1
    67    76    26   ar
    68    77    76    1
    69    78    74   ar
    70    79    78    1
    71    80    41   ar
    72    81    80    1
    73    82    70   ar
    74    83    82    1
    75    84    34   ar
    76    85    84    1
    77    86    44   ar
    78    87    86    1
    79    88    84   ar
    80    89    88    1
    81    90    92    2
    82    91     1    1
    83    92    91    2
    84    93   105    1
    85    94     1    1
    86    95    96    1
    87    97   124    1
    88    98    95   ar
    89    99    98    1
    90   100   113    1
    91   101   147   ar
    92   102   113   ar
    93   103   113   ar
    94   104     1    1
    95   105   106    1
    96   107   105    1
    97   108   122   ar
    98   109   110    1
    99   111   112    1
   100   114   104   ar
   101   115   114    1
   102   116    94   ar
   103   117    93    1
   104   118   117    1
   105   119   117    1
   106   120   105    1
   107   121   117    1
   108   122   123    1
   109   124   108    1
   110   125   124    1
   111   126   124    1
   112   127   128    1
   113   129   120   ar
   114   130   129    1
   115   131   100    1
   116   132   108   ar
   117   133   132    1
   118   134   121   ar
   119   135   134    1
   120   136    97    1
   121   137   136    1
   122   138   136    1
   123   139    95   ar
   124   140   139    1
   125   141   109   ar
   126   142   141    1
   127   143   127   ar
   128   144   143    1
   129   145   146    1
   130   147    93    1
   131   148   109   ar
   132   149   121   ar
   133   150   149    1
   134   151   141   ar
   135   152   151    1
   136   153   145   ar
   137   154   153    1
   138   155    97    1
   139   156    94   ar
   140   157   156    1
   141   158   134   ar
   142   159   158    1
   143   160   149   ar
   144   161   160    1
   145   162   111   ar
   146   163   162    1
   147   164   114   ar
   148   165   164    1
   149   166   162   ar
   150   167   166    1
   151   168   129   ar
   152   169   168    1
   153   170   158   ar
   154   171   170    1
   155   172   122   ar
   156   173   172    1
   157   174   132   ar
   158   175   174    1
   159   176   172   ar
   160   177   176    1
   161    10    28   ar
   162    12    28    1
   163    13    67   ar
   164    14    59   ar
   165    15    67   ar
   166    16    43   ar
   167    23    32   ar
   168    39    43   ar
   169    48    60    1
   170    51    68   ar
   171    55    76   ar
   172    57    63   ar
   173    60    65   ar
   174    72    82   ar
   175    78    80   ar
   176    86    88   ar
   177    98   116   ar
   178   100   116    1
   179   101   155   ar
   180   102   147   ar
   181   103   155   ar
   182   104   131   ar
   183   111   120   ar
   184   127   131   ar
   185   136   148    1
   186   139   156   ar
   187   143   164   ar
   188   145   151   ar
   189   148   153   ar
   190   160   170   ar
   191   166   168   ar
   192   174   176   ar
   193   178   179    1
   194   179   180    1
   195   181   179    1
   196   182   179    1
   197   183   178    3
@<TRIPOS>SUBSTRUCTURE
     1 RES1        1 GROUP             0 ****  ****    0  
     2 RES2      178 GROUP             0 ****  ****    0  
@<TRIPOS>CRYSIN
   11.6341   12.1539   15.2232   84.6300   80.2490   64.1990     2     1
