@<TRIPOS>MOLECULE
WOYCIY
   113   124     1     0     0
SMALL
NO_CHARGES
****
Generated from the CSD

@<TRIPOS>ATOM
     1 Se1      2.0456   2.4426   3.6774   Se        1 RES1   0.0000
     2 Fe1      4.1650   0.0000   0.0000   Fe        1 RES1   0.0000
     3 O1       5.6746   4.8626   3.8552   O.3       1 RES1   0.0000
     4 N1       3.4600   1.0763   1.4648   N.2       1 RES1   0.0000
     5 C1       2.9168   1.6176   2.3276   C.1       1 RES1   0.0000
     6 O2       4.9820   1.2159   6.5651   O.3       1 RES1   0.0000
     7 N2       5.8476   1.0455  -0.0999   N.ar      1 RES1   0.0000
     8 C2       6.2935   1.5521  -1.2744   C.ar      1 RES1   0.0000
     9 H1       5.7841   1.3914  -2.0593   H         1 RES1   0.0000
    10 N3       5.1068  -1.1995   1.2746   N.ar      1 RES1   0.0000
    11 C3       7.4524   2.2905  -1.3823   C.ar      1 RES1   0.0000
    12 H2       7.7039   2.6766  -2.2124   H         1 RES1   0.0000
    13 N4       6.1731   0.6708   2.2076   N.pl3     1 RES1   0.0000
    14 C4       8.2482   2.4609  -0.2542   C.ar      1 RES1   0.0000
    15 H3       9.0586   2.9534  -0.3044   H         1 RES1   0.0000
    16 N5       5.9821   2.8109   3.0497   N.ar      1 RES1   0.0000
    17 C5       7.8402   1.9009   0.9416   C.ar      1 RES1   0.0000
    18 H4       8.3803   1.9711   1.7194   H         1 RES1   0.0000
    19 N6       5.5703   0.9111   4.4348   N.ar      1 RES1   0.0000
    20 C6       6.6241   1.2340   0.9793   C.ar      1 RES1   0.0000
    21 N7       5.3531   3.1169   5.3308   N.ar      1 RES1   0.0000
    22 C7       5.9053  -0.7207   2.2462   C.ar      1 RES1   0.0000
    23 N8       2.8348   9.7923   7.4433   N.1       1 RES1   0.0000
    24 C8       6.4907  -1.5297   3.2141   C.ar      1 RES1   0.0000
    25 H5       7.0526  -1.1549   3.8819   H         1 RES1   0.0000
    26 N9       2.5765   4.7266  11.7732   N.1       1 RES1   0.0000
    27 C9       6.2397  -2.8901   3.1864   C.ar      1 RES1   0.0000
    28 H6       6.6008  -3.4629   3.8535   H         1 RES1   0.0000
    29 C10      5.4493  -3.4037   2.1633   C.ar      1 RES1   0.0000
    30 H7       5.2754  -4.3357   2.1109   H         1 RES1   0.0000
    31 C11      4.9234  -2.5408   1.2260   C.ar      1 RES1   0.0000
    32 H8       4.4089  -2.9031   0.5144   H         1 RES1   0.0000
    33 C12      5.9136   1.4972   3.2837   C.ar      1 RES1   0.0000
    34 C13      5.6581   3.5380   4.1067   C.ar      1 RES1   0.0000
    35 C14      5.3173   1.7900   5.4000   C.ar      1 RES1   0.0000
    36 C15      5.0799   5.7806   4.7151   C.ar      1 RES1   0.0000
    37 C16      5.7686   6.9780   4.8591   C.ar      1 RES1   0.0000
    38 H9       6.6287   7.0890   4.4711   H         1 RES1   0.0000
    39 C17      5.1800   8.0118   5.5780   C.ar      1 RES1   0.0000
    40 H10      5.6330   8.8410   5.6761   H         1 RES1   0.0000
    41 C18      3.9259   7.8300   6.1538   C.ar      1 RES1   0.0000
    42 C19      3.2559   6.6103   6.0141   C.ar      1 RES1   0.0000
    43 H11      2.4064   6.4884   6.4218   H         1 RES1   0.0000
    44 C20      3.8268   5.5759   5.2832   C.ar      1 RES1   0.0000
    45 H12      3.3720   4.7492   5.1741   H         1 RES1   0.0000
    46 C21      3.3097   8.9197   6.8773   C.1       1 RES1   0.0000
    47 C22      4.5244   2.0414   7.5994   C.ar      1 RES1   0.0000
    48 C23      5.4130   2.4168   8.5949   C.ar      1 RES1   0.0000
    49 H13      6.3313   2.1799   8.5417   H         1 RES1   0.0000
    50 C24      4.9260   3.1491   9.6733   C.ar      1 RES1   0.0000
    51 H14      5.5189   3.4384  10.3572   H         1 RES1   0.0000
    52 C25      3.5660   3.4592   9.7504   C.ar      1 RES1   0.0000
    53 C26      2.6955   3.0631   8.7318   C.ar      1 RES1   0.0000
    54 H15      1.7701   3.2701   8.7891   H         1 RES1   0.0000
    55 C27      3.1833   2.3693   7.6398   C.ar      1 RES1   0.0000
    56 H16      2.6053   2.1211   6.9273   H         1 RES1   0.0000
    57 C28      3.0414   4.1754  10.8927   C.1       1 RES1   0.0000
    58 Se1A     6.2844  -2.4426  -3.6774   Se        1 RES1   0.0000
    59 O1A      2.6554  -4.8626  -3.8552   O.3       1 RES1   0.0000
    60 N1A      4.8700  -1.0763  -1.4648   N.2       1 RES1   0.0000
    61 C1A      5.4132  -1.6176  -2.3276   C.1       1 RES1   0.0000
    62 O2A      3.3480  -1.2159  -6.5651   O.3       1 RES1   0.0000
    63 N2A      2.4824  -1.0455   0.0999   N.ar      1 RES1   0.0000
    64 C2A      2.0365  -1.5521   1.2744   C.ar      1 RES1   0.0000
    65 H1A      2.5459  -1.3914   2.0593   H         1 RES1   0.0000
    66 N3A      3.2232   1.1995  -1.2746   N.ar      1 RES1   0.0000
    67 C3A      0.8776  -2.2905   1.3823   C.ar      1 RES1   0.0000
    68 H2A      0.6261  -2.6766   2.2124   H         1 RES1   0.0000
    69 N4A      2.1569  -0.6708  -2.2076   N.pl3     1 RES1   0.0000
    70 C4A      0.0818  -2.4609   0.2542   C.ar      1 RES1   0.0000
    71 H3A     -0.7286  -2.9534   0.3044   H         1 RES1   0.0000
    72 N5A      2.3479  -2.8109  -3.0497   N.ar      1 RES1   0.0000
    73 C5A      0.4898  -1.9009  -0.9416   C.ar      1 RES1   0.0000
    74 H4A     -0.0503  -1.9711  -1.7194   H         1 RES1   0.0000
    75 N6A      2.7597  -0.9111  -4.4348   N.ar      1 RES1   0.0000
    76 C6A      1.7059  -1.2340  -0.9793   C.ar      1 RES1   0.0000
    77 N7A      2.9769  -3.1169  -5.3308   N.ar      1 RES1   0.0000
    78 C7A      2.4247   0.7207  -2.2462   C.ar      1 RES1   0.0000
    79 N8A      5.4952  -9.7923  -7.4433   N.1       1 RES1   0.0000
    80 C8A      1.8393   1.5297  -3.2141   C.ar      1 RES1   0.0000
    81 H5A      1.2774   1.1549  -3.8819   H         1 RES1   0.0000
    82 N9A      5.7535  -4.7266 -11.7732   N.1       1 RES1   0.0000
    83 C9A      2.0903   2.8901  -3.1864   C.ar      1 RES1   0.0000
    84 H6A      1.7292   3.4629  -3.8535   H         1 RES1   0.0000
    85 C10A     2.8807   3.4037  -2.1633   C.ar      1 RES1   0.0000
    86 H7A      3.0546   4.3357  -2.1109   H         1 RES1   0.0000
    87 C11A     3.4066   2.5408  -1.2260   C.ar      1 RES1   0.0000
    88 H8A      3.9211   2.9031  -0.5144   H         1 RES1   0.0000
    89 C12A     2.4164  -1.4972  -3.2837   C.ar      1 RES1   0.0000
    90 C13A     2.6719  -3.5380  -4.1067   C.ar      1 RES1   0.0000
    91 C14A     3.0127  -1.7900  -5.4000   C.ar      1 RES1   0.0000
    92 C15A     3.2501  -5.7806  -4.7151   C.ar      1 RES1   0.0000
    93 C16A     2.5614  -6.9780  -4.8591   C.ar      1 RES1   0.0000
    94 H9A      1.7013  -7.0890  -4.4711   H         1 RES1   0.0000
    95 C17A     3.1500  -8.0118  -5.5780   C.ar      1 RES1   0.0000
    96 H10A     2.6970  -8.8410  -5.6761   H         1 RES1   0.0000
    97 C18A     4.4041  -7.8300  -6.1538   C.ar      1 RES1   0.0000
    98 C19A     5.0741  -6.6103  -6.0141   C.ar      1 RES1   0.0000
    99 H11A     5.9236  -6.4884  -6.4218   H         1 RES1   0.0000
   100 C20A     4.5032  -5.5759  -5.2832   C.ar      1 RES1   0.0000
   101 H12A     4.9580  -4.7492  -5.1741   H         1 RES1   0.0000
   102 C21A     5.0203  -8.9197  -6.8773   C.1       1 RES1   0.0000
   103 C22A     3.8056  -2.0414  -7.5994   C.ar      1 RES1   0.0000
   104 C23A     2.9170  -2.4168  -8.5949   C.ar      1 RES1   0.0000
   105 H13A     1.9987  -2.1799  -8.5417   H         1 RES1   0.0000
   106 C24A     3.4040  -3.1491  -9.6733   C.ar      1 RES1   0.0000
   107 H14A     2.8111  -3.4384 -10.3572   H         1 RES1   0.0000
   108 C25A     4.7640  -3.4592  -9.7504   C.ar      1 RES1   0.0000
   109 C26A     5.6345  -3.0631  -8.7318   C.ar      1 RES1   0.0000
   110 H15A     6.5599  -3.2701  -8.7891   H         1 RES1   0.0000
   111 C27A     5.1467  -2.3693  -7.6398   C.ar      1 RES1   0.0000
   112 H16A     5.7247  -2.1211  -6.9273   H         1 RES1   0.0000
   113 C28A     5.2886  -4.1754 -10.8927   C.1       1 RES1   0.0000
@<TRIPOS>BOND
     1     1     5    2
     2     2     4    1
     3     3    34    1
     4     4     5    2
     5     6    35    1
     6     7     2    1
     7     8     7   ar
     8     9     8    1
     9    10     2    1
    10    11     8   ar
    11    12    11    1
    12    13    20    1
    13    14    11   ar
    14    15    14    1
    15    16    33   ar
    16    17    14   ar
    17    18    17    1
    18    19    33   ar
    19    20     7   ar
    20    21    34   ar
    21    22    10   ar
    22    23    46    3
    23    24    22   ar
    24    25    24    1
    25    26    57    3
    26    27    24   ar
    27    28    27    1
    28    29    27   ar
    29    30    29    1
    30    31    10   ar
    31    32    31    1
    32    33    13    1
    33    34    16   ar
    34    35    19   ar
    35    36     3    1
    36    37    36   ar
    37    38    37    1
    38    39    37   ar
    39    40    39    1
    40    41    39   ar
    41    42    41   ar
    42    43    42    1
    43    44    36   ar
    44    45    44    1
    45    46    41    1
    46    47     6    1
    47    48    47   ar
    48    49    48    1
    49    50    48   ar
    50    51    50    1
    51    52    50   ar
    52    53    52   ar
    53    54    53    1
    54    55    47   ar
    55    56    55    1
    56    57    52    1
    57    58    61    2
    58    59    90    1
    59    60     2    1
    60    61    60    2
    61    62    91    1
    62    63     2    1
    63    64    63   ar
    64    65    64    1
    65    66     2    1
    66    67    64   ar
    67    68    67    1
    68    69    76    1
    69    70    67   ar
    70    71    70    1
    71    72    89   ar
    72    73    70   ar
    73    74    73    1
    74    75    89   ar
    75    76    63   ar
    76    77    90   ar
    77    78    66   ar
    78    79   102    3
    79    80    78   ar
    80    81    80    1
    81    82   113    3
    82    83    80   ar
    83    84    83    1
    84    85    83   ar
    85    86    85    1
    86    87    66   ar
    87    88    87    1
    88    89    69    1
    89    90    72   ar
    90    91    75   ar
    91    92    59    1
    92    93    92   ar
    93    94    93    1
    94    95    93   ar
    95    96    95    1
    96    97    95   ar
    97    98    97   ar
    98    99    98    1
    99   100    92   ar
   100   101   100    1
   101   102    97    1
   102   103    62    1
   103   104   103   ar
   104   105   104    1
   105   106   104   ar
   106   107   106    1
   107   108   106   ar
   108   109   108   ar
   109   110   109    1
   110   111   103   ar
   111   112   111    1
   112   113   108    1
   113    13    22    1
   114    17    20   ar
   115    21    35   ar
   116    29    31   ar
   117    42    44   ar
   118    53    55   ar
   119    69    78    1
   120    73    76   ar
   121    77    91   ar
   122    85    87   ar
   123    98   100   ar
   124   109   111   ar
@<TRIPOS>SUBSTRUCTURE
     1 RES1        1 GROUP             0 ****  ****    0  
@<TRIPOS>CRYSIN
    8.3300    9.2400   17.8000   89.3800   89.6200   72.0000     2     1
