@<TRIPOS>MOLECULE
WOYDOF
    94   102     2     0     0
SMALL
NO_CHARGES
****
Generated from the CSD

@<TRIPOS>ATOM
     1 Fe1      6.1973  -4.9519   5.7693   Fe        1 RES1   0.0000
     2 N1       5.4493  -6.5733   7.1066   N.ar      1 RES1   0.0000
     3 C1       4.3659  -8.6055   8.6781   C.ar      1 RES1   0.0000
     4 H1       4.0030  -9.2974   9.2181   H         1 RES1   0.0000
     5 C2       5.2534  -8.9039   7.6535   C.ar      1 RES1   0.0000
     6 H2       5.5062  -9.8024   7.4793   H         1 RES1   0.0000
     7 C3       4.0168  -7.2848   8.9014   C.ar      1 RES1   0.0000
     8 H3       3.4029  -7.0503   9.5874   H         1 RES1   0.0000
     9 C4       5.7624  -7.8691   6.8920   C.ar      1 RES1   0.0000
    10 H4       6.3610  -8.0789   6.1847   H         1 RES1   0.0000
    11 C5       4.5893  -6.3146   8.0951   C.ar      1 RES1   0.0000
    12 N2       5.4165  -4.9361  10.2750   N.ar      1 RES1   0.0000
    13 C6       2.7748   0.2891   7.8497   C.ar      1 RES1   0.0000
    14 H5       2.9226   0.3749   6.9150   H         1 RES1   0.0000
    15 C7       2.2456  -3.7546   7.4439   C.ar      1 RES1   0.0000
    16 H6       1.8065  -3.8713   8.2778   H         1 RES1   0.0000
    17 N3       4.2211  -4.9355   8.2863   N.pl3     1 RES1   0.0000
    18 N4       4.2018  -3.0076   9.5440   N.ar      1 RES1   0.0000
    19 C8       1.6181   0.8176   8.4220   C.ar      1 RES1   0.0000
    20 N5       4.1774  -4.1380   6.0718   N.ar      1 RES1   0.0000
    21 C9       4.6246  -4.2756   9.4121   C.ar      1 RES1   0.0000
    22 C10      3.4497  -0.4878   9.9947   C.ar      1 RES1   0.0000
    23 C11      3.5268  -4.2469   7.2378   C.ar      1 RES1   0.0000
    24 C12      3.7074  -0.3605   8.6389   C.ar      1 RES1   0.0000
    25 H7       4.5054  -0.7107   8.2604   H         1 RES1   0.0000
    26 C13      1.4014   0.7142   9.7939   C.ar      1 RES1   0.0000
    27 H8       0.6251   1.0974  10.1851   H         1 RES1   0.0000
    28 Cl1      6.8677  -4.9543  12.4128   Cl        1 RES1   0.0000
    29 C14      1.6257  -3.0895   6.4016   C.ar      1 RES1   0.0000
    30 H9       0.7604  -2.7140   6.5181   H         1 RES1   0.0000
    31 N6       5.5040  -6.0962   4.1555   N.2       1 RES1   0.0000
    32 C15      4.6999  -2.4044  10.6102   C.ar      1 RES1   0.0000
    33 N7       5.5126  -2.9114  11.5381   N.ar      1 RES1   0.0000
    34 C16      3.5406  -3.5306   5.0572   C.ar      1 RES1   0.0000
    35 H10      3.9764  -3.4783   4.2150   H         1 RES1   0.0000
    36 C17      2.2793  -2.9772   5.1820   C.ar      1 RES1   0.0000
    37 H11      1.8689  -2.5311   4.4493   H         1 RES1   0.0000
    38 C18      5.2887  -7.1188   3.6350   C.1       1 RES1   0.0000
    39 C19      5.8192  -4.1843  11.2815   C.ar      1 RES1   0.0000
    40 S1       4.9806  -8.5478   2.9248   S.2       1 RES1   0.0000
    41 O1       4.3530  -1.1265  10.8579   O.3       1 RES1   0.0000
    42 C20      0.6368   1.4423   7.5751   C.1       1 RES1   0.0000
    43 N8      -0.1326   1.9259   6.8735   N.1       1 RES1   0.0000
    44 C21      2.3196   0.0497  10.5832   C.ar      1 RES1   0.0000
    45 H12      2.1774  -0.0357  11.5189   H         1 RES1   0.0000
    46 N1A      6.9452  -3.3306   4.4320   N.ar      1 RES1   0.0000
    47 C1A      8.0287  -1.2983   2.8604   C.ar      1 RES1   0.0000
    48 H1A      8.3915  -0.6065   2.3204   H         1 RES1   0.0000
    49 C2A      7.1411  -0.9999   3.8850   C.ar      1 RES1   0.0000
    50 H2A      6.8883  -0.1015   4.0593   H         1 RES1   0.0000
    51 C3A      8.3778  -2.6190   2.6371   C.ar      1 RES1   0.0000
    52 H3A      8.9917  -2.8535   1.9512   H         1 RES1   0.0000
    53 C4A      6.6322  -2.0348   4.6466   C.ar      1 RES1   0.0000
    54 H4A      6.0336  -1.8250   5.3539   H         1 RES1   0.0000
    55 C5A      7.8053  -3.5892   3.4434   C.ar      1 RES1   0.0000
    56 N2A      6.9780  -4.9677   1.2636   N.ar      1 RES1   0.0000
    57 C6A      9.6197 -10.1929   3.6889   C.ar      1 RES1   0.0000
    58 H5A      9.4719 -10.2787   4.6235   H         1 RES1   0.0000
    59 C7A     10.1489  -6.1493   4.0947   C.ar      1 RES1   0.0000
    60 H6A     10.5880  -6.0325   3.2608   H         1 RES1   0.0000
    61 N3A      8.1734  -4.9683   3.2523   N.pl3     1 RES1   0.0000
    62 N4A      8.1927  -6.8962   1.9946   N.ar      1 RES1   0.0000
    63 C8A     10.7764 -10.7214   3.1166   C.ar      1 RES1   0.0000
    64 N5A      8.2171  -5.7658   5.4667   N.ar      1 RES1   0.0000
    65 C9A      7.7699  -5.6282   2.1264   C.ar      1 RES1   0.0000
    66 C10A     8.9448  -9.4160   1.5439   C.ar      1 RES1   0.0000
    67 C11A     8.8677  -5.6569   4.3008   C.ar      1 RES1   0.0000
    68 C12A     8.6871  -9.5433   2.8996   C.ar      1 RES1   0.0000
    69 H7A      7.8892  -9.1932   3.2781   H         1 RES1   0.0000
    70 C13A    10.9932 -10.6180   1.7446   C.ar      1 RES1   0.0000
    71 H8A     11.7695 -11.0013   1.3535   H         1 RES1   0.0000
    72 Cl1A     5.5268  -4.9496  -0.8743   Cl        1 RES1   0.0000
    73 C14A    10.7689  -6.8144   5.1370   C.ar      1 RES1   0.0000
    74 H9A     11.6342  -7.1898   5.0204   H         1 RES1   0.0000
    75 N6A      6.8906  -3.8077   7.3831   N.2       1 RES1   0.0000
    76 C15A     7.6946  -7.4995   0.9284   C.ar      1 RES1   0.0000
    77 N7A      6.8820  -6.9925   0.0005   N.ar      1 RES1   0.0000
    78 C16A     8.8540  -6.3732   6.4813   C.ar      1 RES1   0.0000
    79 H10A     8.4182  -6.4255   7.3235   H         1 RES1   0.0000
    80 C17A    10.1153  -6.9266   6.3566   C.ar      1 RES1   0.0000
    81 H11A    10.5256  -7.3728   7.0893   H         1 RES1   0.0000
    82 C18A     7.1058  -2.7850   7.9036   C.1       1 RES1   0.0000
    83 C19A     6.5754  -5.7195   0.2571   C.ar      1 RES1   0.0000
    84 S1A      7.4139  -1.3561   8.6138   S.2       1 RES1   0.0000
    85 O1A      8.0416  -8.7774   0.6807   O.3       1 RES1   0.0000
    86 C20A    11.7578 -11.3461   3.9635   C.1       1 RES1   0.0000
    87 N8A     12.5272 -11.8298   4.6650   N.1       1 RES1   0.0000
    88 C21A    10.0749  -9.9535   0.9554   C.ar      1 RES1   0.0000
    89 H12A    10.2171  -9.8681   0.0196   H         1 RES1   0.0000
    90 O2       6.7740  -0.9775  13.4250   O.3       2 RES2   0.0000
    91 C22      8.0636  -0.6205  13.0270   C.3       2 RES2   0.0000
    92 H13      8.3801   0.1269  13.5774   H         2 RES2   0.0000
    93 H14      8.0527  -0.3508  12.0855   H         2 RES2   0.0000
    94 H15      8.6646  -1.3860  13.1412   H         2 RES2   0.0000
@<TRIPOS>BOND
     1     1     2    1
     2     2     9   ar
     3     3     4    1
     4     5     3   ar
     5     6     5    1
     6     7     3   ar
     7     8     7    1
     8     9     5   ar
     9    10     9    1
    10    11     2   ar
    11    12    21   ar
    12    13    14    1
    13    15    16    1
    14    17    11    1
    15    18    21   ar
    16    19    13   ar
    17    20     1    1
    18    21    17    1
    19    22    24   ar
    20    23    15   ar
    21    24    13   ar
    22    25    24    1
    23    26    19   ar
    24    27    26    1
    25    28    39    1
    26    29    15   ar
    27    30    29    1
    28    31     1    1
    29    32    18   ar
    30    33    32   ar
    31    34    20   ar
    32    35    34    1
    33    36    29   ar
    34    37    36    1
    35    38    31    2
    36    39    12   ar
    37    40    38    2
    38    41    22    1
    39    42    19    1
    40    43    42    3
    41    44    22   ar
    42    45    44    1
    43    46     1    1
    44    47    48    1
    45    49    47   ar
    46    50    49    1
    47    51    47   ar
    48    52    51    1
    49    53    46   ar
    50    54    53    1
    51    55    46   ar
    52    56    65   ar
    53    57    58    1
    54    59    60    1
    55    61    55    1
    56    62    65   ar
    57    63    57   ar
    58    64     1    1
    59    65    61    1
    60    66    68   ar
    61    67    59   ar
    62    68    57   ar
    63    69    68    1
    64    70    63   ar
    65    71    70    1
    66    72    83    1
    67    73    59   ar
    68    74    73    1
    69    75     1    1
    70    76    62   ar
    71    77    76   ar
    72    78    64   ar
    73    79    78    1
    74    80    73   ar
    75    81    80    1
    76    82    75    2
    77    83    56   ar
    78    84    82    2
    79    85    66    1
    80    86    63    1
    81    87    86    3
    82    88    66   ar
    83    89    88    1
    84     7    11   ar
    85    17    23    1
    86    20    23   ar
    87    26    44   ar
    88    32    41    1
    89    33    39   ar
    90    34    36   ar
    91    49    53   ar
    92    51    55   ar
    93    61    67    1
    94    64    67   ar
    95    70    88   ar
    96    76    85    1
    97    77    83   ar
    98    78    80   ar
    99    90    91    1
   100    91    92    1
   101    93    91    1
   102    94    91    1
@<TRIPOS>SUBSTRUCTURE
     1 RES1        1 GROUP             0 ****  ****    0  
     2 RES2       90 GROUP             0 ****  ****    0  
@<TRIPOS>CRYSIN
    8.7730   11.7320   12.3100   81.0700   71.6200   88.7300     2     1
