@<TRIPOS>MOLECULE
WUCLAJ10
    91   104     2     0     0
SMALL
NO_CHARGES
****
Generated from the CSD

@<TRIPOS>ATOM
     1 Fe1     -1.8333   3.6127   3.2562   Fe        1 RES1   0.0000
     2 N1      -3.7637   4.1640   0.9684   N.ar      1 RES1   0.0000
     3 N2      -2.5440   3.6696   1.3211   N.ar      1 RES1   0.0000
     4 N3      -4.3455   5.3417   3.1180   N.ar      1 RES1   0.0000
     5 N4      -3.1743   5.0679   3.7755   N.ar      1 RES1   0.0000
     6 N5      -3.0142   2.0325   3.8364   N.ar      1 RES1   0.0000
     7 N6      -3.0911  -2.8013   3.8902   N.ar      1 RES1   0.0000
     8 C1      -1.8776   3.4721   0.1732   C.ar      1 RES1   0.0000
     9 H1      -0.9941   3.1307   0.1185   H         1 RES1   0.0000
    10 C2      -2.6471   3.8315  -0.9209   C.ar      1 RES1   0.0000
    11 H2      -2.4120   3.7871  -1.8391   H         1 RES1   0.0000
    12 C3      -3.8308   4.2659  -0.3738   C.ar      1 RES1   0.0000
    13 H3      -4.5768   4.5878  -0.8648   H         1 RES1   0.0000
    14 C4      -3.0272   6.0247   4.6928   C.ar      1 RES1   0.0000
    15 H4      -2.2931   6.0880   5.2920   H         1 RES1   0.0000
    16 C5      -4.0929   6.9192   4.6524   C.ar      1 RES1   0.0000
    17 H5      -4.2327   7.6825   5.2008   H         1 RES1   0.0000
    18 C6      -4.8965   6.4488   3.6430   C.ar      1 RES1   0.0000
    19 H6      -5.7140   6.8443   3.3604   H         1 RES1   0.0000
    20 C7      -2.4768   0.8063   3.5909   C.ar      1 RES1   0.0000
    21 C8      -3.1002  -0.3934   3.9413   C.ar      1 RES1   0.0000
    22 C9      -4.3177  -0.3164   4.6316   C.ar      1 RES1   0.0000
    23 H7      -4.7713  -1.1074   4.9012   H         1 RES1   0.0000
    24 C10     -4.8442   0.9173   4.9116   C.ar      1 RES1   0.0000
    25 H8      -5.6596   0.9908   5.3949   H         1 RES1   0.0000
    26 C11     -4.1788   2.0608   4.4844   C.ar      1 RES1   0.0000
    27 H9      -4.5743   2.9059   4.6629   H         1 RES1   0.0000
    28 C12     -2.4535  -1.6500   3.5831   C.ar      1 RES1   0.0000
    29 C13     -2.4599  -3.9162   3.5610   C.ar      1 RES1   0.0000
    30 H10     -2.8773  -4.7488   3.7472   H         1 RES1   0.0000
    31 B1      -4.8911   4.4380   1.9863   B         1 RES1   0.0000
    32 H11     -5.2173   3.5831   2.3666   H         1 RES1   0.0000
    33 H12     -5.6506   4.8862   1.5356   H         1 RES1   0.0000
    34 N5A     -0.6523   2.0325   2.6759   N.ar      1 RES1   0.0000
    35 N6A     -0.5754  -2.8013   2.6221   N.ar      1 RES1   0.0000
    36 C7A     -1.1898   0.8063   2.9215   C.ar      1 RES1   0.0000
    37 C8A     -0.5663  -0.3934   2.5711   C.ar      1 RES1   0.0000
    38 C9A      0.6512  -0.3164   1.8808   C.ar      1 RES1   0.0000
    39 H7A      1.1048  -1.1074   1.6112   H         1 RES1   0.0000
    40 C10A     1.1777   0.9173   1.6007   C.ar      1 RES1   0.0000
    41 H8A      1.9931   0.9908   1.1175   H         1 RES1   0.0000
    42 C11A     0.5123   2.0608   2.0280   C.ar      1 RES1   0.0000
    43 H9A      0.9077   2.9059   1.8495   H         1 RES1   0.0000
    44 C12A    -1.2130  -1.6500   2.9293   C.ar      1 RES1   0.0000
    45 C13A    -1.2066  -3.9162   2.9514   C.ar      1 RES1   0.0000
    46 H10A    -0.7893  -4.7488   2.7652   H         1 RES1   0.0000
    47 N1A      0.0971   4.1640   5.5440   N.ar      1 RES1   0.0000
    48 N2A     -1.1225   3.6696   5.1913   N.ar      1 RES1   0.0000
    49 N3A      0.6790   5.3417   3.3944   N.ar      1 RES1   0.0000
    50 N4A     -0.4923   5.0679   2.7369   N.ar      1 RES1   0.0000
    51 C1A     -1.7890   3.4721   6.3392   C.ar      1 RES1   0.0000
    52 H1A     -2.6725   3.1307   6.3939   H         1 RES1   0.0000
    53 C2A     -1.0194   3.8315   7.4332   C.ar      1 RES1   0.0000
    54 H2A     -1.2545   3.7871   8.3515   H         1 RES1   0.0000
    55 C3A      0.1643   4.2659   6.8862   C.ar      1 RES1   0.0000
    56 H3A      0.9103   4.5878   7.3772   H         1 RES1   0.0000
    57 C4A     -0.6393   6.0247   1.8196   C.ar      1 RES1   0.0000
    58 H4A     -1.3735   6.0880   1.2204   H         1 RES1   0.0000
    59 C5A      0.4264   6.9192   1.8599   C.ar      1 RES1   0.0000
    60 H5A      0.5661   7.6825   1.3116   H         1 RES1   0.0000
    61 C6A      1.2300   6.4488   2.8694   C.ar      1 RES1   0.0000
    62 H6A      2.0474   6.8443   3.1520   H         1 RES1   0.0000
    63 B1A      1.2245   4.4380   4.5261   B         1 RES1   0.0000
    64 H11A     1.5508   3.5831   4.1458   H         1 RES1   0.0000
    65 H12A     1.9841   4.8862   4.9768   H         1 RES1   0.0000
    66 N7      -2.9010  -3.3657   0.0936   N.ar      2 RES2   0.0000
    67 N8      -3.7908  -0.8054   0.4441   N.ar      2 RES2   0.0000
    68 N9      -7.8467  -2.4327   2.4825   N.ar      2 RES2   0.0000
    69 N10     -6.9838  -5.0798   2.0280   N.ar      2 RES2   0.0000
    70 C14     -4.1209  -3.1862   0.6747   C.ar      2 RES2   0.0000
    71 C15     -4.9317  -4.2645   1.0511   C.ar      2 RES2   0.0000
    72 C16     -4.4899  -5.5676   0.7763   C.ar      2 RES2   0.0000
    73 H13     -5.0250  -6.3169   1.0107   H         2 RES2   0.0000
    74 C17     -3.2832  -5.7424   0.1680   C.ar      2 RES2   0.0000
    75 H14     -2.9697  -6.6125  -0.0482   H         2 RES2   0.0000
    76 C18     -2.5185  -4.6128  -0.1289   C.ar      2 RES2   0.0000
    77 H15     -1.6631  -4.7502  -0.5171   H         2 RES2   0.0000
    78 C19     -4.5877  -1.8145   0.8779   C.ar      2 RES2   0.0000
    79 C20     -5.8420  -1.5848   1.4666   C.ar      2 RES2   0.0000
    80 C21     -6.2808  -0.2581   1.5708   C.ar      2 RES2   0.0000
    81 H16     -7.1262  -0.0652   1.9602   H         2 RES2   0.0000
    82 C22     -5.4959   0.7521   1.1123   C.ar      2 RES2   0.0000
    83 H17     -5.7897   1.6542   1.1592   H         2 RES2   0.0000
    84 C23     -4.2461   0.4344   0.5718   C.ar      2 RES2   0.0000
    85 H18     -3.6908   1.1477   0.2787   H         2 RES2   0.0000
    86 C24     -6.2165  -4.0147   1.6854   C.ar      2 RES2   0.0000
    87 C25     -6.6543  -2.7019   1.8977   C.ar      2 RES2   0.0000
    88 C26     -8.5762  -3.4804   2.8016   C.ar      2 RES2   0.0000
    89 H19     -9.4233  -3.3375   3.2067   H         2 RES2   0.0000
    90 C27     -8.1609  -4.7946   2.5711   C.ar      2 RES2   0.0000
    91 H20     -8.7393  -5.5079   2.8107   H         2 RES2   0.0000
@<TRIPOS>BOND
     1     1     3    1
     2     2     3   ar
     3     3     8   ar
     4     4     5   ar
     5     5     1    1
     6     6     1    1
     7     7    28   ar
     8     8     9    1
     9    10     8   ar
    10    11    10    1
    11    12     2   ar
    12    13    12    1
    13    14     5   ar
    14    15    14    1
    15    16    14   ar
    16    17    16    1
    17    18     4   ar
    18    19    18    1
    19    20     6   ar
    20    21    20   ar
    21    22    21   ar
    22    23    22    1
    23    24    22   ar
    24    25    24    1
    25    26     6   ar
    26    27    26    1
    27    28    21   ar
    28    29     7   ar
    29    30    29    1
    30    31     2    1
    31    32    31    1
    32    33    31    1
    33    34     1    1
    34    35    44   ar
    35    36    20   ar
    36    37    36   ar
    37    38    37   ar
    38    39    38    1
    39    40    38   ar
    40    41    40    1
    41    42    34   ar
    42    43    42    1
    43    44    28   ar
    44    45    29   ar
    45    46    45    1
    46    47    48   ar
    47    48     1    1
    48    49    50   ar
    49    50     1    1
    50    51    48   ar
    51    52    51    1
    52    53    51   ar
    53    54    53    1
    54    55    47   ar
    55    56    55    1
    56    57    50   ar
    57    58    57    1
    58    59    57   ar
    59    60    59    1
    60    61    49   ar
    61    62    61    1
    62    63    47    1
    63    64    63    1
    64    65    63    1
    65     4    31    1
    66    10    12   ar
    67    16    18   ar
    68    24    26   ar
    69    34    36   ar
    70    35    45   ar
    71    37    44   ar
    72    40    42   ar
    73    49    63    1
    74    53    55   ar
    75    59    61   ar
    76    66    70   ar
    77    67    78   ar
    78    68    87   ar
    79    69    86   ar
    80    70    71   ar
    81    71    72   ar
    82    72    73    1
    83    74    72   ar
    84    75    74    1
    85    76    66   ar
    86    77    76    1
    87    78    70   ar
    88    79    78   ar
    89    80    79   ar
    90    81    80    1
    91    82    80   ar
    92    83    82    1
    93    84    67   ar
    94    85    84    1
    95    86    71   ar
    96    87    79   ar
    97    88    68   ar
    98    89    88    1
    99    90    69   ar
   100    91    90    1
   101    74    76   ar
   102    82    84   ar
   103    86    87   ar
   104    88    90   ar
@<TRIPOS>SUBSTRUCTURE
     1 RES1        1 GROUP             0 ****  ****    0  
     2 RES2       66 GROUP             0 ****  ****    0  
@<TRIPOS>CRYSIN
   26.1963   13.8773   14.9472   90.0000  119.3800   90.0000    15     1
