@<TRIPOS>MOLECULE
WUCLAJ09
    91   104     2     0     0
SMALL
NO_CHARGES
****
Generated from the CSD

@<TRIPOS>ATOM
     1 Fe1     -1.8393   3.5843   3.2478   Fe        1 RES1   0.0000
     2 N1      -3.7276   4.1371   0.9662   N.ar      1 RES1   0.0000
     3 N2      -2.5151   3.6279   1.3438   N.ar      1 RES1   0.0000
     4 N3      -4.3090   5.3179   3.1114   N.ar      1 RES1   0.0000
     5 N4      -3.1378   5.0336   3.7582   N.ar      1 RES1   0.0000
     6 N5      -3.0214   2.0615   3.7985   N.ar      1 RES1   0.0000
     7 N6      -3.1016  -2.7680   3.8718   N.ar      1 RES1   0.0000
     8 C1      -1.8398   3.4213   0.2040   C.ar      1 RES1   0.0000
     9 H1      -0.9570   3.0723   0.1611   H         1 RES1   0.0000
    10 C2      -2.5963   3.7820  -0.9068   C.ar      1 RES1   0.0000
    11 H2      -2.3499   3.7322  -1.8227   H         1 RES1   0.0000
    12 C3      -3.7828   4.2288  -0.3728   C.ar      1 RES1   0.0000
    13 H3      -4.5259   4.5497  -0.8717   H         1 RES1   0.0000
    14 C4      -2.9807   5.9852   4.6807   C.ar      1 RES1   0.0000
    15 H4      -2.2416   6.0423   5.2744   H         1 RES1   0.0000
    16 C5      -4.0503   6.8856   4.6573   C.ar      1 RES1   0.0000
    17 H5      -4.1863   7.6442   5.2121   H         1 RES1   0.0000
    18 C6      -4.8593   6.4209   3.6466   C.ar      1 RES1   0.0000
    19 H6      -5.6785   6.8170   3.3712   H         1 RES1   0.0000
    20 C7      -2.4860   0.8359   3.5726   C.ar      1 RES1   0.0000
    21 C8      -3.1152  -0.3617   3.9142   C.ar      1 RES1   0.0000
    22 C9      -4.3394  -0.2794   4.5924   C.ar      1 RES1   0.0000
    23 H7      -4.7978  -1.0679   4.8600   H         1 RES1   0.0000
    24 C10     -4.8685   0.9600   4.8652   C.ar      1 RES1   0.0000
    25 H8      -5.6885   1.0361   5.3381   H         1 RES1   0.0000
    26 C11     -4.1939   2.0996   4.4430   C.ar      1 RES1   0.0000
    27 H9      -4.5840   2.9478   4.6210   H         1 RES1   0.0000
    28 C12     -2.4647  -1.6164   3.5687   C.ar      1 RES1   0.0000
    29 C13     -2.4750  -3.8830   3.5505   C.ar      1 RES1   0.0000
    30 H10     -2.8958  -4.7143   3.7324   H         1 RES1   0.0000
    31 B1      -4.8671   4.4238   1.9695   B         1 RES1   0.0000
    32 H11     -5.2109   3.5731   2.3423   H         1 RES1   0.0000
    33 H12     -5.6136   4.8859   1.5109   H         1 RES1   0.0000
    34 N5A     -0.6572   2.0615   2.6971   N.ar      1 RES1   0.0000
    35 N6A     -0.5770  -2.7680   2.6238   N.ar      1 RES1   0.0000
    36 C7A     -1.1927   0.8359   2.9230   C.ar      1 RES1   0.0000
    37 C8A     -0.5634  -0.3617   2.5813   C.ar      1 RES1   0.0000
    38 C9A      0.6608  -0.2794   1.9032   C.ar      1 RES1   0.0000
    39 H7A      1.1192  -1.0679   1.6356   H         1 RES1   0.0000
    40 C10A     1.1899   0.9600   1.6304   C.ar      1 RES1   0.0000
    41 H8A      2.0099   1.0361   1.1575   H         1 RES1   0.0000
    42 C11A     0.5153   2.0996   2.0526   C.ar      1 RES1   0.0000
    43 H9A      0.9054   2.9478   1.8746   H         1 RES1   0.0000
    44 C12A    -1.2140  -1.6164   2.9269   C.ar      1 RES1   0.0000
    45 C13A    -1.2036  -3.8830   2.9451   C.ar      1 RES1   0.0000
    46 H10A    -0.7828  -4.7143   2.7632   H         1 RES1   0.0000
    47 N1A      0.0490   4.1371   5.5294   N.ar      1 RES1   0.0000
    48 N2A     -1.1635   3.6279   5.1518   N.ar      1 RES1   0.0000
    49 N3A      0.6304   5.3179   3.3842   N.ar      1 RES1   0.0000
    50 N4A     -0.5408   5.0336   2.7374   N.ar      1 RES1   0.0000
    51 C1A     -1.8388   3.4213   6.2916   C.ar      1 RES1   0.0000
    52 H1A     -2.7216   3.0723   6.3345   H         1 RES1   0.0000
    53 C2A     -1.0823   3.7820   7.4024   C.ar      1 RES1   0.0000
    54 H2A     -1.3287   3.7322   8.3182   H         1 RES1   0.0000
    55 C3A      0.1042   4.2288   6.8684   C.ar      1 RES1   0.0000
    56 H3A      0.8473   4.5497   7.3673   H         1 RES1   0.0000
    57 C4A     -0.6980   5.9852   1.8149   C.ar      1 RES1   0.0000
    58 H4A     -1.4371   6.0423   1.2212   H         1 RES1   0.0000
    59 C5A      0.3717   6.8856   1.8382   C.ar      1 RES1   0.0000
    60 H5A      0.5077   7.6442   1.2835   H         1 RES1   0.0000
    61 C6A      1.1807   6.4209   2.8490   C.ar      1 RES1   0.0000
    62 H6A      1.9998   6.8170   3.1244   H         1 RES1   0.0000
    63 B1A      1.1885   4.4238   4.5261   B         1 RES1   0.0000
    64 H11A     1.5322   3.5731   4.1533   H         1 RES1   0.0000
    65 H12A     1.9350   4.8859   4.9847   H         1 RES1   0.0000
    66 N7      -2.8955  -3.3548   0.0839   N.ar      2 RES2   0.0000
    67 N8      -3.7837  -0.8025   0.4195   N.ar      2 RES2   0.0000
    68 N9      -7.8354  -2.4222   2.4891   N.ar      2 RES2   0.0000
    69 N10     -6.9640  -5.0676   2.0440   N.ar      2 RES2   0.0000
    70 C14     -4.1058  -3.1840   0.6625   C.ar      2 RES2   0.0000
    71 C15     -4.9235  -4.2588   1.0484   C.ar      2 RES2   0.0000
    72 C16     -4.4857  -5.5595   0.7691   C.ar      2 RES2   0.0000
    73 H13     -5.0199  -6.3093   1.0029   H         2 RES2   0.0000
    74 C17     -3.2823  -5.7311   0.1559   C.ar      2 RES2   0.0000
    75 H14     -2.9713  -6.6012  -0.0650   H         2 RES2   0.0000
    76 C18     -2.5149  -4.6050  -0.1429   C.ar      2 RES2   0.0000
    77 H15     -1.6613  -4.7434  -0.5352   H         2 RES2   0.0000
    78 C19     -4.5793  -1.8049   0.8600   C.ar      2 RES2   0.0000
    79 C20     -5.8336  -1.5742   1.4550   C.ar      2 RES2   0.0000
    80 C21     -6.2721  -0.2490   1.5433   C.ar      2 RES2   0.0000
    81 H16     -7.1180  -0.0539   1.9318   H         2 RES2   0.0000
    82 C22     -5.4878   0.7581   1.0744   C.ar      2 RES2   0.0000
    83 H17     -5.7842   1.6600   1.1146   H         2 RES2   0.0000
    84 C23     -4.2398   0.4427   0.5339   C.ar      2 RES2   0.0000
    85 H18     -3.6865   1.1537   0.2325   H         2 RES2   0.0000
    86 C24     -6.2082  -4.0047   1.6914   C.ar      2 RES2   0.0000
    87 C25     -6.6450  -2.6850   1.8941   C.ar      2 RES2   0.0000
    88 C26     -8.5613  -3.4721   2.8139   C.ar      2 RES2   0.0000
    89 H19     -9.4106  -3.3296   3.2179   H         2 RES2   0.0000
    90 C27     -8.1430  -4.7780   2.5943   C.ar      2 RES2   0.0000
    91 H20     -8.7181  -5.4904   2.8451   H         2 RES2   0.0000
@<TRIPOS>BOND
     1     1     3    1
     2     2     3   ar
     3     3     8   ar
     4     4     5   ar
     5     5     1    1
     6     6     1    1
     7     7    28   ar
     8     8     9    1
     9    10     8   ar
    10    11    10    1
    11    12     2   ar
    12    13    12    1
    13    14     5   ar
    14    15    14    1
    15    16    14   ar
    16    17    16    1
    17    18     4   ar
    18    19    18    1
    19    20     6   ar
    20    21    20   ar
    21    22    21   ar
    22    23    22    1
    23    24    22   ar
    24    25    24    1
    25    26     6   ar
    26    27    26    1
    27    28    21   ar
    28    29     7   ar
    29    30    29    1
    30    31     2    1
    31    32    31    1
    32    33    31    1
    33    34     1    1
    34    35    44   ar
    35    36    20   ar
    36    37    36   ar
    37    38    37   ar
    38    39    38    1
    39    40    38   ar
    40    41    40    1
    41    42    34   ar
    42    43    42    1
    43    44    28   ar
    44    45    29   ar
    45    46    45    1
    46    47    48   ar
    47    48     1    1
    48    49    50   ar
    49    50     1    1
    50    51    48   ar
    51    52    51    1
    52    53    51   ar
    53    54    53    1
    54    55    47   ar
    55    56    55    1
    56    57    50   ar
    57    58    57    1
    58    59    57   ar
    59    60    59    1
    60    61    49   ar
    61    62    61    1
    62    63    47    1
    63    64    63    1
    64    65    63    1
    65     4    31    1
    66    10    12   ar
    67    16    18   ar
    68    24    26   ar
    69    34    36   ar
    70    35    45   ar
    71    37    44   ar
    72    40    42   ar
    73    49    63    1
    74    53    55   ar
    75    59    61   ar
    76    66    70   ar
    77    67    78   ar
    78    68    87   ar
    79    69    86   ar
    80    70    71   ar
    81    71    72   ar
    82    72    73    1
    83    74    72   ar
    84    75    74    1
    85    76    66   ar
    86    77    76    1
    87    78    70   ar
    88    79    78   ar
    89    80    79   ar
    90    81    80    1
    91    82    80   ar
    92    83    82    1
    93    84    67   ar
    94    85    84    1
    95    86    71   ar
    96    87    79   ar
    97    88    68   ar
    98    89    88    1
    99    90    69   ar
   100    91    90    1
   101    74    76   ar
   102    82    84   ar
   103    86    87   ar
   104    88    90   ar
@<TRIPOS>SUBSTRUCTURE
     1 RES1        1 GROUP             0 ****  ****    0  
     2 RES2       66 GROUP             0 ****  ****    0  
@<TRIPOS>CRYSIN
   26.1572   13.8331   14.9298   90.0000  119.5240   90.0000    15     1
