@<TRIPOS>MOLECULE
WUCLAJ05
    91   104     2     0     0
SMALL
USER_CHARGES
****
Generated from the CSD

@<TRIPOS>ATOM
     1 Fe1     -1.8131   3.6939   3.3015   Fe        1 RES1   2.0000
     2 N1      -3.8567   4.2672   0.9640   N.pl3     1 RES1   0.0000
     3 N2      -2.6223   3.7826   1.2665   N.2       1 RES1   0.0000
     4 N3      -4.4324   5.4324   3.1509   N.pl3     1 RES1   0.0000
     5 N4      -3.2855   5.1766   3.8416   N.2       1 RES1   0.0000
     6 N5      -2.9844   1.9195   3.9618   N.ar      1 RES1   0.0000
     7 N6      -3.0507  -2.9044   3.9684   N.ar      1 RES1   0.0000
     8 C1      -1.9919   3.6247   0.1017   C.2       1 RES1   0.0000
     9 H1      -1.1231   3.3027   0.0185   H         1 RES1   0.0000
    10 C2      -2.7823   3.9959  -0.9601   C.2       1 RES1   0.0000
    11 H2      -2.5699   3.9804  -1.8660   H         1 RES1   0.0000
    12 C3      -3.9629   4.3980  -0.3671   C.2       1 RES1   0.0000
    13 H3      -4.7142   4.7115  -0.8188   H         1 RES1   0.0000
    14 C4      -3.1702   6.1597   4.7396   C.2       1 RES1   0.0000
    15 H4      -2.4620   6.2441   5.3378   H         1 RES1   0.0000
    16 C5      -4.2400   7.0371   4.6630   C.2       1 RES1   0.0000
    17 H5      -4.3988   7.7907   5.1860   H         1 RES1   0.0000
    18 C6      -5.0107   6.5436   3.6422   C.2       1 RES1   0.0000
    19 H6      -5.8079   6.9162   3.3385   H         1 RES1   0.0000
    20 C7      -2.4494   0.7128   3.6673   C.ar      1 RES1   0.0000
    21 C8      -3.0528  -0.4963   4.0278   C.ar      1 RES1   0.0000
    22 C9      -4.2538  -0.4302   4.7475   C.ar      1 RES1   0.0000
    23 H7      -4.6926  -1.2120   4.9958   H         1 RES1   0.0000
    24 C10     -4.7813   0.7916   5.0830   C.ar      1 RES1   0.0000
    25 H8      -5.5589   0.8506   5.5888   H         1 RES1   0.0000
    26 C11     -4.1240   1.9389   4.6472   C.ar      1 RES1   0.0000
    27 H9      -4.5025   2.7642   4.8466   H         1 RES1   0.0000
    28 C12     -2.4231  -1.7547   3.6462   C.ar      1 RES1   0.0000
    29 C13     -2.4293  -4.0142   3.6277   C.ar      1 RES1   0.0000
    30 H10     -2.8285  -4.8296   3.8297   H         1 RES1   0.0000
    31 B1      -4.9500   4.4711   2.0430   B         1 RES1  -1.0000
    32 H11     -5.1826   3.6163   2.4352   H         1 RES1   0.0000
    33 H12     -5.7471   4.8437   1.6336   H         1 RES1   0.0000
    34 N5A     -0.6419   1.9195   2.6412   N.ar      1 RES1   0.0000
    35 N6A     -0.5755  -2.9044   2.6346   N.ar      1 RES1   0.0000
    36 C7A     -1.1768   0.7128   2.9357   C.ar      1 RES1   0.0000
    37 C8A     -0.5735  -0.4963   2.5752   C.ar      1 RES1   0.0000
    38 C9A      0.6275  -0.4302   1.8554   C.ar      1 RES1   0.0000
    39 H7A      1.0663  -1.2120   1.6072   H         1 RES1   0.0000
    40 C10A     1.1551   0.7916   1.5200   C.ar      1 RES1   0.0000
    41 H8A      1.9326   0.8506   1.0142   H         1 RES1   0.0000
    42 C11A     0.4977   1.9389   1.9558   C.ar      1 RES1   0.0000
    43 H9A      0.8762   2.7642   1.7564   H         1 RES1   0.0000
    44 C12A    -1.2032  -1.7547   2.9568   C.ar      1 RES1   0.0000
    45 C13A    -1.1970  -4.0142   2.9753   C.ar      1 RES1   0.0000
    46 H10A    -0.7978  -4.8296   2.7733   H         1 RES1   0.0000
    47 N1A      0.2304   4.2672   5.6389   N.pl3     1 RES1   0.0000
    48 N2A     -1.0039   3.7826   5.3365   N.2       1 RES1   0.0000
    49 N3A      0.8061   5.4324   3.4520   N.pl3     1 RES1   0.0000
    50 N4A     -0.3408   5.1766   2.7614   N.2       1 RES1   0.0000
    51 C1A     -1.6344   3.6247   6.5013   C.2       1 RES1   0.0000
    52 H1A     -2.5032   3.3027   6.5845   H         1 RES1   0.0000
    53 C2A     -0.8440   3.9959   7.5630   C.2       1 RES1   0.0000
    54 H2A     -1.0564   3.9804   8.4690   H         1 RES1   0.0000
    55 C3A      0.3367   4.3980   6.9701   C.2       1 RES1   0.0000
    56 H3A      1.0879   4.7115   7.4217   H         1 RES1   0.0000
    57 C4A     -0.4560   6.1597   1.8634   C.2       1 RES1   0.0000
    58 H4A     -1.1642   6.2441   1.2651   H         1 RES1   0.0000
    59 C5A      0.6138   7.0371   1.9400   C.2       1 RES1   0.0000
    60 H5A      0.7725   7.7907   1.4170   H         1 RES1   0.0000
    61 C6A      1.3845   6.5436   2.9608   C.2       1 RES1   0.0000
    62 H6A      2.1816   6.9162   3.2645   H         1 RES1   0.0000
    63 B1A      1.3237   4.4711   4.5600   B         1 RES1  -1.0000
    64 H11A     1.5563   3.6163   4.1678   H         1 RES1   0.0000
    65 H12A     2.1209   4.8437   4.9694   H         1 RES1   0.0000
    66 N7      -2.9331  -3.3791   0.1136   N.ar      2 RES2   0.0000
    67 N8      -3.8152  -0.8281   0.5097   N.ar      2 RES2   0.0000
    68 N9      -7.8825  -2.4802   2.4959   N.ar      2 RES2   0.0000
    69 N10     -7.0165  -5.1249   2.0139   N.ar      2 RES2   0.0000
    70 C14     -4.1533  -3.2184   0.7012   C.ar      2 RES2   0.0000
    71 C15     -4.9629  -4.2954   1.0618   C.ar      2 RES2   0.0000
    72 C16     -4.5070  -5.5987   0.7897   C.ar      2 RES2   0.0000
    73 H13     -5.0296  -6.3369   1.0089   H         2 RES2   0.0000
    74 C17     -3.2973  -5.7618   0.2034   C.ar      2 RES2   0.0000
    75 H14     -2.9723  -6.6125   0.0145   H         2 RES2   0.0000
    76 C18     -2.5496  -4.6300  -0.1083   C.ar      2 RES2   0.0000
    77 H15     -1.7175  -4.7622  -0.5031   H         2 RES2   0.0000
    78 C19     -4.6145  -1.8334   0.9139   C.ar      2 RES2   0.0000
    79 C20     -5.8706  -1.6155   1.5108   C.ar      2 RES2   0.0000
    80 C21     -6.2998  -0.2925   1.6402   C.ar      2 RES2   0.0000
    81 H16     -7.1280  -0.1097   2.0205   H         2 RES2   0.0000
    82 C22     -5.5156   0.7213   1.2163   C.ar      2 RES2   0.0000
    83 H17     -5.7974   1.6043   1.2929   H         2 RES2   0.0000
    84 C23     -4.2730   0.4134   0.6603   C.ar      2 RES2   0.0000
    85 H18     -3.7342   1.1150   0.3790   H         2 RES2   0.0000
    86 C24     -6.2547  -4.0549   1.6930   C.ar      2 RES2   0.0000
    87 C25     -6.6927  -2.7431   1.9215   C.ar      2 RES2   0.0000
    88 C26     -8.6165  -3.5403   2.8063   C.ar      2 RES2   0.0000
    89 H19     -9.4429  -3.4096   3.2104   H         2 RES2   0.0000
    90 C27     -8.1980  -4.8381   2.5527   C.ar      2 RES2   0.0000
    91 H20     -8.7708  -5.5397   2.7693   H         2 RES2   0.0000
@<TRIPOS>BOND
     1     1     3    1
     2     2     3    1
     3     3     8    2
     4     4     5    1
     5     5     1    1
     6     6     1    1
     7     7    28   ar
     8     8     9    1
     9    10     8    1
    10    11    10    1
    11    12     2    1
    12    13    12    1
    13    14     5    2
    14    15    14    1
    15    16    14    1
    16    17    16    1
    17    18     4    1
    18    19    18    1
    19    20     6   ar
    20    21    20   ar
    21    22    21   ar
    22    23    22    1
    23    24    22   ar
    24    25    24    1
    25    26     6   ar
    26    27    26    1
    27    28    21   ar
    28    29     7   ar
    29    30    29    1
    30    31     2    1
    31    32    31    1
    32    33    31    1
    33    34     1    1
    34    35    44   ar
    35    36    20   ar
    36    37    36   ar
    37    38    37   ar
    38    39    38    1
    39    40    38   ar
    40    41    40    1
    41    42    34   ar
    42    43    42    1
    43    44    28   ar
    44    45    29   ar
    45    46    45    1
    46    47    48    1
    47    48     1    1
    48    49    50    1
    49    50     1    1
    50    51    48    2
    51    52    51    1
    52    53    51    1
    53    54    53    1
    54    55    47    1
    55    56    55    1
    56    57    50    2
    57    58    57    1
    58    59    57    1
    59    60    59    1
    60    61    49    1
    61    62    61    1
    62    63    47    1
    63    64    63    1
    64    65    63    1
    65     4    31    1
    66    10    12    2
    67    16    18    2
    68    24    26   ar
    69    34    36   ar
    70    35    45   ar
    71    37    44   ar
    72    40    42   ar
    73    49    63    1
    74    53    55    2
    75    59    61    2
    76    66    70   ar
    77    67    78   ar
    78    68    87   ar
    79    69    86   ar
    80    70    71   ar
    81    71    72   ar
    82    72    73    1
    83    74    72   ar
    84    75    74    1
    85    76    66   ar
    86    77    76    1
    87    78    70   ar
    88    79    78   ar
    89    80    79   ar
    90    81    80    1
    91    82    80   ar
    92    83    82    1
    93    84    67   ar
    94    85    84    1
    95    86    71   ar
    96    87    79   ar
    97    88    68   ar
    98    89    88    1
    99    90    69   ar
   100    91    90    1
   101    74    76   ar
   102    82    84   ar
   103    86    87   ar
   104    88    90   ar
@<TRIPOS>SUBSTRUCTURE
     1 RES1        1 GROUP             0 ****  ****    0  
     2 RES2       66 GROUP             0 ****  ****    0  
@<TRIPOS>CRYSIN
   26.3730   14.0601   15.0664   90.0000  118.7750   90.0000    15     1
