@<TRIPOS>MOLECULE
WUCLAJ01
    91   104     2     0     0
SMALL
USER_CHARGES
****
Generated from the CSD

@<TRIPOS>ATOM
     1 Fe1     -1.8215   3.6755   3.2776   Fe        1 RES1   2.0000
     2 N1      -3.8416   4.2404   0.9454   N.pl3     1 RES1   0.0000
     3 N2      -2.6072   3.7603   1.2656   N.2       1 RES1   0.0000
     4 N3      -4.4244   5.4028   3.1292   N.pl3     1 RES1   0.0000
     5 N4      -3.2722   5.1504   3.8140   N.2       1 RES1   0.0000
     6 N5      -2.9930   1.9396   3.9229   N.ar      1 RES1   0.0000
     7 N6      -3.0658  -2.8849   3.9305   N.ar      1 RES1   0.0000
     8 C1      -1.9687   3.6015   0.1049   C.2       1 RES1   0.0000
     9 H1      -1.0769   3.2820   0.0262   H         1 RES1   0.0000
    10 C2      -2.7670   3.9599  -0.9702   C.2       1 RES1   0.0000
    11 H2      -2.5490   3.9361  -1.8958   H         1 RES1   0.0000
    12 C3      -3.9472   4.3569  -0.3815   C.2       1 RES1   0.0000
    13 H3      -4.7149   4.6658  -0.8469   H         1 RES1   0.0000
    14 C4      -3.1595   6.1255   4.7185   C.2       1 RES1   0.0000
    15 H4      -2.4400   6.2061   5.3320   H         1 RES1   0.0000
    16 C5      -4.2299   7.0085   4.6464   C.2       1 RES1   0.0000
    17 H5      -4.3882   7.7772   5.1800   H         1 RES1   0.0000
    18 C6      -5.0024   6.5151   3.6303   C.2       1 RES1   0.0000
    19 H6      -5.8192   6.8952   3.3261   H         1 RES1   0.0000
    20 C7      -2.4584   0.7306   3.6382   C.ar      1 RES1   0.0000
    21 C8      -3.0652  -0.4729   3.9895   C.ar      1 RES1   0.0000
    22 C9      -4.2742  -0.4082   4.7080   C.ar      1 RES1   0.0000
    23 H7      -4.7167  -1.2063   4.9715   H         1 RES1   0.0000
    24 C10     -4.8043   0.8121   5.0226   C.ar      1 RES1   0.0000
    25 H8      -5.6129   0.8750   5.5195   H         1 RES1   0.0000
    26 C11     -4.1399   1.9625   4.6031   C.ar      1 RES1   0.0000
    27 H9      -4.5226   2.8053   4.8116   H         1 RES1   0.0000
    28 C12     -2.4326  -1.7349   3.6172   C.ar      1 RES1   0.0000
    29 C13     -2.4459  -3.9990   3.5910   C.ar      1 RES1   0.0000
    30 H10     -2.8651  -4.8307   3.7784   H         1 RES1   0.0000
    31 B1      -4.9463   4.4533   2.0203   B         1 RES1  -1.0000
    32 H11     -5.7522   4.8447   1.5969   H         1 RES1   0.0000
    33 H12     -5.1986   3.5825   2.4176   H         1 RES1   0.0000
    34 N5A     -0.6501   1.9396   2.6323   N.ar      1 RES1   0.0000
    35 N6A     -0.5772  -2.8849   2.6247   N.ar      1 RES1   0.0000
    36 C7A     -1.1846   0.7306   2.9171   C.ar      1 RES1   0.0000
    37 C8A     -0.5778  -0.4729   2.5657   C.ar      1 RES1   0.0000
    38 C9A      0.6311  -0.4082   1.8473   C.ar      1 RES1   0.0000
    39 H7A      1.0736  -1.2063   1.5837   H         1 RES1   0.0000
    40 C10A     1.1612   0.8121   1.5326   C.ar      1 RES1   0.0000
    41 H8A      1.9699   0.8750   1.0357   H         1 RES1   0.0000
    42 C11A     0.4968   1.9625   1.9522   C.ar      1 RES1   0.0000
    43 H9A      0.8796   2.8053   1.7437   H         1 RES1   0.0000
    44 C12A    -1.2105  -1.7349   2.9381   C.ar      1 RES1   0.0000
    45 C13A    -1.1972  -3.9990   2.9643   C.ar      1 RES1   0.0000
    46 H10A    -0.7780  -4.8307   2.7768   H         1 RES1   0.0000
    47 N1A      0.1986   4.2404   5.6099   N.pl3     1 RES1   0.0000
    48 N2A     -1.0359   3.7603   5.2897   N.2       1 RES1   0.0000
    49 N3A      0.7814   5.4028   3.4260   N.pl3     1 RES1   0.0000
    50 N4A     -0.3709   5.1504   2.7413   N.2       1 RES1   0.0000
    51 C1A     -1.6744   3.6015   6.4504   C.2       1 RES1   0.0000
    52 H1A     -2.5661   3.2820   6.5290   H         1 RES1   0.0000
    53 C2A     -0.8760   3.9599   7.5254   C.2       1 RES1   0.0000
    54 H2A     -1.0941   3.9361   8.4510   H         1 RES1   0.0000
    55 C3A      0.3042   4.3569   6.9368   C.2       1 RES1   0.0000
    56 H3A      1.0719   4.6658   7.4022   H         1 RES1   0.0000
    57 C4A     -0.4836   6.1255   1.8368   C.2       1 RES1   0.0000
    58 H4A     -1.2031   6.2061   1.2232   H         1 RES1   0.0000
    59 C5A      0.5869   7.0085   1.9089   C.2       1 RES1   0.0000
    60 H5A      0.7451   7.7772   1.3753   H         1 RES1   0.0000
    61 C6A      1.3593   6.5151   2.9250   C.2       1 RES1   0.0000
    62 H6A      2.1762   6.8952   3.2291   H         1 RES1   0.0000
    63 B1A      1.3032   4.4533   4.5349   B         1 RES1  -1.0000
    64 H11A     2.1092   4.8447   4.9584   H         1 RES1   0.0000
    65 H12A     1.5555   3.5825   4.1377   H         1 RES1   0.0000
    66 N7      -2.9189  -3.3749   0.1206   N.ar      2 RES2   0.0000
    67 N8      -3.8010  -0.8178   0.4995   N.ar      2 RES2   0.0000
    68 N9      -7.8813  -2.4657   2.4858   N.ar      2 RES2   0.0000
    69 N10     -7.0167  -5.1092   2.0007   N.ar      2 RES2   0.0000
    70 C14     -4.1330  -3.2008   0.6922   C.ar      2 RES2   0.0000
    71 C15     -4.9520  -4.2863   1.0554   C.ar      2 RES2   0.0000
    72 C16     -4.5106  -5.5855   0.7775   C.ar      2 RES2   0.0000
    73 H13     -5.0492  -6.3375   0.9990   H         2 RES2   0.0000
    74 C17     -3.2908  -5.7547   0.1809   C.ar      2 RES2   0.0000
    75 H14     -2.9674  -6.6227  -0.0262   H         2 RES2   0.0000
    76 C18     -2.5336  -4.6239  -0.1141   C.ar      2 RES2   0.0000
    77 H15     -1.6794  -4.7552  -0.5126   H         2 RES2   0.0000
    78 C19     -4.5970  -1.8240   0.9125   C.ar      2 RES2   0.0000
    79 C20     -5.8589  -1.6033   1.4972   C.ar      2 RES2   0.0000
    80 C21     -6.3004  -0.2851   1.6231   C.ar      2 RES2   0.0000
    81 H16     -7.1483  -0.0978   2.0033   H         2 RES2   0.0000
    82 C22     -5.5044   0.7310   1.1944   C.ar      2 RES2   0.0000
    83 H17     -5.7922   1.6340   1.2665   H         2 RES2   0.0000
    84 C23     -4.2547   0.4193   0.6463   C.ar      2 RES2   0.0000
    85 H18     -3.6985   1.1364   0.3618   H         2 RES2   0.0000
    86 C24     -6.2499  -4.0452   1.6808   C.ar      2 RES2   0.0000
    87 C25     -6.6831  -2.7313   1.9063   C.ar      2 RES2   0.0000
    88 C26     -8.6195  -3.5182   2.7820   C.ar      2 RES2   0.0000
    89 H19     -9.4717  -3.3784   3.1793   H         2 RES2   0.0000
    90 C27     -8.2027  -4.8237   2.5369   C.ar      2 RES2   0.0000
    91 H20     -8.7862  -5.5394   2.7598   H         2 RES2   0.0000
@<TRIPOS>BOND
     1     1     3    1
     2     2     3    1
     3     3     8    2
     4     4     5    1
     5     5     1    1
     6     6     1    1
     7     7    28   ar
     8     8     9    1
     9    10     8    1
    10    11    10    1
    11    12     2    1
    12    13    12    1
    13    14     5    2
    14    15    14    1
    15    16    14    1
    16    17    16    1
    17    18     4    1
    18    19    18    1
    19    20     6   ar
    20    21    20   ar
    21    22    21   ar
    22    23    22    1
    23    24    22   ar
    24    25    24    1
    25    26     6   ar
    26    27    26    1
    27    28    21   ar
    28    29     7   ar
    29    30    29    1
    30    31     2    1
    31    32    31    1
    32    33    31    1
    33    34     1    1
    34    35    44   ar
    35    36    20   ar
    36    37    36   ar
    37    38    37   ar
    38    39    38    1
    39    40    38   ar
    40    41    40    1
    41    42    34   ar
    42    43    42    1
    43    44    28   ar
    44    45    29   ar
    45    46    45    1
    46    47    48    1
    47    48     1    1
    48    49    50    1
    49    50     1    1
    50    51    48    2
    51    52    51    1
    52    53    51    1
    53    54    53    1
    54    55    47    1
    55    56    55    1
    56    57    50    2
    57    58    57    1
    58    59    57    1
    59    60    59    1
    60    61    49    1
    61    62    61    1
    62    63    47    1
    63    64    63    1
    64    65    63    1
    65     4    31    1
    66    10    12    2
    67    16    18    2
    68    24    26   ar
    69    34    36   ar
    70    35    45   ar
    71    37    44   ar
    72    40    42   ar
    73    49    63    1
    74    53    55    2
    75    59    61    2
    76    66    70   ar
    77    67    78   ar
    78    68    87   ar
    79    69    86   ar
    80    70    71   ar
    81    71    72   ar
    82    72    73    1
    83    74    72   ar
    84    75    74    1
    85    76    66   ar
    86    77    76    1
    87    78    70   ar
    88    79    78   ar
    89    80    79   ar
    90    81    80    1
    91    82    80   ar
    92    83    82    1
    93    84    67   ar
    94    85    84    1
    95    86    71   ar
    96    87    79   ar
    97    88    68   ar
    98    89    88    1
    99    90    69   ar
   100    91    90    1
   101    74    76   ar
   102    82    84   ar
   103    86    87   ar
   104    88    90   ar
@<TRIPOS>SUBSTRUCTURE
     1 RES1        1 GROUP             0 ****  ****    0  
     2 RES2       66 GROUP             0 ****  ****    0  
@<TRIPOS>CRYSIN
   26.2962   13.9778   14.9991   90.0000  119.0630   90.0000    15     1
