@<TRIPOS>MOLECULE
WUCLAJ07
    91   104     2     0     0
SMALL
USER_CHARGES
****
Generated from the CSD

@<TRIPOS>ATOM
     1 Fe1     -1.8099   3.6915   3.3067   Fe        1 RES1   2.0000
     2 N1      -3.8445   4.2658   0.9669   N.pl3     1 RES1   0.0000
     3 N2      -2.6187   3.7790   1.2790   N.2       1 RES1   0.0000
     4 N3      -4.4251   5.4280   3.1559   N.pl3     1 RES1   0.0000
     5 N4      -3.2812   5.1767   3.8490   N.2       1 RES1   0.0000
     6 N5      -2.9835   1.9215   3.9694   N.ar      1 RES1   0.0000
     7 N6      -3.0452  -2.9011   3.9707   N.ar      1 RES1   0.0000
     8 C1      -1.9915   3.6271   0.1138   C.2       1 RES1   0.0000
     9 H1      -1.1213   3.3077   0.0291   H         1 RES1   0.0000
    10 C2      -2.7807   3.9985  -0.9484   C.2       1 RES1   0.0000
    11 H2      -2.5755   3.9816  -1.8544   H         1 RES1   0.0000
    12 C3      -3.9516   4.4009  -0.3465   C.2       1 RES1   0.0000
    13 H3      -4.7020   4.7203  -0.7936   H         1 RES1   0.0000
    14 C4      -3.1604   6.1497   4.7419   C.2       1 RES1   0.0000
    15 H4      -2.4523   6.2299   5.3384   H         1 RES1   0.0000
    16 C5      -4.2262   7.0333   4.6704   C.2       1 RES1   0.0000
    17 H5      -4.3795   7.7874   5.1916   H         1 RES1   0.0000
    18 C6      -4.9931   6.5423   3.6665   C.2       1 RES1   0.0000
    19 H6      -5.7919   6.9165   3.3715   H         1 RES1   0.0000
    20 C7      -2.4432   0.7161   3.6758   C.ar      1 RES1   0.0000
    21 C8      -3.0524  -0.4896   4.0355   C.ar      1 RES1   0.0000
    22 C9      -4.2479  -0.4263   4.7511   C.ar      1 RES1   0.0000
    23 H7      -4.6810  -1.2100   5.0051   H         1 RES1   0.0000
    24 C10     -4.7818   0.7907   5.0778   C.ar      1 RES1   0.0000
    25 H8      -5.5648   0.8512   5.5738   H         1 RES1   0.0000
    26 C11     -4.1175   1.9317   4.6440   C.ar      1 RES1   0.0000
    27 H9      -4.4978   2.7576   4.8437   H         1 RES1   0.0000
    28 C12     -2.4208  -1.7516   3.6480   C.ar      1 RES1   0.0000
    29 C13     -2.4286  -4.0126   3.6308   C.ar      1 RES1   0.0000
    30 H10     -2.8311  -4.8272   3.8279   H         1 RES1   0.0000
    31 B1      -4.9430   4.4755   2.0383   B         1 RES1  -1.0000
    32 H11     -5.1873   3.6215   2.4258   H         1 RES1   0.0000
    33 H12     -5.7326   4.8568   1.6243   H         1 RES1   0.0000
    34 N5A     -0.6362   1.9215   2.6441   N.ar      1 RES1   0.0000
    35 N6A     -0.5745  -2.9011   2.6427   N.ar      1 RES1   0.0000
    36 C7A     -1.1765   0.7161   2.9377   C.ar      1 RES1   0.0000
    37 C8A     -0.5673  -0.4896   2.5779   C.ar      1 RES1   0.0000
    38 C9A      0.6282  -0.4263   1.8624   C.ar      1 RES1   0.0000
    39 H7A      1.0613  -1.2100   1.6084   H         1 RES1   0.0000
    40 C10A     1.1621   0.7907   1.5356   C.ar      1 RES1   0.0000
    41 H8A      1.9451   0.8512   1.0396   H         1 RES1   0.0000
    42 C11A     0.4978   1.9317   1.9695   C.ar      1 RES1   0.0000
    43 H9A      0.8780   2.7576   1.7698   H         1 RES1   0.0000
    44 C12A    -1.1989  -1.7516   2.9655   C.ar      1 RES1   0.0000
    45 C13A    -1.1911  -4.0126   2.9827   C.ar      1 RES1   0.0000
    46 H10A    -0.7886  -4.8272   2.7856   H         1 RES1   0.0000
    47 N1A      0.2248   4.2658   5.6466   N.pl3     1 RES1   0.0000
    48 N2A     -1.0010   3.7790   5.3344   N.2       1 RES1   0.0000
    49 N3A      0.8053   5.4280   3.4575   N.pl3     1 RES1   0.0000
    50 N4A     -0.3386   5.1767   2.7644   N.2       1 RES1   0.0000
    51 C1A     -1.6282   3.6271   6.4997   C.2       1 RES1   0.0000
    52 H1A     -2.4984   3.3077   6.5844   H         1 RES1   0.0000
    53 C2A     -0.8390   3.9985   7.5618   C.2       1 RES1   0.0000
    54 H2A     -1.0442   3.9816   8.4679   H         1 RES1   0.0000
    55 C3A      0.3319   4.4009   6.9600   C.2       1 RES1   0.0000
    56 H3A      1.0823   4.7203   7.4071   H         1 RES1   0.0000
    57 C4A     -0.4593   6.1497   1.8716   C.2       1 RES1   0.0000
    58 H4A     -1.1675   6.2299   1.2751   H         1 RES1   0.0000
    59 C5A      0.6064   7.0333   1.9430   C.2       1 RES1   0.0000
    60 H5A      0.7598   7.7874   1.4219   H         1 RES1   0.0000
    61 C6A      1.3734   6.5423   2.9470   C.2       1 RES1   0.0000
    62 H6A      2.1722   6.9165   3.2419   H         1 RES1   0.0000
    63 B1A      1.3232   4.4755   4.5752   B         1 RES1  -1.0000
    64 H11A     1.5675   3.6215   4.1876   H         1 RES1   0.0000
    65 H12A     2.1128   4.8568   4.9892   H         1 RES1   0.0000
    66 N7      -2.9357  -3.3752   0.1190   N.ar      2 RES2   0.0000
    67 N8      -3.8198  -0.8301   0.4947   N.ar      2 RES2   0.0000
    68 N9      -7.8859  -2.4861   2.5105   N.ar      2 RES2   0.0000
    69 N10     -7.0091  -5.1142   2.0171   N.ar      2 RES2   0.0000
    70 C14     -4.1519  -3.2149   0.6971   C.ar      2 RES2   0.0000
    71 C15     -4.9596  -4.2869   1.0714   C.ar      2 RES2   0.0000
    72 C16     -4.5125  -5.5856   0.7963   C.ar      2 RES2   0.0000
    73 H13     -5.0367  -6.3228   1.0132   H         2 RES2   0.0000
    74 C17     -3.3095  -5.7502   0.2116   C.ar      2 RES2   0.0000
    75 H14     -2.9888  -6.6014   0.0238   H         2 RES2   0.0000
    76 C18     -2.5526  -4.6232  -0.1071   C.ar      2 RES2   0.0000
    77 H15     -1.7239  -4.7569  -0.5039   H         2 RES2   0.0000
    78 C19     -4.6160  -1.8346   0.9179   C.ar      2 RES2   0.0000
    79 C20     -5.8654  -1.6124   1.5118   C.ar      2 RES2   0.0000
    80 C21     -6.2963  -0.2941   1.6454   C.ar      2 RES2   0.0000
    81 H16     -7.1208  -0.1083   2.0303   H         2 RES2   0.0000
    82 C22     -5.5000   0.7175   1.2089   C.ar      2 RES2   0.0000
    83 H17     -5.7746   1.6025   1.2817   H         2 RES2   0.0000
    84 C23     -4.2662   0.4038   0.6534   C.ar      2 RES2   0.0000
    85 H18     -3.7222   1.1044   0.3756   H         2 RES2   0.0000
    86 C24     -6.2534  -4.0407   1.7010   C.ar      2 RES2   0.0000
    87 C25     -6.6824  -2.7309   1.9219   C.ar      2 RES2   0.0000
    88 C26     -8.6079  -3.5314   2.8173   C.ar      2 RES2   0.0000
    89 H19     -9.4363  -3.3992   3.2194   H         2 RES2   0.0000
    90 C27     -8.1862  -4.8399   2.5660   C.ar      2 RES2   0.0000
    91 H20     -8.7506  -5.5433   2.7909   H         2 RES2   0.0000
@<TRIPOS>BOND
     1     1     3    1
     2     2     3    1
     3     3     8    2
     4     4     5    1
     5     5     1    1
     6     6     1    1
     7     7    28   ar
     8     8     9    1
     9    10     8    1
    10    11    10    1
    11    12     2    1
    12    13    12    1
    13    14     5    2
    14    15    14    1
    15    16    14    1
    16    17    16    1
    17    18     4    1
    18    19    18    1
    19    20     6   ar
    20    21    20   ar
    21    22    21   ar
    22    23    22    1
    23    24    22   ar
    24    25    24    1
    25    26     6   ar
    26    27    26    1
    27    28    21   ar
    28    29     7   ar
    29    30    29    1
    30    31     2    1
    31    32    31    1
    32    33    31    1
    33    34     1    1
    34    35    44   ar
    35    36    20   ar
    36    37    36   ar
    37    38    37   ar
    38    39    38    1
    39    40    38   ar
    40    41    40    1
    41    42    34   ar
    42    43    42    1
    43    44    28   ar
    44    45    29   ar
    45    46    45    1
    46    47    48    1
    47    48     1    1
    48    49    50    1
    49    50     1    1
    50    51    48    2
    51    52    51    1
    52    53    51    1
    53    54    53    1
    54    55    47    1
    55    56    55    1
    56    57    50    2
    57    58    57    1
    58    59    57    1
    59    60    59    1
    60    61    49    1
    61    62    61    1
    62    63    47    1
    63    64    63    1
    64    65    63    1
    65     4    31    1
    66    10    12    2
    67    16    18    2
    68    24    26   ar
    69    34    36   ar
    70    35    45   ar
    71    37    44   ar
    72    40    42   ar
    73    49    63    1
    74    53    55    2
    75    59    61    2
    76    66    70   ar
    77    67    78   ar
    78    68    87   ar
    79    69    86   ar
    80    70    71   ar
    81    71    72   ar
    82    72    73    1
    83    74    72   ar
    84    75    74    1
    85    76    66   ar
    86    77    76    1
    87    78    70   ar
    88    79    78   ar
    89    80    79   ar
    90    81    80    1
    91    82    80   ar
    92    83    82    1
    93    84    67   ar
    94    85    84    1
    95    86    71   ar
    96    87    79   ar
    97    88    68   ar
    98    89    88    1
    99    90    69   ar
   100    91    90    1
   101    74    76   ar
   102    82    84   ar
   103    86    87   ar
   104    88    90   ar
@<TRIPOS>SUBSTRUCTURE
     1 RES1        1 GROUP             0 ****  ****    0  
     2 RES2       66 GROUP             0 ****  ****    0  
@<TRIPOS>CRYSIN
   26.3810   14.0694   15.0785   90.0000  118.6930   90.0000    15     1
