@<TRIPOS>MOLECULE
WUCLAJ03
    91   104     2     0     0
SMALL
USER_CHARGES
****
Generated from the CSD

@<TRIPOS>ATOM
     1 Fe1     -1.8177   3.6852   3.2897   Fe        1 RES1   2.0000
     2 N1      -3.8505   4.2562   0.9514   N.pl3     1 RES1   0.0000
     3 N2      -2.6148   3.7756   1.2619   N.2       1 RES1   0.0000
     4 N3      -4.4332   5.4171   3.1331   N.pl3     1 RES1   0.0000
     5 N4      -3.2856   5.1626   3.8318   N.2       1 RES1   0.0000
     6 N5      -2.9881   1.9265   3.9505   N.ar      1 RES1   0.0000
     7 N6      -3.0607  -2.8988   3.9489   N.ar      1 RES1   0.0000
     8 C1      -1.9818   3.6167   0.0921   C.2       1 RES1   0.0000
     9 H1      -1.1040   3.2930   0.0066   H         1 RES1   0.0000
    10 C2      -2.7778   3.9852  -0.9672   C.2       1 RES1   0.0000
    11 H2      -2.5668   3.9712  -1.8817   H         1 RES1   0.0000
    12 C3      -3.9618   4.3804  -0.3737   C.2       1 RES1   0.0000
    13 H3      -4.7246   4.6873  -0.8303   H         1 RES1   0.0000
    14 C4      -3.1713   6.1376   4.7332   C.2       1 RES1   0.0000
    15 H4      -2.4597   6.2175   5.3424   H         1 RES1   0.0000
    16 C5      -4.2430   7.0218   4.6555   C.2       1 RES1   0.0000
    17 H5      -4.4033   7.7841   5.1819   H         1 RES1   0.0000
    18 C6      -5.0087   6.5272   3.6357   C.2       1 RES1   0.0000
    19 H6      -5.8134   6.9041   3.3318   H         1 RES1   0.0000
    20 C7      -2.4532   0.7124   3.6542   C.ar      1 RES1   0.0000
    21 C8      -3.0589  -0.4890   4.0094   C.ar      1 RES1   0.0000
    22 C9      -4.2613  -0.4246   4.7305   C.ar      1 RES1   0.0000
    23 H7      -4.6992  -1.2149   4.9884   H         1 RES1   0.0000
    24 C10     -4.7907   0.7931   5.0555   C.ar      1 RES1   0.0000
    25 H8      -5.5869   0.8520   5.5516   H         1 RES1   0.0000
    26 C11     -4.1292   1.9408   4.6358   C.ar      1 RES1   0.0000
    27 H9      -4.5089   2.7745   4.8490   H         1 RES1   0.0000
    28 C12     -2.4270  -1.7468   3.6292   C.ar      1 RES1   0.0000
    29 C13     -2.4417  -4.0119   3.6081   C.ar      1 RES1   0.0000
    30 H10     -2.8520  -4.8358   3.7989   H         1 RES1   0.0000
    31 B1      -4.9483   4.4631   2.0343   B         1 RES1  -1.0000
    32 H11     -5.7527   4.8414   1.6211   H         1 RES1   0.0000
    33 H12     -5.1852   3.5999   2.4330   H         1 RES1   0.0000
    34 N5A     -0.6473   1.9265   2.6288   N.ar      1 RES1   0.0000
    35 N6A     -0.5747  -2.8988   2.6304   N.ar      1 RES1   0.0000
    36 C7A     -1.1822   0.7124   2.9252   C.ar      1 RES1   0.0000
    37 C8A     -0.5765  -0.4890   2.5699   C.ar      1 RES1   0.0000
    38 C9A      0.6259  -0.4246   1.8488   C.ar      1 RES1   0.0000
    39 H7A      1.0637  -1.2149   1.5909   H         1 RES1   0.0000
    40 C10A     1.1553   0.7931   1.5238   C.ar      1 RES1   0.0000
    41 H8A      1.9514   0.8520   1.0277   H         1 RES1   0.0000
    42 C11A     0.4937   1.9408   1.9435   C.ar      1 RES1   0.0000
    43 H9A      0.8735   2.7745   1.7304   H         1 RES1   0.0000
    44 C12A    -1.2084  -1.7468   2.9502   C.ar      1 RES1   0.0000
    45 C13A    -1.1937  -4.0119   2.9712   C.ar      1 RES1   0.0000
    46 H10A    -0.7834  -4.8358   2.7804   H         1 RES1   0.0000
    47 N1A      0.2151   4.2562   5.6280   N.pl3     1 RES1   0.0000
    48 N2A     -1.0206   3.7756   5.3174   N.2       1 RES1   0.0000
    49 N3A      0.7978   5.4171   3.4462   N.pl3     1 RES1   0.0000
    50 N4A     -0.3499   5.1626   2.7475   N.2       1 RES1   0.0000
    51 C1A     -1.6536   3.6167   6.4872   C.2       1 RES1   0.0000
    52 H1A     -2.5314   3.2930   6.5727   H         1 RES1   0.0000
    53 C2A     -0.8576   3.9852   7.5465   C.2       1 RES1   0.0000
    54 H2A     -1.0686   3.9712   8.4610   H         1 RES1   0.0000
    55 C3A      0.3264   4.3804   6.9530   C.2       1 RES1   0.0000
    56 H3A      1.0892   4.6873   7.4096   H         1 RES1   0.0000
    57 C4A     -0.4641   6.1376   1.8462   C.2       1 RES1   0.0000
    58 H4A     -1.1757   6.2175   1.2369   H         1 RES1   0.0000
    59 C5A      0.6076   7.0218   1.9238   C.2       1 RES1   0.0000
    60 H5A      0.7678   7.7841   1.3974   H         1 RES1   0.0000
    61 C6A      1.3732   6.5272   2.9436   C.2       1 RES1   0.0000
    62 H6A      2.1780   6.9041   3.2476   H         1 RES1   0.0000
    63 B1A      1.3129   4.4631   4.5450   B         1 RES1  -1.0000
    64 H11A     2.1173   4.8414   4.9582   H         1 RES1   0.0000
    65 H12A     1.5498   3.5999   4.1463   H         1 RES1   0.0000
    66 N7      -2.9280  -3.3754   0.1184   N.ar      2 RES2   0.0000
    67 N8      -3.8064  -0.8251   0.5119   N.ar      2 RES2   0.0000
    68 N9      -7.8818  -2.4733   2.4909   N.ar      2 RES2   0.0000
    69 N10     -7.0187  -5.1161   2.0027   N.ar      2 RES2   0.0000
    70 C14     -4.1421  -3.2089   0.7000   C.ar      2 RES2   0.0000
    71 C15     -4.9598  -4.2837   1.0632   C.ar      2 RES2   0.0000
    72 C16     -4.5092  -5.5897   0.7856   C.ar      2 RES2   0.0000
    73 H13     -5.0367  -6.3352   1.0066   H         2 RES2   0.0000
    74 C17     -3.2978  -5.7565   0.1921   C.ar      2 RES2   0.0000
    75 H14     -2.9764  -6.6168  -0.0066   H         2 RES2   0.0000
    76 C18     -2.5440  -4.6284  -0.1158   C.ar      2 RES2   0.0000
    77 H15     -1.7044  -4.7601  -0.5171   H         2 RES2   0.0000
    78 C19     -4.6037  -1.8315   0.9185   C.ar      2 RES2   0.0000
    79 C20     -5.8665  -1.6115   1.5106   C.ar      2 RES2   0.0000
    80 C21     -6.2986  -0.2929   1.6409   C.ar      2 RES2   0.0000
    81 H16     -7.1369  -0.1065   2.0251   H         2 RES2   0.0000
    82 C22     -5.5026   0.7301   1.2080   C.ar      2 RES2   0.0000
    83 H17     -5.7841   1.6241   1.2777   H         2 RES2   0.0000
    84 C23     -4.2650   0.4148   0.6619   C.ar      2 RES2   0.0000
    85 H18     -3.7159   1.1238   0.3790   H         2 RES2   0.0000
    86 C24     -6.2548  -4.0413   1.6817   C.ar      2 RES2   0.0000
    87 C25     -6.6874  -2.7255   1.9172   C.ar      2 RES2   0.0000
    88 C26     -8.6134  -3.5228   2.7949   C.ar      2 RES2   0.0000
    89 H19     -9.4492  -3.3855   3.1989   H         2 RES2   0.0000
    90 C27     -8.2013  -4.8316   2.5422   C.ar      2 RES2   0.0000
    91 H20     -8.7813  -5.5393   2.7620   H         2 RES2   0.0000
@<TRIPOS>BOND
     1     1     3    1
     2     2     3    1
     3     3     8    2
     4     4     5    1
     5     5     1    1
     6     6     1    1
     7     7    28   ar
     8     8     9    1
     9    10     8    1
    10    11    10    1
    11    12     2    1
    12    13    12    1
    13    14     5    2
    14    15    14    1
    15    16    14    1
    16    17    16    1
    17    18     4    1
    18    19    18    1
    19    20     6   ar
    20    21    20   ar
    21    22    21   ar
    22    23    22    1
    23    24    22   ar
    24    25    24    1
    25    26     6   ar
    26    27    26    1
    27    28    21   ar
    28    29     7   ar
    29    30    29    1
    30    31     2    1
    31    32    31    1
    32    33    31    1
    33    34     1    1
    34    35    44   ar
    35    36    20   ar
    36    37    36   ar
    37    38    37   ar
    38    39    38    1
    39    40    38   ar
    40    41    40    1
    41    42    34   ar
    42    43    42    1
    43    44    28   ar
    44    45    29   ar
    45    46    45    1
    46    47    48    1
    47    48     1    1
    48    49    50    1
    49    50     1    1
    50    51    48    2
    51    52    51    1
    52    53    51    1
    53    54    53    1
    54    55    47    1
    55    56    55    1
    56    57    50    2
    57    58    57    1
    58    59    57    1
    59    60    59    1
    60    61    49    1
    61    62    61    1
    62    63    47    1
    63    64    63    1
    64    65    63    1
    65     4    31    1
    66    10    12    2
    67    16    18    2
    68    24    26   ar
    69    34    36   ar
    70    35    45   ar
    71    37    44   ar
    72    40    42   ar
    73    49    63    1
    74    53    55    2
    75    59    61    2
    76    66    70   ar
    77    67    78   ar
    78    68    87   ar
    79    69    86   ar
    80    70    71   ar
    81    71    72   ar
    82    72    73    1
    83    74    72   ar
    84    75    74    1
    85    76    66   ar
    86    77    76    1
    87    78    70   ar
    88    79    78   ar
    89    80    79   ar
    90    81    80    1
    91    82    80   ar
    92    83    82    1
    93    84    67   ar
    94    85    84    1
    95    86    71   ar
    96    87    79   ar
    97    88    68   ar
    98    89    88    1
    99    90    69   ar
   100    91    90    1
   101    74    76   ar
   102    82    84   ar
   103    86    87   ar
   104    88    90   ar
@<TRIPOS>SUBSTRUCTURE
     1 RES1        1 GROUP             0 ****  ****    0  
     2 RES2       66 GROUP             0 ****  ****    0  
@<TRIPOS>CRYSIN
   26.3250   14.0128   15.0338   90.0000  118.9230   90.0000    15     1
