@<TRIPOS>MOLECULE
WUCLAJ08
    91   104     2     0     0
SMALL
NO_CHARGES
****
Generated from the CSD

@<TRIPOS>ATOM
     1 Fe1     -1.8432   3.5804   3.2456   Fe        1 RES1   0.0000
     2 N1      -3.7219   4.1352   0.9690   N.ar      1 RES1   0.0000
     3 N2      -2.5126   3.6212   1.3440   N.ar      1 RES1   0.0000
     4 N3      -4.3102   5.3146   3.1083   N.ar      1 RES1   0.0000
     5 N4      -3.1330   5.0280   3.7530   N.ar      1 RES1   0.0000
     6 N5      -3.0230   2.0780   3.7855   N.ar      1 RES1   0.0000
     7 N6      -3.1056  -2.7661   3.8687   N.ar      1 RES1   0.0000
     8 C1      -1.8349   3.4124   0.2025   C.ar      1 RES1   0.0000
     9 H1      -0.9538   3.0608   0.1597   H         1 RES1   0.0000
    10 C2      -2.5882   3.7756  -0.9049   C.ar      1 RES1   0.0000
    11 H2      -2.3394   3.7261  -1.8215   H         1 RES1   0.0000
    12 C3      -3.7775   4.2254  -0.3713   C.ar      1 RES1   0.0000
    13 H3      -4.5189   4.5462  -0.8711   H         1 RES1   0.0000
    14 C4      -2.9737   5.9791   4.6750   C.ar      1 RES1   0.0000
    15 H4      -2.2327   6.0345   5.2670   H         1 RES1   0.0000
    16 C5      -4.0414   6.8863   4.6582   C.ar      1 RES1   0.0000
    17 H5      -4.1752   7.6444   5.2151   H         1 RES1   0.0000
    18 C6      -4.8519   6.4235   3.6481   C.ar      1 RES1   0.0000
    19 H6      -5.6692   6.8242   3.3742   H         1 RES1   0.0000
    20 C7      -2.4894   0.8438   3.5611   C.ar      1 RES1   0.0000
    21 C8      -3.1212  -0.3560   3.9078   C.ar      1 RES1   0.0000
    22 C9      -4.3488  -0.2711   4.5829   C.ar      1 RES1   0.0000
    23 H7      -4.8075  -1.0595   4.8503   H         1 RES1   0.0000
    24 C10     -4.8809   0.9671   4.8529   C.ar      1 RES1   0.0000
    25 H8      -5.7017   1.0429   5.3242   H         1 RES1   0.0000
    26 C11     -4.2059   2.1077   4.4297   C.ar      1 RES1   0.0000
    27 H9      -4.6002   2.9543   4.6049   H         1 RES1   0.0000
    28 C12     -2.4697  -1.6114   3.5637   C.ar      1 RES1   0.0000
    29 C13     -2.4761  -3.8836   3.5481   C.ar      1 RES1   0.0000
    30 H10     -2.8953  -4.7150   3.7351   H         1 RES1   0.0000
    31 B1      -4.8736   4.4301   1.9682   B         1 RES1   0.0000
    32 H11     -5.6126   4.9003   1.5060   H         1 RES1   0.0000
    33 H12     -5.2281   3.5822   2.3395   H         1 RES1   0.0000
    34 N5A     -0.6634   2.0780   2.7058   N.ar      1 RES1   0.0000
    35 N6A     -0.5808  -2.7661   2.6226   N.ar      1 RES1   0.0000
    36 C7A     -1.1969   0.8438   2.9302   C.ar      1 RES1   0.0000
    37 C8A     -0.5651  -0.3560   2.5835   C.ar      1 RES1   0.0000
    38 C9A      0.6625  -0.2711   1.9084   C.ar      1 RES1   0.0000
    39 H7A      1.1211  -1.0595   1.6410   H         1 RES1   0.0000
    40 C10A     1.1945   0.9671   1.6384   C.ar      1 RES1   0.0000
    41 H8A      2.0153   1.0429   1.1671   H         1 RES1   0.0000
    42 C11A     0.5195   2.1077   2.0616   C.ar      1 RES1   0.0000
    43 H9A      0.9138   2.9543   1.8864   H         1 RES1   0.0000
    44 C12A    -1.2166  -1.6114   2.9276   C.ar      1 RES1   0.0000
    45 C13A    -1.2103  -3.8836   2.9432   C.ar      1 RES1   0.0000
    46 H10A    -0.7911  -4.7150   2.7562   H         1 RES1   0.0000
    47 N1A      0.0356   4.1352   5.5223   N.ar      1 RES1   0.0000
    48 N2A     -1.1737   3.6212   5.1473   N.ar      1 RES1   0.0000
    49 N3A      0.6238   5.3146   3.3830   N.ar      1 RES1   0.0000
    50 N4A     -0.5534   5.0280   2.7383   N.ar      1 RES1   0.0000
    51 C1A     -1.8515   3.4124   6.2888   C.ar      1 RES1   0.0000
    52 H1A     -2.7326   3.0608   6.3316   H         1 RES1   0.0000
    53 C2A     -1.0982   3.7756   7.3962   C.ar      1 RES1   0.0000
    54 H2A     -1.3470   3.7261   8.3128   H         1 RES1   0.0000
    55 C3A      0.0912   4.2254   6.8626   C.ar      1 RES1   0.0000
    56 H3A      0.8325   4.5462   7.3624   H         1 RES1   0.0000
    57 C4A     -0.7126   5.9791   1.8163   C.ar      1 RES1   0.0000
    58 H4A     -1.4537   6.0345   1.2243   H         1 RES1   0.0000
    59 C5A      0.3550   6.8863   1.8331   C.ar      1 RES1   0.0000
    60 H5A      0.4888   7.6444   1.2762   H         1 RES1   0.0000
    61 C6A      1.1655   6.4235   2.8432   C.ar      1 RES1   0.0000
    62 H6A      1.9828   6.8242   3.1171   H         1 RES1   0.0000
    63 B1A      1.1872   4.4301   4.5231   B         1 RES1   0.0000
    64 H11A     1.9262   4.9003   4.9853   H         1 RES1   0.0000
    65 H12A     1.5417   3.5822   4.1518   H         1 RES1   0.0000
    66 N7      -2.8908  -3.3586   0.0797   N.ar      2 RES2   0.0000
    67 N8      -3.7819  -0.7975   0.4114   N.ar      2 RES2   0.0000
    68 N9      -7.8343  -2.4174   2.4837   N.ar      2 RES2   0.0000
    69 N10     -6.9645  -5.0678   2.0426   N.ar      2 RES2   0.0000
    70 C14     -4.1068  -3.1817   0.6556   C.ar      2 RES2   0.0000
    71 C15     -4.9250  -4.2609   1.0464   C.ar      2 RES2   0.0000
    72 C16     -4.4863  -5.5610   0.7686   C.ar      2 RES2   0.0000
    73 H13     -5.0231  -6.3097   1.0023   H         2 RES2   0.0000
    74 C17     -3.2778  -5.7390   0.1571   C.ar      2 RES2   0.0000
    75 H14     -2.9674  -6.6098  -0.0571   H         2 RES2   0.0000
    76 C18     -2.5100  -4.6088  -0.1441   C.ar      2 RES2   0.0000
    77 H15     -1.6563  -4.7468  -0.5375   H         2 RES2   0.0000
    78 C19     -4.5763  -1.7989   0.8556   C.ar      2 RES2   0.0000
    79 C20     -5.8342  -1.5748   1.4450   C.ar      2 RES2   0.0000
    80 C21     -6.2802  -0.2420   1.5436   C.ar      2 RES2   0.0000
    81 H16     -7.1232  -0.0470   1.9370   H         2 RES2   0.0000
    82 C22     -5.4925   0.7649   1.0698   C.ar      2 RES2   0.0000
    83 H17     -5.7864   1.6680   1.1074   H         2 RES2   0.0000
    84 C23     -4.2438   0.4454   0.5284   C.ar      2 RES2   0.0000
    85 H18     -3.6923   1.1577   0.2246   H         2 RES2   0.0000
    86 C24     -6.2075  -4.0041   1.6877   C.ar      2 RES2   0.0000
    87 C25     -6.6445  -2.6846   1.8942   C.ar      2 RES2   0.0000
    88 C26     -8.5606  -3.4633   2.8172   C.ar      2 RES2   0.0000
    89 H19     -9.4069  -3.3167   3.2275   H         2 RES2   0.0000
    90 C27     -8.1450  -4.7786   2.5965   C.ar      2 RES2   0.0000
    91 H20     -8.7209  -5.4909   2.8484   H         2 RES2   0.0000
@<TRIPOS>BOND
     1     1     3    1
     2     2     3   ar
     3     3     8   ar
     4     4     5   ar
     5     5     1    1
     6     6     1    1
     7     7    28   ar
     8     8     9    1
     9    10     8   ar
    10    11    10    1
    11    12     2   ar
    12    13    12    1
    13    14     5   ar
    14    15    14    1
    15    16    14   ar
    16    17    16    1
    17    18     4   ar
    18    19    18    1
    19    20     6   ar
    20    21    20   ar
    21    22    21   ar
    22    23    22    1
    23    24    22   ar
    24    25    24    1
    25    26     6   ar
    26    27    26    1
    27    28    21   ar
    28    29     7   ar
    29    30    29    1
    30    31     2    1
    31    32    31    1
    32    33    31    1
    33    34     1    1
    34    35    44   ar
    35    36    20   ar
    36    37    36   ar
    37    38    37   ar
    38    39    38    1
    39    40    38   ar
    40    41    40    1
    41    42    34   ar
    42    43    42    1
    43    44    28   ar
    44    45    29   ar
    45    46    45    1
    46    47    48   ar
    47    48     1    1
    48    49    50   ar
    49    50     1    1
    50    51    48   ar
    51    52    51    1
    52    53    51   ar
    53    54    53    1
    54    55    47   ar
    55    56    55    1
    56    57    50   ar
    57    58    57    1
    58    59    57   ar
    59    60    59    1
    60    61    49   ar
    61    62    61    1
    62    63    47    1
    63    64    63    1
    64    65    63    1
    65     4    31    1
    66    10    12   ar
    67    16    18   ar
    68    24    26   ar
    69    34    36   ar
    70    35    45   ar
    71    37    44   ar
    72    40    42   ar
    73    49    63    1
    74    53    55   ar
    75    59    61   ar
    76    66    70   ar
    77    67    78   ar
    78    68    87   ar
    79    69    86   ar
    80    70    71   ar
    81    71    72   ar
    82    72    73    1
    83    74    72   ar
    84    75    74    1
    85    76    66   ar
    86    77    76    1
    87    78    70   ar
    88    79    78   ar
    89    80    79   ar
    90    81    80    1
    91    82    80   ar
    92    83    82    1
    93    84    67   ar
    94    85    84    1
    95    86    71   ar
    96    87    79   ar
    97    88    68   ar
    98    89    88    1
    99    90    69   ar
   100    91    90    1
   101    74    76   ar
   102    82    84   ar
   103    86    87   ar
   104    88    90   ar
@<TRIPOS>SUBSTRUCTURE
     1 RES1        1 GROUP             0 ****  ****    0  
     2 RES2       66 GROUP             0 ****  ****    0  
@<TRIPOS>CRYSIN
   26.1535   13.8310   14.9300   90.0000  119.5920   90.0000    15     1
