@<TRIPOS>MOLECULE
WUCLAJ04
    91   104     2     0     0
SMALL
USER_CHARGES
****
Generated from the CSD

@<TRIPOS>ATOM
     1 Fe1     -1.8152   3.6892   3.2939   Fe        1 RES1   2.0000
     2 N1      -3.8561   4.2570   0.9579   N.pl3     1 RES1   0.0000
     3 N2      -2.6198   3.7763   1.2649   N.2       1 RES1   0.0000
     4 N3      -4.4318   5.4212   3.1437   N.pl3     1 RES1   0.0000
     5 N4      -3.2844   5.1707   3.8341   N.2       1 RES1   0.0000
     6 N5      -2.9854   1.9211   3.9503   N.ar      1 RES1   0.0000
     7 N6      -3.0575  -2.9046   3.9540   N.ar      1 RES1   0.0000
     8 C1      -1.9832   3.6192   0.1001   C.2       1 RES1   0.0000
     9 H1      -1.1020   3.3006   0.0158   H         1 RES1   0.0000
    10 C2      -2.7851   3.9868  -0.9645   C.2       1 RES1   0.0000
    11 H2      -2.5775   3.9686  -1.8815   H         1 RES1   0.0000
    12 C3      -3.9561   4.3854  -0.3702   C.2       1 RES1   0.0000
    13 H3      -4.7152   4.7025  -0.8274   H         1 RES1   0.0000
    14 C4      -3.1723   6.1479   4.7287   C.2       1 RES1   0.0000
    15 H4      -2.4585   6.2307   5.3361   H         1 RES1   0.0000
    16 C5      -4.2370   7.0250   4.6536   C.2       1 RES1   0.0000
    17 H5      -4.3953   7.7884   5.1793   H         1 RES1   0.0000
    18 C6      -5.0105   6.5296   3.6378   C.2       1 RES1   0.0000
    19 H6      -5.8182   6.9043   3.3348   H         1 RES1   0.0000
    20 C7      -2.4504   0.7170   3.6589   C.ar      1 RES1   0.0000
    21 C8      -3.0566  -0.4884   4.0159   C.ar      1 RES1   0.0000
    22 C9      -4.2549  -0.4280   4.7406   C.ar      1 RES1   0.0000
    23 H7      -4.6893  -1.2181   5.0054   H         1 RES1   0.0000
    24 C10     -4.7884   0.7929   5.0581   C.ar      1 RES1   0.0000
    25 H8      -5.5853   0.8546   5.5509   H         1 RES1   0.0000
    26 C11     -4.1275   1.9366   4.6365   C.ar      1 RES1   0.0000
    27 H9      -4.5066   2.7716   4.8460   H         1 RES1   0.0000
    28 C12     -2.4295  -1.7519   3.6391   C.ar      1 RES1   0.0000
    29 C13     -2.4383  -4.0135   3.6114   C.ar      1 RES1   0.0000
    30 H10     -2.8481  -4.8372   3.8012   H         1 RES1   0.0000
    31 B1      -4.9465   4.4668   2.0370   B         1 RES1  -1.0000
    32 H11     -5.7496   4.8471   1.6232   H         1 RES1   0.0000
    33 H12     -5.1872   3.6037   2.4335   H         1 RES1   0.0000
    34 N5A     -0.6450   1.9211   2.6375   N.ar      1 RES1   0.0000
    35 N6A     -0.5729  -2.9046   2.6338   N.ar      1 RES1   0.0000
    36 C7A     -1.1799   0.7170   2.9289   C.ar      1 RES1   0.0000
    37 C8A     -0.5738  -0.4884   2.5719   C.ar      1 RES1   0.0000
    38 C9A      0.6245  -0.4280   1.8472   C.ar      1 RES1   0.0000
    39 H7A      1.0589  -1.2181   1.5824   H         1 RES1   0.0000
    40 C10A     1.1581   0.7929   1.5297   C.ar      1 RES1   0.0000
    41 H8A      1.9549   0.8546   1.0369   H         1 RES1   0.0000
    42 C11A     0.4971   1.9366   1.9513   C.ar      1 RES1   0.0000
    43 H9A      0.8763   2.7716   1.7418   H         1 RES1   0.0000
    44 C12A    -1.2008  -1.7519   2.9487   C.ar      1 RES1   0.0000
    45 C13A    -1.1921  -4.0135   2.9764   C.ar      1 RES1   0.0000
    46 H10A    -0.7822  -4.8372   2.7866   H         1 RES1   0.0000
    47 N1A      0.2257   4.2570   5.6300   N.pl3     1 RES1   0.0000
    48 N2A     -1.0105   3.7763   5.3230   N.2       1 RES1   0.0000
    49 N3A      0.8014   5.4212   3.4441   N.pl3     1 RES1   0.0000
    50 N4A     -0.3460   5.1707   2.7537   N.2       1 RES1   0.0000
    51 C1A     -1.6471   3.6192   6.4877   C.2       1 RES1   0.0000
    52 H1A     -2.5284   3.3006   6.5720   H         1 RES1   0.0000
    53 C2A     -0.8452   3.9868   7.5523   C.2       1 RES1   0.0000
    54 H2A     -1.0529   3.9686   8.4693   H         1 RES1   0.0000
    55 C3A      0.3257   4.3854   6.9581   C.2       1 RES1   0.0000
    56 H3A      1.0848   4.7025   7.4152   H         1 RES1   0.0000
    57 C4A     -0.4581   6.1479   1.8591   C.2       1 RES1   0.0000
    58 H4A     -1.1719   6.2307   1.2517   H         1 RES1   0.0000
    59 C5A      0.6067   7.0250   1.9342   C.2       1 RES1   0.0000
    60 H5A      0.7649   7.7884   1.4085   H         1 RES1   0.0000
    61 C6A      1.3801   6.5296   2.9500   C.2       1 RES1   0.0000
    62 H6A      2.1878   6.9043   3.2531   H         1 RES1   0.0000
    63 B1A      1.3161   4.4668   4.5509   B         1 RES1  -1.0000
    64 H11A     2.1192   4.8471   4.9646   H         1 RES1   0.0000
    65 H12A     1.5568   3.6037   4.1543   H         1 RES1   0.0000
    66 N7      -2.9283  -3.3744   0.1186   N.ar      2 RES2   0.0000
    67 N8      -3.8057  -0.8254   0.5099   N.ar      2 RES2   0.0000
    68 N9      -7.8821  -2.4811   2.4928   N.ar      2 RES2   0.0000
    69 N10     -7.0221  -5.1193   2.0053   N.ar      2 RES2   0.0000
    70 C14     -4.1446  -3.2094   0.7023   C.ar      2 RES2   0.0000
    71 C15     -4.9558  -4.2899   1.0633   C.ar      2 RES2   0.0000
    72 C16     -4.5126  -5.5894   0.7892   C.ar      2 RES2   0.0000
    73 H13     -5.0413  -6.3346   1.0119   H         2 RES2   0.0000
    74 C17     -3.2977  -5.7536   0.1937   C.ar      2 RES2   0.0000
    75 H14     -2.9743  -6.6124  -0.0092   H         2 RES2   0.0000
    76 C18     -2.5448  -4.6239  -0.1080   C.ar      2 RES2   0.0000
    77 H15     -1.7017  -4.7559  -0.5020   H         2 RES2   0.0000
    78 C19     -4.6086  -1.8313   0.9170   C.ar      2 RES2   0.0000
    79 C20     -5.8634  -1.6096   1.5099   C.ar      2 RES2   0.0000
    80 C21     -6.3037  -0.2905   1.6430   C.ar      2 RES2   0.0000
    81 H16     -7.1395  -0.1038   2.0277   H         2 RES2   0.0000
    82 C22     -5.5036   0.7227   1.2056   C.ar      2 RES2   0.0000
    83 H17     -5.7876   1.6166   1.2714   H         2 RES2   0.0000
    84 C23     -4.2605   0.4112   0.6601   C.ar      2 RES2   0.0000
    85 H18     -3.7116   1.1213   0.3821   H         2 RES2   0.0000
    86 C24     -6.2519  -4.0458   1.6891   C.ar      2 RES2   0.0000
    87 C25     -6.6855  -2.7351   1.9157   C.ar      2 RES2   0.0000
    88 C26     -8.6177  -3.5265   2.7946   C.ar      2 RES2   0.0000
    89 H19     -9.4568  -3.3890   3.1925   H         2 RES2   0.0000
    90 C27     -8.2014  -4.8288   2.5469   C.ar      2 RES2   0.0000
    91 H20     -8.7800  -5.5361   2.7722   H         2 RES2   0.0000
@<TRIPOS>BOND
     1     1     3    1
     2     2     3    1
     3     3     8    2
     4     4     5    1
     5     5     1    1
     6     6     1    1
     7     7    28   ar
     8     8     9    1
     9    10     8    1
    10    11    10    1
    11    12     2    1
    12    13    12    1
    13    14     5    2
    14    15    14    1
    15    16    14    1
    16    17    16    1
    17    18     4    1
    18    19    18    1
    19    20     6   ar
    20    21    20   ar
    21    22    21   ar
    22    23    22    1
    23    24    22   ar
    24    25    24    1
    25    26     6   ar
    26    27    26    1
    27    28    21   ar
    28    29     7   ar
    29    30    29    1
    30    31     2    1
    31    32    31    1
    32    33    31    1
    33    34     1    1
    34    35    44   ar
    35    36    20   ar
    36    37    36   ar
    37    38    37   ar
    38    39    38    1
    39    40    38   ar
    40    41    40    1
    41    42    34   ar
    42    43    42    1
    43    44    28   ar
    44    45    29   ar
    45    46    45    1
    46    47    48    1
    47    48     1    1
    48    49    50    1
    49    50     1    1
    50    51    48    2
    51    52    51    1
    52    53    51    1
    53    54    53    1
    54    55    47    1
    55    56    55    1
    56    57    50    2
    57    58    57    1
    58    59    57    1
    59    60    59    1
    60    61    49    1
    61    62    61    1
    62    63    47    1
    63    64    63    1
    64    65    63    1
    65     4    31    1
    66    10    12    2
    67    16    18    2
    68    24    26   ar
    69    34    36   ar
    70    35    45   ar
    71    37    44   ar
    72    40    42   ar
    73    49    63    1
    74    53    55    2
    75    59    61    2
    76    66    70   ar
    77    67    78   ar
    78    68    87   ar
    79    69    86   ar
    80    70    71   ar
    81    71    72   ar
    82    72    73    1
    83    74    72   ar
    84    75    74    1
    85    76    66   ar
    86    77    76    1
    87    78    70   ar
    88    79    78   ar
    89    80    79   ar
    90    81    80    1
    91    82    80   ar
    92    83    82    1
    93    84    67   ar
    94    85    84    1
    95    86    71   ar
    96    87    79   ar
    97    88    68   ar
    98    89    88    1
    99    90    69   ar
   100    91    90    1
   101    74    76   ar
   102    82    84   ar
   103    86    87   ar
   104    88    90   ar
@<TRIPOS>SUBSTRUCTURE
     1 RES1        1 GROUP             0 ****  ****    0  
     2 RES2       66 GROUP             0 ****  ****    0  
@<TRIPOS>CRYSIN
   26.3433   14.0332   15.0438   90.0000  118.8580   90.0000    15     1
