@<TRIPOS>MOLECULE
WUCLAJ06
    91   104     2     0     0
SMALL
USER_CHARGES
****
Generated from the CSD

@<TRIPOS>ATOM
     1 Fe1     -1.8126   3.6935   3.3044   Fe        1 RES1   2.0000
     2 N1      -3.8529   4.2711   0.9689   N.pl3     1 RES1   0.0000
     3 N2      -2.6190   3.7840   1.2663   N.2       1 RES1   0.0000
     4 N3      -4.4291   5.4299   3.1551   N.pl3     1 RES1   0.0000
     5 N4      -3.2842   5.1755   3.8477   N.2       1 RES1   0.0000
     6 N5      -2.9808   1.9204   3.9653   N.ar      1 RES1   0.0000
     7 N6      -3.0440  -2.9027   3.9680   N.ar      1 RES1   0.0000
     8 C1      -1.9894   3.6255   0.1031   C.2       1 RES1   0.0000
     9 H1      -1.1212   3.3021   0.0198   H         1 RES1   0.0000
    10 C2      -2.7795   3.9996  -0.9596   C.2       1 RES1   0.0000
    11 H2      -2.5716   3.9842  -1.8650   H         1 RES1   0.0000
    12 C3      -3.9496   4.4018  -0.3622   C.2       1 RES1   0.0000
    13 H3      -4.6988   4.7183  -0.8142   H         1 RES1   0.0000
    14 C4      -3.1706   6.1541   4.7412   C.2       1 RES1   0.0000
    15 H4      -2.4657   6.2371   5.3413   H         1 RES1   0.0000
    16 C5      -4.2304   7.0275   4.6646   C.2       1 RES1   0.0000
    17 H5      -4.3859   7.7799   5.1880   H         1 RES1   0.0000
    18 C6      -5.0019   6.5423   3.6521   C.2       1 RES1   0.0000
    19 H6      -5.7965   6.9206   3.3507   H         1 RES1   0.0000
    20 C7      -2.4468   0.7144   3.6693   C.ar      1 RES1   0.0000
    21 C8      -3.0528  -0.4936   4.0288   C.ar      1 RES1   0.0000
    22 C9      -4.2499  -0.4317   4.7491   C.ar      1 RES1   0.0000
    23 H7      -4.6815  -1.2137   5.0056   H         1 RES1   0.0000
    24 C10     -4.7844   0.7904   5.0769   C.ar      1 RES1   0.0000
    25 H8      -5.5694   0.8522   5.5713   H         1 RES1   0.0000
    26 C11     -4.1168   1.9379   4.6487   C.ar      1 RES1   0.0000
    27 H9      -4.4907   2.7635   4.8549   H         1 RES1   0.0000
    28 C12     -2.4256  -1.7551   3.6455   C.ar      1 RES1   0.0000
    29 C13     -2.4345  -4.0123   3.6296   C.ar      1 RES1   0.0000
    30 H10     -2.8393  -4.8266   3.8252   H         1 RES1   0.0000
    31 B1      -4.9375   4.4722   2.0448   B         1 RES1  -1.0000
    32 H11     -5.1690   3.6157   2.4374   H         1 RES1   0.0000
    33 H12     -5.7351   4.8420   1.6377   H         1 RES1   0.0000
    34 N5A     -0.6444   1.9204   2.6436   N.ar      1 RES1   0.0000
    35 N6A     -0.5812  -2.9027   2.6409   N.ar      1 RES1   0.0000
    36 C7A     -1.1784   0.7144   2.9396   C.ar      1 RES1   0.0000
    37 C8A     -0.5724  -0.4936   2.5801   C.ar      1 RES1   0.0000
    38 C9A      0.6248  -0.4317   1.8597   C.ar      1 RES1   0.0000
    39 H7A      1.0563  -1.2137   1.6033   H         1 RES1   0.0000
    40 C10A     1.1593   0.7904   1.5319   C.ar      1 RES1   0.0000
    41 H8A      1.9442   0.8522   1.0376   H         1 RES1   0.0000
    42 C11A     0.4916   1.9379   1.9602   C.ar      1 RES1   0.0000
    43 H9A      0.8655   2.7635   1.7540   H         1 RES1   0.0000
    44 C12A    -1.1996  -1.7551   2.9634   C.ar      1 RES1   0.0000
    45 C13A    -1.1906  -4.0123   2.9793   C.ar      1 RES1   0.0000
    46 H10A    -0.7858  -4.8266   2.7837   H         1 RES1   0.0000
    47 N1A      0.2277   4.2711   5.6400   N.pl3     1 RES1   0.0000
    48 N2A     -1.0061   3.7840   5.3426   N.2       1 RES1   0.0000
    49 N3A      0.8040   5.4299   3.4538   N.pl3     1 RES1   0.0000
    50 N4A     -0.3410   5.1755   2.7612   N.2       1 RES1   0.0000
    51 C1A     -1.6357   3.6255   6.5058   C.2       1 RES1   0.0000
    52 H1A     -2.5040   3.3021   6.5891   H         1 RES1   0.0000
    53 C2A     -0.8457   3.9996   7.5685   C.2       1 RES1   0.0000
    54 H2A     -1.0535   3.9842   8.4739   H         1 RES1   0.0000
    55 C3A      0.3244   4.4018   6.9711   C.2       1 RES1   0.0000
    56 H3A      1.0736   4.7183   7.4231   H         1 RES1   0.0000
    57 C4A     -0.4545   6.1541   1.8677   C.2       1 RES1   0.0000
    58 H4A     -1.1595   6.2371   1.2676   H         1 RES1   0.0000
    59 C5A      0.6053   7.0275   1.9443   C.2       1 RES1   0.0000
    60 H5A      0.7608   7.7799   1.4209   H         1 RES1   0.0000
    61 C6A      1.3767   6.5423   2.9568   C.2       1 RES1   0.0000
    62 H6A      2.1714   6.9206   3.2582   H         1 RES1   0.0000
    63 B1A      1.3124   4.4722   4.5641   B         1 RES1  -1.0000
    64 H11A     1.5438   3.6157   4.1715   H         1 RES1   0.0000
    65 H12A     2.1100   4.8420   4.9712   H         1 RES1   0.0000
    66 N7      -2.9398  -3.3724   0.1203   N.ar      2 RES2   0.0000
    67 N8      -3.8131  -0.8283   0.5089   N.ar      2 RES2   0.0000
    68 N9      -7.8896  -2.4780   2.5048   N.ar      2 RES2   0.0000
    69 N10     -7.0103  -5.1219   2.0117   N.ar      2 RES2   0.0000
    70 C14     -4.1534  -3.2121   0.6966   C.ar      2 RES2   0.0000
    71 C15     -4.9563  -4.2907   1.0693   C.ar      2 RES2   0.0000
    72 C16     -4.5095  -5.5888   0.7917   C.ar      2 RES2   0.0000
    73 H13     -5.0363  -6.3243   1.0032   H         2 RES2   0.0000
    74 C17     -3.3011  -5.7547   0.2115   C.ar      2 RES2   0.0000
    75 H14     -2.9769  -6.6070   0.0278   H         2 RES2   0.0000
    76 C18     -2.5538  -4.6297  -0.1018   C.ar      2 RES2   0.0000
    77 H15     -1.7226  -4.7619  -0.4943   H         2 RES2   0.0000
    78 C19     -4.6156  -1.8339   0.9160   C.ar      2 RES2   0.0000
    79 C20     -5.8650  -1.6131   1.5081   C.ar      2 RES2   0.0000
    80 C21     -6.3014  -0.2981   1.6430   C.ar      2 RES2   0.0000
    81 H16     -7.1295  -0.1167   2.0210   H         2 RES2   0.0000
    82 C22     -5.5090   0.7130   1.2187   C.ar      2 RES2   0.0000
    83 H17     -5.7895   1.5962   1.2993   H         2 RES2   0.0000
    84 C23     -4.2628   0.4149   0.6556   C.ar      2 RES2   0.0000
    85 H18     -3.7245   1.1180   0.3714   H         2 RES2   0.0000
    86 C24     -6.2556  -4.0489   1.6985   C.ar      2 RES2   0.0000
    87 C25     -6.6940  -2.7367   1.9285   C.ar      2 RES2   0.0000
    88 C26     -8.6085  -3.5468   2.8075   C.ar      2 RES2   0.0000
    89 H19     -9.4399  -3.4216   3.2040   H         2 RES2   0.0000
    90 C27     -8.1840  -4.8462   2.5616   C.ar      2 RES2   0.0000
    91 H20     -8.7469  -5.5508   2.7916   H         2 RES2   0.0000
@<TRIPOS>BOND
     1     1     3    1
     2     2     3    1
     3     3     8    2
     4     4     5    1
     5     5     1    1
     6     6     1    1
     7     7    28   ar
     8     8     9    1
     9    10     8    1
    10    11    10    1
    11    12     2    1
    12    13    12    1
    13    14     5    2
    14    15    14    1
    15    16    14    1
    16    17    16    1
    17    18     4    1
    18    19    18    1
    19    20     6   ar
    20    21    20   ar
    21    22    21   ar
    22    23    22    1
    23    24    22   ar
    24    25    24    1
    25    26     6   ar
    26    27    26    1
    27    28    21   ar
    28    29     7   ar
    29    30    29    1
    30    31     2    1
    31    32    31    1
    32    33    31    1
    33    34     1    1
    34    35    44   ar
    35    36    20   ar
    36    37    36   ar
    37    38    37   ar
    38    39    38    1
    39    40    38   ar
    40    41    40    1
    41    42    34   ar
    42    43    42    1
    43    44    28   ar
    44    45    29   ar
    45    46    45    1
    46    47    48    1
    47    48     1    1
    48    49    50    1
    49    50     1    1
    50    51    48    2
    51    52    51    1
    52    53    51    1
    53    54    53    1
    54    55    47    1
    55    56    55    1
    56    57    50    2
    57    58    57    1
    58    59    57    1
    59    60    59    1
    60    61    49    1
    61    62    61    1
    62    63    47    1
    63    64    63    1
    64    65    63    1
    65     4    31    1
    66    10    12    2
    67    16    18    2
    68    24    26   ar
    69    34    36   ar
    70    35    45   ar
    71    37    44   ar
    72    40    42   ar
    73    49    63    1
    74    53    55    2
    75    59    61    2
    76    66    70   ar
    77    67    78   ar
    78    68    87   ar
    79    69    86   ar
    80    70    71   ar
    81    71    72   ar
    82    72    73    1
    83    74    72   ar
    84    75    74    1
    85    76    66   ar
    86    77    76    1
    87    78    70   ar
    88    79    78   ar
    89    80    79   ar
    90    81    80    1
    91    82    80   ar
    92    83    82    1
    93    84    67   ar
    94    85    84    1
    95    86    71   ar
    96    87    79   ar
    97    88    68   ar
    98    89    88    1
    99    90    69   ar
   100    91    90    1
   101    74    76   ar
   102    82    84   ar
   103    86    87   ar
   104    88    90   ar
@<TRIPOS>SUBSTRUCTURE
     1 RES1        1 GROUP             0 ****  ****    0  
     2 RES2       66 GROUP             0 ****  ****    0  
@<TRIPOS>CRYSIN
   26.3730   14.0634   15.0757   90.0000  118.7460   90.0000    15     1
