@<TRIPOS>MOLECULE
WUCLAJ
    91   104     2     0     0
SMALL
USER_CHARGES
****
Generated from the CSD

@<TRIPOS>ATOM
     1 Fe1     -1.8256   3.6562   3.2693   Fe        1 RES1   2.0000
     2 N1      -3.8195   4.2195   0.9507   N.pl3     1 RES1   0.0000
     3 N2      -2.5834   3.7313   1.2820   N.2       1 RES1   0.0000
     4 N3      -4.4009   5.3842   3.1254   N.pl3     1 RES1   0.0000
     5 N4      -3.2445   5.1263   3.7992   N.2       1 RES1   0.0000
     6 N5      -3.0000   1.9684   3.8905   N.ar      1 RES1   0.0000
     7 N6      -3.0685  -2.8600   3.9154   N.ar      1 RES1   0.0000
     8 C1      -1.9386   3.5618   0.1151   C.2       1 RES1   0.0000
     9 H1      -1.0507   3.2356   0.0379   H         1 RES1   0.0000
    10 C2      -2.7318   3.9243  -0.9586   C.2       1 RES1   0.0000
    11 H2      -2.5123   3.8964  -1.8831   H         1 RES1   0.0000
    12 C3      -3.9147   4.3341  -0.3806   C.2       1 RES1   0.0000
    13 H3      -4.6766   4.6478  -0.8526   H         1 RES1   0.0000
    14 C4      -3.1232   6.0962   4.7066   C.2       1 RES1   0.0000
    15 H4      -2.3978   6.1729   5.3147   H         1 RES1   0.0000
    16 C5      -4.1928   6.9758   4.6490   C.2       1 RES1   0.0000
    17 H5      -4.3480   7.7412   5.1904   H         1 RES1   0.0000
    18 C6      -4.9761   6.4907   3.6329   C.2       1 RES1   0.0000
    19 H6      -5.7936   6.8741   3.3347   H         1 RES1   0.0000
    20 C7      -2.4667   0.7543   3.6198   C.ar      1 RES1   0.0000
    21 C8      -3.0791  -0.4482   3.9729   C.ar      1 RES1   0.0000
    22 C9      -4.2877  -0.3834   4.6817   C.ar      1 RES1   0.0000
    23 H7      -4.7334  -1.1794   4.9446   H         1 RES1   0.0000
    24 C10     -4.8196   0.8448   4.9903   C.ar      1 RES1   0.0000
    25 H8      -5.6304   0.9103   5.4834   H         1 RES1   0.0000
    26 C11     -4.1524   1.9935   4.5692   C.ar      1 RES1   0.0000
    27 H9      -4.5360   2.8383   4.7746   H         1 RES1   0.0000
    28 C12     -2.4409  -1.7067   3.6041   C.ar      1 RES1   0.0000
    29 C13     -2.4530  -3.9703   3.5845   C.ar      1 RES1   0.0000
    30 H10     -2.8687  -4.8025   3.7781   H         1 RES1   0.0000
    31 B1      -4.9295   4.4526   2.0087   B         1 RES1  -1.0000
    32 H11     -5.7209   4.8624   1.5771   H         1 RES1   0.0000
    33 H12     -5.2051   3.5855   2.3984   H         1 RES1   0.0000
    34 N5A     -0.6512   1.9684   2.6482   N.ar      1 RES1   0.0000
    35 N6A     -0.5827  -2.8600   2.6233   N.ar      1 RES1   0.0000
    36 C7A     -1.1845   0.7543   2.9189   C.ar      1 RES1   0.0000
    37 C8A     -0.5721  -0.4482   2.5658   C.ar      1 RES1   0.0000
    38 C9A      0.6365  -0.3834   1.8570   C.ar      1 RES1   0.0000
    39 H7A      1.0821  -1.1794   1.5941   H         1 RES1   0.0000
    40 C10A     1.1684   0.8448   1.5484   C.ar      1 RES1   0.0000
    41 H8A      1.9792   0.9103   1.0553   H         1 RES1   0.0000
    42 C11A     0.5012   1.9935   1.9695   C.ar      1 RES1   0.0000
    43 H9A      0.8848   2.8383   1.7641   H         1 RES1   0.0000
    44 C12A    -1.2103  -1.7067   2.9346   C.ar      1 RES1   0.0000
    45 C13A    -1.1982  -3.9703   2.9542   C.ar      1 RES1   0.0000
    46 H10A    -0.7826  -4.8025   2.7606   H         1 RES1   0.0000
    47 N1A      0.1683   4.2195   5.5880   N.pl3     1 RES1   0.0000
    48 N2A     -1.0678   3.7313   5.2567   N.2       1 RES1   0.0000
    49 N3A      0.7497   5.3842   3.4133   N.pl3     1 RES1   0.0000
    50 N4A     -0.4067   5.1263   2.7395   N.2       1 RES1   0.0000
    51 C1A     -1.7126   3.5618   6.4236   C.2       1 RES1   0.0000
    52 H1A     -2.6005   3.2356   6.5008   H         1 RES1   0.0000
    53 C2A     -0.9194   3.9243   7.4973   C.2       1 RES1   0.0000
    54 H2A     -1.1389   3.8964   8.4218   H         1 RES1   0.0000
    55 C3A      0.2634   4.3341   6.9192   C.2       1 RES1   0.0000
    56 H3A      1.0254   4.6478   7.3913   H         1 RES1   0.0000
    57 C4A     -0.5280   6.0962   1.8321   C.2       1 RES1   0.0000
    58 H4A     -1.2534   6.1729   1.2240   H         1 RES1   0.0000
    59 C5A      0.5416   6.9758   1.8897   C.2       1 RES1   0.0000
    60 H5A      0.6968   7.7412   1.3483   H         1 RES1   0.0000
    61 C6A      1.3248   6.4907   2.9058   C.2       1 RES1   0.0000
    62 H6A      2.1424   6.8741   3.2040   H         1 RES1   0.0000
    63 B1A      1.2782   4.4526   4.5300   B         1 RES1  -1.0000
    64 H11A     2.0696   4.8624   4.9616   H         1 RES1   0.0000
    65 H12A     1.5539   3.5855   4.1403   H         1 RES1   0.0000
    66 N7      -2.9121  -3.3673   0.1099   N.ar      2 RES2   0.0000
    67 N8      -3.7968  -0.8158   0.4826   N.ar      2 RES2   0.0000
    68 N9      -7.8704  -2.4563   2.4782   N.ar      2 RES2   0.0000
    69 N10     -7.0039  -5.1004   2.0091   N.ar      2 RES2   0.0000
    70 C14     -4.1239  -3.2020   0.6879   C.ar      2 RES2   0.0000
    71 C15     -4.9464  -4.2783   1.0527   C.ar      2 RES2   0.0000
    72 C16     -4.5062  -5.5804   0.7729   C.ar      2 RES2   0.0000
    73 H13     -5.0451  -6.3318   0.9926   H         2 RES2   0.0000
    74 C17     -3.2911  -5.7505   0.1805   C.ar      2 RES2   0.0000
    75 H14     -2.9691  -6.6217  -0.0209   H         2 RES2   0.0000
    76 C18     -2.5285  -4.6213  -0.1242   C.ar      2 RES2   0.0000
    77 H15     -1.6788  -4.7565  -0.5257   H         2 RES2   0.0000
    78 C19     -4.5943  -1.8209   0.9010   C.ar      2 RES2   0.0000
    79 C20     -5.8522  -1.5990   1.4869   C.ar      2 RES2   0.0000
    80 C21     -6.2902  -0.2732   1.6072   C.ar      2 RES2   0.0000
    81 H16     -7.1356  -0.0836   1.9943   H         2 RES2   0.0000
    82 C22     -5.4966   0.7416   1.1652   C.ar      2 RES2   0.0000
    83 H17     -5.7844   1.6450   1.2254   H         2 RES2   0.0000
    84 C23     -4.2481   0.4266   0.6225   C.ar      2 RES2   0.0000
    85 H18     -3.6911   1.1403   0.3361   H         2 RES2   0.0000
    86 C24     -6.2411  -4.0330   1.6778   C.ar      2 RES2   0.0000
    87 C25     -6.6726  -2.7170   1.9041   C.ar      2 RES2   0.0000
    88 C26     -8.6084  -3.5060   2.7868   C.ar      2 RES2   0.0000
    89 H19     -9.4569  -3.3652   3.1883   H         2 RES2   0.0000
    90 C27     -8.1871  -4.8164   2.5436   C.ar      2 RES2   0.0000
    91 H20     -8.7688  -5.5316   2.7698   H         2 RES2   0.0000
@<TRIPOS>BOND
     1     1     3    1
     2     2     3    1
     3     3     8    2
     4     4     5    1
     5     5     1    1
     6     6     1    1
     7     7    28   ar
     8     8     9    1
     9    10     8    1
    10    11    10    1
    11    12     2    1
    12    13    12    1
    13    14     5    2
    14    15    14    1
    15    16    14    1
    16    17    16    1
    17    18     4    1
    18    19    18    1
    19    20     6   ar
    20    21    20   ar
    21    22    21   ar
    22    23    22    1
    23    24    22   ar
    24    25    24    1
    25    26     6   ar
    26    27    26    1
    27    28    21   ar
    28    29     7   ar
    29    30    29    1
    30    31     2    1
    31    32    31    1
    32    33    31    1
    33    34     1    1
    34    35    44   ar
    35    36    20   ar
    36    37    36   ar
    37    38    37   ar
    38    39    38    1
    39    40    38   ar
    40    41    40    1
    41    42    34   ar
    42    43    42    1
    43    44    28   ar
    44    45    29   ar
    45    46    45    1
    46    47    48    1
    47    48     1    1
    48    49    50    1
    49    50     1    1
    50    51    48    2
    51    52    51    1
    52    53    51    1
    53    54    53    1
    54    55    47    1
    55    56    55    1
    56    57    50    2
    57    58    57    1
    58    59    57    1
    59    60    59    1
    60    61    49    1
    61    62    61    1
    62    63    47    1
    63    64    63    1
    64    65    63    1
    65     4    31    1
    66    10    12    2
    67    16    18    2
    68    24    26   ar
    69    34    36   ar
    70    35    45   ar
    71    37    44   ar
    72    40    42   ar
    73    49    63    1
    74    53    55    2
    75    59    61    2
    76    66    70   ar
    77    67    78   ar
    78    68    87   ar
    79    69    86   ar
    80    70    71   ar
    81    71    72   ar
    82    72    73    1
    83    74    72   ar
    84    75    74    1
    85    76    66   ar
    86    77    76    1
    87    78    70   ar
    88    79    78   ar
    89    80    79   ar
    90    81    80    1
    91    82    80   ar
    92    83    82    1
    93    84    67   ar
    94    85    84    1
    95    86    71   ar
    96    87    79   ar
    97    88    68   ar
    98    89    88    1
    99    90    69   ar
   100    91    90    1
   101    74    76   ar
   102    82    84   ar
   103    86    87   ar
   104    88    90   ar
@<TRIPOS>SUBSTRUCTURE
     1 RES1        1 GROUP             0 ****  ****    0  
     2 RES2       66 GROUP             0 ****  ****    0  
@<TRIPOS>CRYSIN
   26.2625   13.9405   14.9781   90.0000  119.1790   90.0000    15     1
