@<TRIPOS>MOLECULE
WUCLAJ02
    91   104     2     0     0
SMALL
USER_CHARGES
****
Generated from the CSD

@<TRIPOS>ATOM
     1 Fe1     -1.8198   3.6812   3.2856   Fe        1 RES1   2.0000
     2 N1      -3.8486   4.2497   0.9522   N.pl3     1 RES1   0.0000
     3 N2      -2.6133   3.7691   1.2598   N.2       1 RES1   0.0000
     4 N3      -4.4320   5.4131   3.1334   N.pl3     1 RES1   0.0000
     5 N4      -3.2835   5.1598   3.8246   N.2       1 RES1   0.0000
     6 N5      -2.9927   1.9267   3.9401   N.ar      1 RES1   0.0000
     7 N6      -3.0649  -2.8942   3.9453   N.ar      1 RES1   0.0000
     8 C1      -1.9788   3.6113   0.0933   C.2       1 RES1   0.0000
     9 H1      -1.0892   3.2893   0.0092   H         1 RES1   0.0000
    10 C2      -2.7758   3.9710  -0.9699   C.2       1 RES1   0.0000
    11 H2      -2.5631   3.9500  -1.8951   H         1 RES1   0.0000
    12 C3      -3.9593   4.3699  -0.3772   C.2       1 RES1   0.0000
    13 H3      -4.7297   4.6806  -0.8385   H         1 RES1   0.0000
    14 C4      -3.1701   6.1377   4.7273   C.2       1 RES1   0.0000
    15 H4      -2.4504   6.2203   5.3411   H         1 RES1   0.0000
    16 C5      -4.2347   7.0111   4.6537   C.2       1 RES1   0.0000
    17 H5      -4.3947   7.7796   5.1886   H         1 RES1   0.0000
    18 C6      -5.0077   6.5240   3.6365   C.2       1 RES1   0.0000
    19 H6      -5.8211   6.9076   3.3316   H         1 RES1   0.0000
    20 C7      -2.4576   0.7210   3.6470   C.ar      1 RES1   0.0000
    21 C8      -3.0661  -0.4850   4.0032   C.ar      1 RES1   0.0000
    22 C9      -4.2660  -0.4269   4.7220   C.ar      1 RES1   0.0000
    23 H7      -4.7093  -1.2261   4.9823   H         1 RES1   0.0000
    24 C10     -4.7953   0.8006   5.0453   C.ar      1 RES1   0.0000
    25 H8      -5.5962   0.8650   5.5526   H         1 RES1   0.0000
    26 C11     -4.1348   1.9442   4.6182   C.ar      1 RES1   0.0000
    27 H9      -4.5205   2.7882   4.8219   H         1 RES1   0.0000
    28 C12     -2.4296  -1.7453   3.6312   C.ar      1 RES1   0.0000
    29 C13     -2.4435  -4.0088   3.5997   C.ar      1 RES1   0.0000
    30 H10     -2.8602  -4.8416   3.7863   H         1 RES1   0.0000
    31 B1      -4.9473   4.4637   2.0266   B         1 RES1  -1.0000
    32 H11     -5.7540   4.8528   1.6047   H         1 RES1   0.0000
    33 H12     -5.1978   3.5931   2.4248   H         1 RES1   0.0000
    34 N5A     -0.6469   1.9267   2.6311   N.ar      1 RES1   0.0000
    35 N6A     -0.5748  -2.8942   2.6258   N.ar      1 RES1   0.0000
    36 C7A     -1.1820   0.7210   2.9242   C.ar      1 RES1   0.0000
    37 C8A     -0.5735  -0.4850   2.5680   C.ar      1 RES1   0.0000
    38 C9A      0.6264  -0.4269   1.8491   C.ar      1 RES1   0.0000
    39 H7A      1.0697  -1.2261   1.5889   H         1 RES1   0.0000
    40 C10A     1.1557   0.8006   1.5258   C.ar      1 RES1   0.0000
    41 H8A      1.9566   0.8650   1.0185   H         1 RES1   0.0000
    42 C11A     0.4952   1.9442   1.9530   C.ar      1 RES1   0.0000
    43 H9A      0.8809   2.7882   1.7492   H         1 RES1   0.0000
    44 C12A    -1.2100  -1.7453   2.9399   C.ar      1 RES1   0.0000
    45 C13A    -1.1962  -4.0088   2.9715   C.ar      1 RES1   0.0000
    46 H10A    -0.7794  -4.8416   2.7849   H         1 RES1   0.0000
    47 N1A      0.2089   4.2497   5.6190   N.pl3     1 RES1   0.0000
    48 N2A     -1.0263   3.7691   5.3113   N.2       1 RES1   0.0000
    49 N3A      0.7924   5.4131   3.4378   N.pl3     1 RES1   0.0000
    50 N4A     -0.3562   5.1598   2.7466   N.2       1 RES1   0.0000
    51 C1A     -1.6608   3.6113   6.4779   C.2       1 RES1   0.0000
    52 H1A     -2.5504   3.2893   6.5620   H         1 RES1   0.0000
    53 C2A     -0.8638   3.9710   7.5411   C.2       1 RES1   0.0000
    54 H2A     -1.0766   3.9500   8.4663   H         1 RES1   0.0000
    55 C3A      0.3197   4.3699   6.9484   C.2       1 RES1   0.0000
    56 H3A      1.0901   4.6806   7.4097   H         1 RES1   0.0000
    57 C4A     -0.4695   6.1377   1.8439   C.2       1 RES1   0.0000
    58 H4A     -1.1892   6.2203   1.2301   H         1 RES1   0.0000
    59 C5A      0.5951   7.0111   1.9175   C.2       1 RES1   0.0000
    60 H5A      0.7551   7.7796   1.3826   H         1 RES1   0.0000
    61 C6A      1.3681   6.5240   2.9347   C.2       1 RES1   0.0000
    62 H6A      2.1815   6.9076   3.2396   H         1 RES1   0.0000
    63 B1A      1.3076   4.4637   4.5446   B         1 RES1  -1.0000
    64 H11A     2.1144   4.8528   4.9665   H         1 RES1   0.0000
    65 H12A     1.5582   3.5931   4.1464   H         1 RES1   0.0000
    66 N7      -2.9225  -3.3769   0.1183   N.ar      2 RES2   0.0000
    67 N8      -3.8046  -0.8226   0.5047   N.ar      2 RES2   0.0000
    68 N9      -7.8830  -2.4705   2.4865   N.ar      2 RES2   0.0000
    69 N10     -7.0195  -5.1171   2.0016   N.ar      2 RES2   0.0000
    70 C14     -4.1397  -3.2067   0.6992   C.ar      2 RES2   0.0000
    71 C15     -4.9560  -4.2845   1.0632   C.ar      2 RES2   0.0000
    72 C16     -4.5063  -5.5904   0.7820   C.ar      2 RES2   0.0000
    73 H13     -5.0410  -6.3449   1.0014   H         2 RES2   0.0000
    74 C17     -3.3008  -5.7514   0.1932   C.ar      2 RES2   0.0000
    75 H14     -2.9766  -6.6206  -0.0131   H         2 RES2   0.0000
    76 C18     -2.5375  -4.6232  -0.1104   C.ar      2 RES2   0.0000
    77 H15     -1.6853  -4.7576  -0.5060   H         2 RES2   0.0000
    78 C19     -4.5984  -1.8286   0.9160   C.ar      2 RES2   0.0000
    79 C20     -5.8669  -1.6125   1.5074   C.ar      2 RES2   0.0000
    80 C21     -6.2985  -0.2855   1.6297   C.ar      2 RES2   0.0000
    81 H16     -7.1479  -0.0980   2.0121   H         2 RES2   0.0000
    82 C22     -5.5067   0.7306   1.2038   C.ar      2 RES2   0.0000
    83 H17     -5.7942   1.6335   1.2735   H         2 RES2   0.0000
    84 C23     -4.2584   0.4213   0.6597   C.ar      2 RES2   0.0000
    85 H18     -3.6997   1.1394   0.3851   H         2 RES2   0.0000
    86 C24     -6.2500  -4.0480   1.6822   C.ar      2 RES2   0.0000
    87 C25     -6.6875  -2.7322   1.9109   C.ar      2 RES2   0.0000
    88 C26     -8.6174  -3.5273   2.7849   C.ar      2 RES2   0.0000
    89 H19     -9.4669  -3.3901   3.1870   H         2 RES2   0.0000
    90 C27     -8.2022  -4.8262   2.5365   C.ar      2 RES2   0.0000
    91 H20     -8.7883  -5.5401   2.7599   H         2 RES2   0.0000
@<TRIPOS>BOND
     1     1     3    1
     2     2     3    1
     3     3     8    2
     4     4     5    1
     5     5     1    1
     6     6     1    1
     7     7    28   ar
     8     8     9    1
     9    10     8    1
    10    11    10    1
    11    12     2    1
    12    13    12    1
    13    14     5    2
    14    15    14    1
    15    16    14    1
    16    17    16    1
    17    18     4    1
    18    19    18    1
    19    20     6   ar
    20    21    20   ar
    21    22    21   ar
    22    23    22    1
    23    24    22   ar
    24    25    24    1
    25    26     6   ar
    26    27    26    1
    27    28    21   ar
    28    29     7   ar
    29    30    29    1
    30    31     2    1
    31    32    31    1
    32    33    31    1
    33    34     1    1
    34    35    44   ar
    35    36    20   ar
    36    37    36   ar
    37    38    37   ar
    38    39    38    1
    39    40    38   ar
    40    41    40    1
    41    42    34   ar
    42    43    42    1
    43    44    28   ar
    44    45    29   ar
    45    46    45    1
    46    47    48    1
    47    48     1    1
    48    49    50    1
    49    50     1    1
    50    51    48    2
    51    52    51    1
    52    53    51    1
    53    54    53    1
    54    55    47    1
    55    56    55    1
    56    57    50    2
    57    58    57    1
    58    59    57    1
    59    60    59    1
    60    61    49    1
    61    62    61    1
    62    63    47    1
    63    64    63    1
    64    65    63    1
    65     4    31    1
    66    10    12    2
    67    16    18    2
    68    24    26   ar
    69    34    36   ar
    70    35    45   ar
    71    37    44   ar
    72    40    42   ar
    73    49    63    1
    74    53    55    2
    75    59    61    2
    76    66    70   ar
    77    67    78   ar
    78    68    87   ar
    79    69    86   ar
    80    70    71   ar
    81    71    72   ar
    82    72    73    1
    83    74    72   ar
    84    75    74    1
    85    76    66   ar
    86    77    76    1
    87    78    70   ar
    88    79    78   ar
    89    80    79   ar
    90    81    80    1
    91    82    80   ar
    92    83    82    1
    93    84    67   ar
    94    85    84    1
    95    86    71   ar
    96    87    79   ar
    97    88    68   ar
    98    89    88    1
    99    90    69   ar
   100    91    90    1
   101    74    76   ar
   102    82    84   ar
   103    86    87   ar
   104    88    90   ar
@<TRIPOS>SUBSTRUCTURE
     1 RES1        1 GROUP             0 ****  ****    0  
     2 RES2       66 GROUP             0 ****  ****    0  
@<TRIPOS>CRYSIN
   26.3126   13.9971   15.0236   90.0000  118.9810   90.0000    15     1
