@<TRIPOS>MOLECULE
WUCQOC
    77    89     1     0     0
SMALL
USER_CHARGES
****
Generated from the CSD

@<TRIPOS>ATOM
     1 Fe1      6.8956   5.5332   4.6159   Fe        1 RES1   2.0000
     2 B1       8.9847   4.2002   7.0015   B         1 RES1  -1.0000
     3 H1       9.4912   3.6817   7.6756   H         1 RES1   0.0000
     4 H2       9.3568   5.1170   6.9659   H         1 RES1   0.0000
     5 N1       7.4813   4.2465   7.3796   N.pl3     1 RES1   0.0000
     6 N2       6.5906   5.0091   6.6877   N.2       1 RES1   0.0000
     7 C1       5.3831   4.7727   7.2309   C.2       1 RES1   0.0000
     8 H3       4.5718   5.1679   6.9364   H         1 RES1   0.0000
     9 C2       5.4858   3.8748   8.2769   C.2       1 RES1   0.0000
    10 H4       4.7893   3.5518   8.8363   H         1 RES1   0.0000
    11 C3       6.8229   3.5561   8.3234   C.2       1 RES1   0.0000
    12 H5       7.2191   2.9417   8.9309   H         1 RES1   0.0000
    13 N3       9.0899   3.5207   5.6088   N.pl3     1 RES1   0.0000
    14 N4       8.5686   4.1043   4.4997   N.2       1 RES1   0.0000
    15 C4       8.8370   3.2693   3.4791   C.2       1 RES1   0.0000
    16 H6       8.6006   3.4261   2.5725   H         1 RES1   0.0000
    17 C5       9.5108   2.1388   3.9409   C.2       1 RES1   0.0000
    18 H7       9.8104   1.3937   3.4341   H         1 RES1   0.0000
    19 C6       9.6456   2.3428   5.2891   C.2       1 RES1   0.0000
    20 H8      10.0649   1.7455   5.8981   H         1 RES1   0.0000
    21 B2       3.7525   5.5095   3.2327   B         1 RES1  -1.0000
    22 H9       2.7926   5.4387   3.0002   H         1 RES1   0.0000
    23 H10      4.2436   5.8311   2.4361   H         1 RES1   0.0000
    24 N5       4.2926   4.1286   3.6639   N.pl3     1 RES1   0.0000
    25 N6       5.5971   3.9330   3.9915   N.2       1 RES1   0.0000
    26 C7       5.7146   2.6253   4.2798   C.2       1 RES1   0.0000
    27 H11      6.5212   2.1999   4.5468   H         1 RES1   0.0000
    28 C8       4.5037   1.9870   4.1330   C.2       1 RES1   0.0000
    29 H12      4.3154   1.0656   4.2679   H         1 RES1   0.0000
    30 C9       3.6252   2.9736   3.7503   C.2       1 RES1   0.0000
    31 H13      2.6997   2.8532   3.5751   H         1 RES1   0.0000
    32 N7       3.9401   6.5096   4.4100   N.pl3     1 RES1   0.0000
    33 N8       5.1727   6.8565   4.8632   N.2       1 RES1   0.0000
    34 C10      4.9642   7.8010   5.7974   C.2       1 RES1   0.0000
    35 H14      5.6537   8.2256   6.2933   H         1 RES1   0.0000
    36 C11      3.6186   8.0728   5.9415   C.2       1 RES1   0.0000
    37 H15      3.2115   8.7034   6.5242   H         1 RES1   0.0000
    38 C12      2.9971   7.2190   5.0489   C.2       1 RES1   0.0000
    39 H16      2.0597   7.1469   4.9110   H         1 RES1   0.0000
    40 N9       8.1749   7.3089   4.8234   N.ar      1 RES1   0.0000
    41 C13      8.6790   7.8199   3.6701   C.ar      1 RES1   0.0000
    42 C14      9.5304   8.9212   3.6432   C.ar      1 RES1   0.0000
    43 C15      9.8400   9.5444   4.8575   C.ar      1 RES1   0.0000
    44 H17     10.4084  10.3049   4.8738   H         1 RES1   0.0000
    45 C16      9.3177   9.0465   6.0235   C.ar      1 RES1   0.0000
    46 H18      9.5072   9.4635   6.8558   H         1 RES1   0.0000
    47 C17      8.5006   7.9179   5.9626   C.ar      1 RES1   0.0000
    48 H19      8.1598   7.5645   6.7753   H         1 RES1   0.0000
    49 N10      7.4093   6.1189   2.5457   N.ar      1 RES1   0.0000
    50 C18      8.2699   7.1490   2.4299   C.ar      1 RES1   0.0000
    51 C19      8.7518   7.6050   1.1894   C.ar      1 RES1   0.0000
    52 C20      8.2984   6.9556   0.0409   C.ar      1 RES1   0.0000
    53 H20      8.5882   7.2404  -0.8182   H         1 RES1   0.0000
    54 C21      7.4226   5.8939   0.1650   C.ar      1 RES1   0.0000
    55 H21      7.1094   5.4350  -0.6059   H         1 RES1   0.0000
    56 C22      7.0079   5.5069   1.4311   C.ar      1 RES1   0.0000
    57 H22      6.4104   4.7715   1.5079   H         1 RES1   0.0000
    58 C23     10.0997   9.3748   2.3699   C.ar      1 RES1   0.0000
    59 C24      9.7044   8.7143   1.1403   C.ar      1 RES1   0.0000
    60 N11     10.1855   9.0939  -0.0332   N.ar      1 RES1   0.0000
    61 C25     11.0736  10.1288  -0.0389   C.ar      1 RES1   0.0000
    62 C26     11.4824  10.7591   1.1906   C.ar      1 RES1   0.0000
    63 N12     10.9692  10.3547   2.3907   N.ar      1 RES1   0.0000
    64 C27     12.4265  11.7832   1.1637   C.ar      1 RES1   0.0000
    65 H23     12.7020  12.1836   1.9790   H         1 RES1   0.0000
    66 C28     12.9741  12.2314  -0.0356   C.ar      1 RES1   0.0000
    67 C29     12.5452  11.6202  -1.2698   C.ar      1 RES1   0.0000
    68 C30     11.6124  10.5865  -1.2452   C.ar      1 RES1   0.0000
    69 H24     11.3368  10.1848  -2.0611   H         1 RES1   0.0000
    70 C31     13.9671  13.2641  -0.0821   C.ar      1 RES1   0.0000
    71 H25     14.2593  13.6704   0.7253   H         1 RES1   0.0000
    72 C32     14.4896  13.6677  -1.2584   C.ar      1 RES1   0.0000
    73 H26     15.1495  14.3507  -1.2661   H         1 RES1   0.0000
    74 C33     14.0681  13.0835  -2.4873   C.ar      1 RES1   0.0000
    75 H27     14.4501  13.3784  -3.3055   H         1 RES1   0.0000
    76 C34     13.1171  12.1016  -2.4935   C.ar      1 RES1   0.0000
    77 H28     12.8314  11.7328  -3.3210   H         1 RES1   0.0000
@<TRIPOS>BOND
     1     1     6    1
     2     2     3    1
     3     4     2    1
     4     5     2    1
     5     6     5    1
     6     7     6    2
     7     8     7    1
     8     9     7    1
     9    10     9    1
    10    11     5    1
    11    12    11    1
    12    13     2    1
    13    14     1    1
    14    15    14    2
    15    16    15    1
    16    17    15    1
    17    18    17    1
    18    19    13    1
    19    20    19    1
    20    21    22    1
    21    23    21    1
    22    24    21    1
    23    25     1    1
    24    26    25    2
    25    27    26    1
    26    28    26    1
    27    29    28    1
    28    30    24    1
    29    31    30    1
    30    32    21    1
    31    33     1    1
    32    34    33    2
    33    35    34    1
    34    36    34    1
    35    37    36    1
    36    38    32    1
    37    39    38    1
    38    40     1    1
    39    41    40   ar
    40    42    41   ar
    41    43    42   ar
    42    44    43    1
    43    45    43   ar
    44    46    45    1
    45    47    40   ar
    46    48    47    1
    47    49     1    1
    48    50    41   ar
    49    51    50   ar
    50    52    51   ar
    51    53    52    1
    52    54    52   ar
    53    55    54    1
    54    56    49   ar
    55    57    56    1
    56    58    42   ar
    57    59    51   ar
    58    60    59   ar
    59    61    60   ar
    60    62    61   ar
    61    63    58   ar
    62    64    62   ar
    63    65    64    1
    64    66    64   ar
    65    67    66   ar
    66    68    61   ar
    67    69    68    1
    68    70    66   ar
    69    71    70    1
    70    72    70   ar
    71    73    72    1
    72    74    72   ar
    73    75    74    1
    74    76    67   ar
    75    77    76    1
    76     9    11    2
    77    13    14    1
    78    17    19    2
    79    24    25    1
    80    28    30    2
    81    32    33    1
    82    36    38    2
    83    45    47   ar
    84    49    50   ar
    85    54    56   ar
    86    58    59   ar
    87    62    63   ar
    88    67    68   ar
    89    74    76   ar
@<TRIPOS>SUBSTRUCTURE
     1 RES1        1 GROUP             0 ****  ****    0  
@<TRIPOS>CRYSIN
    9.2401   11.2022   16.0929   75.9370   82.6850   87.5010     2     1
