@<TRIPOS>MOLECULE
WUKDIQ01
    83    82     1     0     0
SMALL
NO_CHARGES
****
Generated from the CSD

@<TRIPOS>ATOM
     1 Fe1      2.0894   7.8703   4.8427   Fe        1 RES1   0.0000
     2 P1       2.1056   5.6927   4.3411   P.3       1 RES1   0.0000
     3 P2       3.9567   8.2229   3.6709   P.3       1 RES1   0.0000
     4 P3       0.6894   7.5277   6.5485   P.3       1 RES1   0.0000
     5 P4       1.5905  10.0470   4.8152   P.3       1 RES1   0.0000
     6 Si1      5.2392   7.9873   8.6611   Si        1 RES1   0.0000
     7 Si2     -0.9759   7.9146   0.9635   Si        1 RES1   0.0000
     8 C1       3.3520   7.8753   6.2923   C.1       1 RES1   0.0000
     9 C2       4.1456   7.8908   7.2326   C.1       1 RES1   0.0000
    10 C3       6.6974   6.8407   8.4606   C.3       1 RES1   0.0000
    11 H1       7.1942   7.0819   7.6519   H         1 RES1   0.0000
    12 H2       6.3779   5.9170   8.3859   H         1 RES1   0.0000
    13 H3       7.2855   6.9197   9.2406   H         1 RES1   0.0000
    14 C4       4.3155   7.5063  10.2189   C.3       1 RES1   0.0000
    15 H4       3.5443   8.0982  10.3367   H         1 RES1   0.0000
    16 H5       4.9131   7.5885  10.9921   H         1 RES1   0.0000
    17 H6       4.0063   6.5795  10.1432   H         1 RES1   0.0000
    18 C5       5.8930   9.7265   8.8606   C.3       1 RES1   0.0000
    19 H7       6.3792   9.9877   8.0505   H         1 RES1   0.0000
    20 H8       6.4984   9.7612   9.6296   H         1 RES1   0.0000
    21 H9       5.1444  10.3426   9.0049   H         1 RES1   0.0000
    22 C6       0.8378   7.8683   3.3919   C.1       1 RES1   0.0000
    23 C7       0.0473   7.8613   2.4474   C.1       1 RES1   0.0000
    24 C8      -2.3945   6.7006   1.0839   C.3       1 RES1   0.0000
    25 H10     -2.0406   5.7938   1.1958   H         1 RES1   0.0000
    26 H11     -2.9317   6.7427   0.2645   H         1 RES1   0.0000
    27 H12     -2.9562   6.9291   1.8550   H         1 RES1   0.0000
    28 C9      -1.6881   9.6275   0.7510   C.3       1 RES1   0.0000
    29 H13     -2.2434   9.8497   1.5273   H         1 RES1   0.0000
    30 H14     -2.2356   9.6549  -0.0613   H         1 RES1   0.0000
    31 H15     -0.9586  10.2773   0.6746   H         1 RES1   0.0000
    32 C10      0.0731   7.4937  -0.5251   C.3       1 RES1   0.0000
    33 H16      0.4431   6.5921  -0.4197   H         1 RES1   0.0000
    34 H17      0.8044   8.1403  -0.6017   H         1 RES1   0.0000
    35 H18     -0.4789   7.5274  -1.3338   H         1 RES1   0.0000
    36 C11      3.1876   4.5562   5.2933   C.3       1 RES1   0.0000
    37 H19      3.0819   3.6431   4.9537   H         1 RES1   0.0000
    38 H20      2.9376   4.5836   6.2396   H         1 RES1   0.0000
    39 H21      4.1209   4.8353   5.1952   H         1 RES1   0.0000
    40 C12      0.5021   4.7890   4.3809   C.3       1 RES1   0.0000
    41 H22      0.6497   3.8506   4.1412   H         1 RES1   0.0000
    42 H23     -0.1187   5.1955   3.7407   H         1 RES1   0.0000
    43 H24      0.1199   4.8406   5.2814   H         1 RES1   0.0000
    44 C13      2.5263   5.2219   2.6170   C.3       1 RES1   0.0000
    45 H25      2.4988   4.2455   2.5296   H         1 RES1   0.0000
    46 H26      3.4267   5.5431   2.4012   H         1 RES1   0.0000
    47 H27      1.8782   5.6242   2.0007   H         1 RES1   0.0000
    48 C14      5.3135   7.0050   3.8561   C.3       1 RES1   0.0000
    49 H28      6.0710   7.2714   3.2942   H         1 RES1   0.0000
    50 H29      4.9979   6.1192   3.5797   H         1 RES1   0.0000
    51 H30      5.5976   6.9734   4.7928   H         1 RES1   0.0000
    52 C15      3.8728   8.4047   1.8449   C.3       1 RES1   0.0000
    53 H31      4.7740   8.5532   1.4890   H         1 RES1   0.0000
    54 H32      3.3033   9.1693   1.6193   H         1 RES1   0.0000
    55 H33      3.4954   7.5895   1.4526   H         1 RES1   0.0000
    56 C16      4.9699   9.6738   4.1316   C.3       1 RES1   0.0000
    57 H34      5.7569   9.7212   3.5491   H         1 RES1   0.0000
    58 H35      5.2590   9.5885   5.0649   H         1 RES1   0.0000
    59 H36      4.4377  10.4901   4.0281   H         1 RES1   0.0000
    60 C17     -1.1061   7.3336   6.2097   C.3       1 RES1   0.0000
    61 H37     -1.5849   7.1903   7.0540   H         1 RES1   0.0000
    62 H38     -1.2466   6.5626   5.6206   H         1 RES1   0.0000
    63 H39     -1.4461   8.1435   5.7739   H         1 RES1   0.0000
    64 C18      0.6733   8.7660   7.9082   C.3       1 RES1   0.0000
    65 H40      0.0204   8.4963   8.5871   H         1 RES1   0.0000
    66 H41      0.4276   9.6433   7.5485   H         1 RES1   0.0000
    67 H42      1.5635   8.8165   8.3131   H         1 RES1   0.0000
    68 C19      1.0262   6.0845   7.6334   C.3       1 RES1   0.0000
    69 H43      0.3474   6.0413   8.3399   H         1 RES1   0.0000
    70 H44      1.9126   6.1803   8.0390   H         1 RES1   0.0000
    71 H45      0.9966   5.2619   7.1020   H         1 RES1   0.0000
    72 C20      2.3849  11.1799   6.0252   C.3       1 RES1   0.0000
    73 H46      2.0602  12.0931   5.8793   H         1 RES1   0.0000
    74 H47      3.3570  11.1557   5.9062   H         1 RES1   0.0000
    75 H48      2.1607  10.8956   6.9352   H         1 RES1   0.0000
    76 C21      1.8405  10.9714   3.2449   C.3       1 RES1   0.0000
    77 H49      1.5839  11.9077   3.3728   H         1 RES1   0.0000
    78 H50      1.2872  10.5743   2.5411   H         1 RES1   0.0000
    79 H51      2.7851  10.9229   2.9837   H         1 RES1   0.0000
    80 C22     -0.1750  10.5017   4.9855   C.3       1 RES1   0.0000
    81 H52     -0.2647  11.4769   4.9595   H         1 RES1   0.0000
    82 H53     -0.5181  10.1646   5.8391   H         1 RES1   0.0000
    83 H54     -0.6870  10.1067   4.2485   H         1 RES1   0.0000
@<TRIPOS>BOND
     1     1     2    1
     2     2    36    1
     3     3     1    1
     4     4     1    1
     5     5     1    1
     6     6     9    1
     7     7    23    1
     8     8     1    1
     9     9     8    3
    10    10     6    1
    11    11    10    1
    12    12    10    1
    13    13    10    1
    14    14     6    1
    15    15    14    1
    16    16    14    1
    17    17    14    1
    18    18     6    1
    19    19    18    1
    20    20    18    1
    21    21    18    1
    22    22     1    1
    23    23    22    3
    24    24     7    1
    25    25    24    1
    26    26    24    1
    27    27    24    1
    28    28     7    1
    29    29    28    1
    30    30    28    1
    31    31    28    1
    32    32     7    1
    33    33    32    1
    34    34    32    1
    35    35    32    1
    36    36    37    1
    37    38    36    1
    38    39    36    1
    39    40     2    1
    40    41    40    1
    41    42    40    1
    42    43    40    1
    43    44     2    1
    44    45    44    1
    45    46    44    1
    46    47    44    1
    47    48     3    1
    48    49    48    1
    49    50    48    1
    50    51    48    1
    51    52     3    1
    52    53    52    1
    53    54    52    1
    54    55    52    1
    55    56     3    1
    56    57    56    1
    57    58    56    1
    58    59    56    1
    59    60     4    1
    60    61    60    1
    61    62    60    1
    62    63    60    1
    63    64     4    1
    64    65    64    1
    65    66    64    1
    66    67    64    1
    67    68     4    1
    68    69    68    1
    69    70    68    1
    70    71    68    1
    71    72     5    1
    72    73    72    1
    73    74    72    1
    74    75    72    1
    75    76     5    1
    76    77    76    1
    77    78    76    1
    78    79    76    1
    79    80     5    1
    80    81    80    1
    81    82    80    1
    82    83    80    1
@<TRIPOS>SUBSTRUCTURE
     1 RES1        1 GROUP             0 ****  ****    0  
@<TRIPOS>CRYSIN
   15.9860   10.5322   20.6710   90.0000  112.0180   90.0000    14     1
