@<TRIPOS>MOLECULE
WUKDIQ
    83    82     1     0     0
SMALL
NO_CHARGES
****
Generated from the CSD

@<TRIPOS>ATOM
     1 C1      12.0914   2.6775   7.1496   C.1       1 RES1   0.0000
     2 C2      14.5293   3.8505   8.4970   C.3       1 RES1   0.0000
     3 H1      15.0795   3.6239   7.7439   H         1 RES1   0.0000
     4 H2      15.0551   3.8166   9.2995   H         1 RES1   0.0000
     5 H3      14.1782   4.7366   8.3826   H         1 RES1   0.0000
     6 C3      12.0663   3.0501  10.1232   C.3       1 RES1   0.0000
     7 H4      11.7669   3.9595  10.0592   H         1 RES1   0.0000
     8 H5      12.5878   2.9400  10.9204   H         1 RES1   0.0000
     9 H6      11.3051   2.4647  10.1551   H         1 RES1   0.0000
    10 C4      13.8371   0.9179   8.8411   C.3       1 RES1   0.0000
    11 H7      13.1265   0.2763   8.9140   H         1 RES1   0.0000
    12 H8      14.3735   0.8935   9.6371   H         1 RES1   0.0000
    13 H9      14.3851   0.7030   8.0815   H         1 RES1   0.0000
    14 C5       8.7898   2.6711   3.2899   C.1       1 RES1   0.0000
    15 C6       7.9850   2.6584   2.3494   C.1       1 RES1   0.0000
    16 C7       5.4351   3.7129   1.1202   C.3       1 RES1   0.0000
    17 H10      4.9313   3.4598   1.8971   H         1 RES1   0.0000
    18 H11      4.8748   3.6589   0.3434   H         1 RES1   0.0000
    19 H12      5.7529   4.6128   1.2257   H         1 RES1   0.0000
    20 C8       7.8230   3.0353  -0.6370   C.3       1 RES1   0.0000
    21 H13      8.0597   3.9648  -0.5966   H         1 RES1   0.0000
    22 H14      7.2668   2.8807  -1.4041   H         1 RES1   0.0000
    23 H15      8.6192   2.5038  -0.7078   H         1 RES1   0.0000
    24 C9       6.2277   0.8226   0.7220   C.3       1 RES1   0.0000
    25 H16      6.9603   0.2149   0.5908   H         1 RES1   0.0000
    26 H17      5.6432   0.7877  -0.0384   H         1 RES1   0.0000
    27 H18      5.7429   0.5717   1.5116   H         1 RES1   0.0000
    28 C10     11.1182   4.4561   1.9524   C.3       1 RES1   0.0000
    29 H19     11.2382   5.2670   2.4515   H         1 RES1   0.0000
    30 H20     10.2158   4.4095   1.6286   H         1 RES1   0.0000
    31 H21     11.7264   4.4455   1.2104   H         1 RES1   0.0000
    32 C11     11.4740   1.7649   1.6832   C.3       1 RES1   0.0000
    33 H22     12.1417   2.0052   1.0358   H         1 RES1   0.0000
    34 H23     10.6118   1.7384   1.2603   H         1 RES1   0.0000
    35 H24     11.6777   0.8999   2.0467   H         1 RES1   0.0000
    36 C12     13.2418   3.2089   3.3797   C.3       1 RES1   0.0000
    37 H25     13.7080   3.3762   2.5570   H         1 RES1   0.0000
    38 H26     13.5817   2.4064   3.7827   H         1 RES1   0.0000
    39 H27     13.3742   3.9490   3.9784   H         1 RES1   0.0000
    40 C13      6.8157   3.5519   5.7307   C.3       1 RES1   0.0000
    41 H28      6.0641   3.2799   6.2611   H         1 RES1   0.0000
    42 H29      6.5545   3.6028   4.8090   H         1 RES1   0.0000
    43 H30      7.1211   4.4137   6.0251   H         1 RES1   0.0000
    44 C14      7.1431   0.8671   5.4485   C.3       1 RES1   0.0000
    45 H31      7.6312   0.0603   5.6281   H         1 RES1   0.0000
    46 H32      6.9305   0.9115   4.5136   H         1 RES1   0.0000
    47 H33      6.3311   0.8703   5.9618   H         1 RES1   0.0000
    48 C15      8.2600   2.1439   7.7391   C.3       1 RES1   0.0000
    49 H34      8.6282   2.9432   8.1237   H         1 RES1   0.0000
    50 H35      8.8184   1.3954   7.9587   H         1 RES1   0.0000
    51 H36      7.3763   1.9978   8.0891   H         1 RES1   0.0000
    52 C16      9.7448  -0.6458   3.5669   C.3       1 RES1   0.0000
    53 H37      9.8462  -0.2922   2.6798   H         1 RES1   0.0000
    54 H38      8.8120  -0.7305   3.7731   H         1 RES1   0.0000
    55 H39     10.1624  -1.5086   3.6158   H         1 RES1   0.0000
    56 C17     12.3029   0.0275   4.6057   C.3       1 RES1   0.0000
    57 H40     12.3966  -0.9211   4.7227   H         1 RES1   0.0000
    58 H41     12.8193   0.4838   5.2732   H         1 RES1   0.0000
    59 H42     12.6164   0.2753   3.7329   H         1 RES1   0.0000
    60 C18     10.2798  -0.4298   6.3485   C.3       1 RES1   0.0000
    61 H43     10.6149  -1.3244   6.2572   H         1 RES1   0.0000
    62 H44      9.3414  -0.4595   6.5488   H         1 RES1   0.0000
    63 H45     10.7444   0.0148   7.0610   H         1 RES1   0.0000
    64 C19      8.9470   6.0028   4.2865   C.3       1 RES1   0.0000
    65 H46      8.0380   5.7022   4.3390   H         1 RES1   0.0000
    66 H47      9.2275   6.0155   3.3684   H         1 RES1   0.0000
    67 H48      9.0146   6.8879   4.6536   H         1 RES1   0.0000
    68 C20     11.6296   5.7720   5.1999   C.3       1 RES1   0.0000
    69 H49     11.4973   6.6656   5.5226   H         1 RES1   0.0000
    70 H50     11.9561   5.8027   4.2987   H         1 RES1   0.0000
    71 H51     12.2678   5.3210   5.7566   H         1 RES1   0.0000
    72 C21      9.6038   5.3380   6.9653   C.3       1 RES1   0.0000
    73 H52      9.6402   6.2940   7.0495   H         1 RES1   0.0000
    74 H53     10.2317   4.9388   7.5712   H         1 RES1   0.0000
    75 H54      8.7188   5.0309   7.1722   H         1 RES1   0.0000
    76 C22     11.2933   2.6764   6.2003   C.1       1 RES1   0.0000
    77 Si1      6.8887   2.5593   0.9215   Si        1 RES1   0.0000
    78 Si2     13.1147   2.6301   8.6266   Si        1 RES1   0.0000
    79 Fe1     10.0449   2.6747   4.7440   Fe        1 RES1   0.0000
    80 P1      11.4537   3.0123   3.0398   P.3       1 RES1   0.0000
    81 P2       8.1726   2.3264   5.9156   P.3       1 RES1   0.0000
    82 P3      10.5405   0.4894   4.7748   P.3       1 RES1   0.0000
    83 P4      10.0289   4.8601   5.2419   P.3       1 RES1   0.0000
@<TRIPOS>BOND
     1     1    76    3
     2     2     3    1
     3     4     2    1
     4     5     2    1
     5     6     7    1
     6     8     6    1
     7     9     6    1
     8    10    11    1
     9    12    10    1
    10    13    10    1
    11    14    15    3
    12    15    77    1
    13    16    17    1
    14    18    16    1
    15    19    16    1
    16    20    21    1
    17    22    20    1
    18    23    20    1
    19    24    25    1
    20    26    24    1
    21    27    24    1
    22    28    29    1
    23    30    28    1
    24    31    28    1
    25    32    33    1
    26    34    32    1
    27    35    32    1
    28    36    37    1
    29    38    36    1
    30    39    36    1
    31    40    41    1
    32    42    40    1
    33    43    40    1
    34    44    45    1
    35    46    44    1
    36    47    44    1
    37    48    49    1
    38    50    48    1
    39    51    48    1
    40    52    53    1
    41    54    52    1
    42    55    52    1
    43    56    57    1
    44    58    56    1
    45    59    56    1
    46    60    61    1
    47    62    60    1
    48    63    60    1
    49    64    65    1
    50    66    64    1
    51    67    64    1
    52    68    69    1
    53    70    68    1
    54    71    68    1
    55    72    73    1
    56    74    72    1
    57    75    72    1
    58    76    79    1
    59    77    16    1
    60    78     1    1
    61    79    14    1
    62    80    28    1
    63    81    40    1
    64    82    52    1
    65    83    64    1
    66     2    78    1
    67     6    78    1
    68    10    78    1
    69    20    77    1
    70    24    77    1
    71    32    80    1
    72    36    80    1
    73    44    81    1
    74    48    81    1
    75    56    82    1
    76    60    82    1
    77    68    83    1
    78    72    83    1
    79    79    80    1
    80    79    81    1
    81    79    82    1
    82    79    83    1
@<TRIPOS>SUBSTRUCTURE
     1 RES1        1 GROUP             0 ****  ****    0  
@<TRIPOS>CRYSIN
   16.0240   10.5870   20.6960   90.0000  112.0500   90.0000    14     1
