@<TRIPOS>MOLECULE
WUMQUS
    79    80     2     0     0
SMALL
NO_CHARGES
****
Generated from the CSD

@<TRIPOS>ATOM
     1 C1      -2.1015   8.6751   8.7605   C.3       1 RES1   0.0000
     2 H1      -2.2255   8.5445   9.7228   H         1 RES1   0.0000
     3 H2      -1.2982   8.1961   8.4661   H         1 RES1   0.0000
     4 H3      -2.8818   8.3291   8.2800   H         1 RES1   0.0000
     5 C2      -1.9429  10.1595   8.4661   C.3       1 RES1   0.0000
     6 H4      -1.8556  10.2490   7.4730   H         1 RES1   0.0000
     7 C3      -3.2034  10.9277   8.8674   C.3       1 RES1   0.0000
     8 H5      -3.9646  10.6047   8.3416   H         1 RES1   0.0000
     9 H6      -3.0727  11.8834   8.6989   H         1 RES1   0.0000
    10 H7      -3.3835  10.7861   9.8209   H         1 RES1   0.0000
    11 C4       0.2583  12.2790   6.9149   C.3       1 RES1   0.0000
    12 H8       0.3213  13.1476   6.4653   H         1 RES1   0.0000
    13 H9      -0.3616  11.7007   6.4242   H         1 RES1   0.0000
    14 H10      1.1452  11.8604   6.9413   H         1 RES1   0.0000
    15 C5      -0.2534  12.4798   8.3424   C.3       1 RES1   0.0000
    16 H11     -1.1722  12.8705   8.2844   H         1 RES1   0.0000
    17 C6       0.6260  13.4706   9.0959   C.3       1 RES1   0.0000
    18 H12      1.5153  13.0810   9.2321   H         1 RES1   0.0000
    19 H13      0.2203  13.6714   9.9659   H         1 RES1   0.0000
    20 H14      0.7072  14.2968   8.5759   H         1 RES1   0.0000
    21 C7       4.9947  11.2204   9.7550   C.3       1 RES1   0.0000
    22 H15      5.7544  11.6826   9.3434   H         1 RES1   0.0000
    23 H16      5.1181  11.1902  10.7261   H         1 RES1   0.0000
    24 H17      4.1672  11.7007   9.5441   H         1 RES1   0.0000
    25 C8       4.9100   9.8050   9.2101   C.3       1 RES1   0.0000
    26 H18      5.7378   9.3199   9.4914   H         1 RES1   0.0000
    27 C9       4.8699   9.8195   7.6839   C.3       1 RES1   0.0000
    28 H19      4.0961  10.3385   7.3822   H         1 RES1   0.0000
    29 H20      4.7979   8.9001   7.3514   H         1 RES1   0.0000
    30 H21      5.6929  10.2272   7.3397   H         1 RES1   0.0000
    31 C10      5.2569   6.6766  10.0934   C.3       1 RES1   0.0000
    32 H22      5.2518   6.7746  11.0689   H         1 RES1   0.0000
    33 H23      5.9624   7.2391   9.7125   H         1 RES1   0.0000
    34 H24      5.4232   5.7403   9.8605   H         1 RES1   0.0000
    35 C11      3.8972   7.1097   9.5309   C.3       1 RES1   0.0000
    36 H25      3.9526   7.0141   8.5364   H         1 RES1   0.0000
    37 C12      2.8300   6.1673   9.9981   C.3       1 RES1   0.0000
    38 H26      2.9770   5.2830   9.6012   H         1 RES1   0.0000
    39 H27      1.9510   6.5060   9.7242   H         1 RES1   0.0000
    40 H28      2.8613   6.0959  10.9751   H         1 RES1   0.0000
    41 C13     -0.8141  11.2386  10.9568   C.3       1 RES1   0.0000
    42 H29     -1.2687  12.1169  11.0103   H         1 RES1   0.0000
    43 H30     -1.4258  10.5490  11.3179   H         1 RES1   0.0000
    44 C14      0.4780  11.2676  11.7690   C.3       1 RES1   0.0000
    45 H31      0.9550  12.1193  11.6020   H         1 RES1   0.0000
    46 H32      0.2633  11.2180  12.7342   H         1 RES1   0.0000
    47 C15      2.6497  10.1994  12.1264   C.3       1 RES1   0.0000
    48 H33      2.4843  10.1498  13.1019   H         1 RES1   0.0000
    49 H34      3.0925  11.0644  11.9330   H         1 RES1   0.0000
    50 C16      3.5519   9.0586  11.7031   C.3       1 RES1   0.0000
    51 H35      3.2614   8.2190  12.1410   H         1 RES1   0.0000
    52 H36      4.4840   9.2461  11.9755   H         1 RES1   0.0000
    53 C17      0.6527   8.8239  11.7207   C.2       1 RES1   0.0000
    54 C18      1.4678   9.0538   7.7967   C.1       1 RES1   0.0000
    55 Fe1      1.4313   9.6184   9.4209   Fe        1 RES1   0.0000
    56 H37      2.1448  10.7910   8.9641   H         1 RES1   0.0000
    57 N1       1.3521  10.1244  11.3926   N.am      1 RES1   0.0000
    58 O1       0.4530   8.1992  10.6423   O.co2     1 RES1   0.0000
    59 O2       0.3985   8.5493  12.8735   O.co2     1 RES1   0.0000
    60 O3       1.5346   8.6957   6.6880   O.2       1 RES1   0.0000
    61 P1      -0.3904  10.8509   9.2016   P.3       1 RES1   0.0000
    62 P2       3.4579   8.8773   9.8751   P.3       1 RES1   0.0000
    63 C19      0.3150   5.2467   7.4876   C.3       2 RES2   0.0000
    64 H38      1.0708   4.6926   7.7747   H         2 RES2   0.0000
    65 H39     -0.2188   5.5007   8.2698   H         2 RES2   0.0000
    66 H40      0.6522   6.0536   7.0453   H         2 RES2   0.0000
    67 C20     -0.5107   4.4954   6.5619   C.3       2 RES2   0.0000
    68 H41     -0.8206   3.6631   6.9984   H         2 RES2   0.0000
    69 H42     -1.3092   5.0314   6.3246   H         2 RES2   0.0000
    70 C21      0.1804   4.1809   5.4209   C.3       2 RES2   0.0000
    71 H43      0.5662   5.0156   5.0547   H         2 RES2   0.0000
    72 H44      0.9344   3.5917   5.6714   H         2 RES2   0.0000
    73 C22     -0.5172   3.5760   4.4410   C.3       2 RES2   0.0000
    74 H45     -1.2565   4.1712   4.1583   H         2 RES2   0.0000
    75 H46     -0.9213   2.7449   4.7999   H         2 RES2   0.0000
    76 C23      0.2885   3.2470   3.2854   C.3       2 RES2   0.0000
    77 H47      0.7503   4.0515   2.9690   H         2 RES2   0.0000
    78 H48     -0.2869   2.8998   2.5720   H         2 RES2   0.0000
    79 H49      0.9505   2.5659   3.5314   H         2 RES2   0.0000
@<TRIPOS>BOND
     1     1     2    1
     2     3     1    1
     3     4     1    1
     4     5     1    1
     5     6     5    1
     6     7     5    1
     7     8     7    1
     8     9     7    1
     9    10     7    1
    10    11    12    1
    11    13    11    1
    12    14    11    1
    13    15    11    1
    14    16    15    1
    15    17    15    1
    16    18    17    1
    17    19    17    1
    18    20    17    1
    19    21    22    1
    20    23    21    1
    21    24    21    1
    22    25    21    1
    23    26    25    1
    24    27    25    1
    25    28    27    1
    26    29    27    1
    27    30    27    1
    28    31    32    1
    29    33    31    1
    30    34    31    1
    31    35    31    1
    32    36    35    1
    33    37    35    1
    34    38    37    1
    35    39    37    1
    36    40    37    1
    37    41    42    1
    38    43    41    1
    39    44    41    1
    40    45    44    1
    41    46    44    1
    42    47    48    1
    43    49    47    1
    44    50    47    1
    45    51    50    1
    46    52    50    1
    47    53    57   am
    48    54    55    1
    49    55    56    1
    50    57    44    1
    51    58    53    1
    52    59    53    2
    53    60    54    3
    54    61     5    1
    55    62    25    1
    56    15    61    1
    57    35    62    1
    58    41    61    1
    59    47    57    1
    60    50    62    1
    61    55    57    1
    62    55    58    1
    63    55    61    1
    64    55    62    1
    65    63    64    1
    66    65    63    1
    67    66    63    1
    68    67    63    1
    69    68    67    1
    70    69    67    1
    71    70    67    1
    72    71    70    1
    73    72    70    1
    74    73    70    1
    75    74    73    1
    76    75    73    1
    77    76    73    1
    78    77    76    1
    79    78    76    1
    80    79    76    1
@<TRIPOS>SUBSTRUCTURE
     1 RES1        1 GROUP             0 ****  ****    0  
     2 RES2       63 GROUP             0 ****  ****    0  
@<TRIPOS>CRYSIN
   15.4197   12.0975   16.0962   90.0000  114.4980   90.0000   231     1
