@<TRIPOS>MOLECULE
WUPKIB
    49    55     3     0     0
SMALL
USER_CHARGES
****
Generated from the CSD

@<TRIPOS>ATOM
     1 Fe1      0.1287  -3.6995  -2.5013   Fe        1 RES1   1.0000
     2 O1       1.4078  -3.7818   1.7839   O.3       1 RES1   0.0000
     3 O2       3.7510  -2.5441  -4.8618   O.3       1 RES1   0.0000
     4 N1       1.9499  -3.3730  -1.7965   N.ar      1 RES1   0.0000
     5 N2      -0.1304  -5.2054  -1.2060   N.ar      1 RES1   0.0000
     6 N3      -0.6114  -2.5737  -0.9296   N.ar      1 RES1   0.0000
     7 N4       0.3688  -2.1045  -3.7563   N.ar      1 RES1   0.0000
     8 N5       0.9733  -4.7585  -3.9824   N.ar      1 RES1   0.0000
     9 N6      -2.5934  -4.2866  -3.8191   N.1       1 RES1   0.0000
    10 C1       2.1701  -3.3194  -0.4648   C.ar      1 RES1   0.0000
    11 C2       3.2801  -2.6950   0.0754   C.ar      1 RES1   0.0000
    12 C3       4.2108  -2.1369  -0.7663   C.ar      1 RES1   0.0000
    13 C4       4.0396  -2.2550  -2.1231   C.ar      1 RES1   0.0000
    14 C5       2.9211  -2.8900  -2.6131   C.ar      1 RES1   0.0000
    15 C6       1.0207  -3.7602   0.4271   C.3       1 RES1   0.0000
    16 C7       2.4400  -4.6977   2.1734   C.3       1 RES1   0.0000
    17 C8       0.3002  -5.0626   0.0628   C.ar      1 RES1   0.0000
    18 C9      -0.0649  -5.9527   1.0678   C.ar      1 RES1   0.0000
    19 C10     -0.8277  -7.0679   0.7538   C.ar      1 RES1   0.0000
    20 C11     -1.2476  -7.2402  -0.5402   C.ar      1 RES1   0.0000
    21 C12     -0.9038  -6.2878  -1.4824   C.ar      1 RES1   0.0000
    22 C13     -0.0264  -2.6533   0.2889   C.ar      1 RES1   0.0000
    23 C14     -0.3301  -1.8100   1.3317   C.ar      1 RES1   0.0000
    24 C15     -1.3447  -0.8841   1.1683   C.ar      1 RES1   0.0000
    25 C16     -2.0374  -0.8566  -0.0251   C.ar      1 RES1   0.0000
    26 C17     -1.6478  -1.7137  -1.0302   C.ar      1 RES1   0.0000
    27 C18      2.6322  -2.9379  -4.1080   C.3       1 RES1   0.0000
    28 C19      4.9638  -3.3343  -4.7613   C.3       1 RES1   0.0000
    29 C20      1.5464  -1.9005  -4.3844   C.ar      1 RES1   0.0000
    30 C21      1.7722  -0.8393  -5.2638   C.ar      1 RES1   0.0000
    31 C22      0.7513   0.0592  -5.4900   C.ar      1 RES1   0.0000
    32 C23     -0.4687  -0.1478  -4.8744   C.ar      1 RES1   0.0000
    33 C24     -0.6319  -1.2481  -4.0578   C.ar      1 RES1   0.0000
    34 C25      2.0500  -4.2665  -4.6231   C.ar      1 RES1   0.0000
    35 C26      2.5171  -4.8181  -5.8040   C.ar      1 RES1   0.0000
    36 C27      1.9266  -5.9402  -6.3317   C.ar      1 RES1   0.0000
    37 C28      0.8640  -6.4926  -5.6533   C.ar      1 RES1   0.0000
    38 C29      0.4145  -5.8805  -4.5101   C.ar      1 RES1   0.0000
    39 C30     -1.5965  -4.0117  -3.2789   C.1       1 RES1   0.0000
    40 S1       6.3305   0.6846  -3.2324   S.o2      2 RES2   0.0000
    41 F1       4.7622   2.0428  -4.8241   F         2 RES2   0.0000
    42 F2       4.6284   2.6017  -2.7764   F         2 RES2   0.0000
    43 F3       3.7236   0.7695  -3.4422   F         2 RES2   0.0000
    44 O3       7.3228   1.7202  -3.3668   O.3       2 RES2  -1.0000
    45 O4       6.3727  -0.3370  -4.2337   O.2       2 RES2   0.0000
    46 O5       6.1326   0.2274  -1.8844   O.2       2 RES2   0.0000
    47 C31      4.7890   1.5588  -3.5930   C.3       2 RES2   0.0000
    48 O6       4.3104   6.4468   4.5854   O.3       3 RES3   0.0000
    49 C32      3.5310   7.5859   4.2965   C.3       3 RES3   0.0000
@<TRIPOS>BOND
     1     1     4    1
     2     2    15    1
     3     3    27    1
     4     4    10   ar
     5     5     1    1
     6     6     1    1
     7     7     1    1
     8     8     1    1
     9     9    39    3
    10    10    11   ar
    11    11    12   ar
    12    12    13   ar
    13    13    14   ar
    14    14     4   ar
    15    15    10    1
    16    16     2    1
    17    17     5   ar
    18    18    17   ar
    19    19    18   ar
    20    20    19   ar
    21    21     5   ar
    22    22     6   ar
    23    23    22   ar
    24    24    23   ar
    25    25    24   ar
    26    26     6   ar
    27    27    14    1
    28    28     3    1
    29    29     7   ar
    30    30    29   ar
    31    31    30   ar
    32    32    31   ar
    33    33     7   ar
    34    34     8   ar
    35    35    34   ar
    36    36    35   ar
    37    37    36   ar
    38    38     8   ar
    39    39     1    1
    40    15    17    1
    41    15    22    1
    42    20    21   ar
    43    25    26   ar
    44    27    29    1
    45    27    34    1
    46    32    33   ar
    47    37    38   ar
    48    40    44    1
    49    41    47    1
    50    42    47    1
    51    43    47    1
    52    45    40    2
    53    46    40    2
    54    47    40    1
    55    48    49    1
@<TRIPOS>SUBSTRUCTURE
     1 RES1        1 GROUP             0 ****  ****    0  
     2 RES2       40 GROUP             0 ****  ****    0  
     3 RES3       48 GROUP             0 ****  ****    0  
@<TRIPOS>CRYSIN
   10.5306   12.6061   12.9532   76.5440   88.7240   67.5130     2     1
