@<TRIPOS>MOLECULE
WUPKOH
    81    87     3     0     0
SMALL
USER_CHARGES
****
Generated from the CSD

@<TRIPOS>ATOM
     1 Fe1      6.0594   5.8319   3.3320   Fe        1 RES1   2.0000
     2 O1       8.8489   2.6545   5.1265   O.3       1 RES1   0.0000
     3 O2       8.9917   8.3879   0.8861   O.3       1 RES1   0.0000
     4 O3       4.0674   6.1321   3.6062   O.3       1 RES1   0.0000
     5 N1       8.1436   5.5539   3.0462   N.ar      1 RES1   0.0000
     6 N2       5.9742   3.6867   3.1205   N.ar      1 RES1   0.0000
     7 N3       6.3977   5.2368   5.4306   N.ar      1 RES1   0.0000
     8 N4       6.5773   8.0087   3.5167   N.ar      1 RES1   0.0000
     9 N5       6.0391   6.2605   1.2011   N.ar      1 RES1   0.0000
    10 C1       8.7763   4.7155   3.8621   C.ar      1 RES1   0.0000
    11 C2      10.1118   4.9004   4.2116   C.ar      1 RES1   0.0000
    12 C3      10.8195   5.9260   3.6062   C.ar      1 RES1   0.0000
    13 C4      10.1910   6.7662   2.7146   C.ar      1 RES1   0.0000
    14 C5       8.8363   6.5527   2.4367   C.ar      1 RES1   0.0000
    15 C6       7.9770   3.6113   4.5734   C.3       1 RES1   0.0000
    16 C7       9.7539   1.9620   4.2349   C.3       1 RES1   0.0000
    17 C8       6.8847   2.9029   3.7176   C.ar      1 RES1   0.0000
    18 C9       6.8039   1.5303   3.7039   C.ar      1 RES1   0.0000
    19 C10      5.7797   0.9397   2.9884   C.ar      1 RES1   0.0000
    20 C11      4.8580   1.6987   2.3789   C.ar      1 RES1   0.0000
    21 C12      4.9702   3.0851   2.4835   C.ar      1 RES1   0.0000
    22 C13      7.2236   4.2355   5.7594   C.ar      1 RES1   0.0000
    23 C14      7.3336   3.7519   7.0170   C.ar      1 RES1   0.0000
    24 C15      6.5559   4.2934   8.0241   C.ar      1 RES1   0.0000
    25 C16      5.6796   5.2795   7.7228   C.ar      1 RES1   0.0000
    26 C17      5.6201   5.7520   6.4171   C.ar      1 RES1   0.0000
    27 C18      8.0768   7.5977   1.6373   C.3       1 RES1   0.0000
    28 C19      9.7455   7.7023  -0.1293   C.3       1 RES1   0.0000
    29 C20      7.4416   8.5613   2.6596   C.ar      1 RES1   0.0000
    30 C21      7.7727   9.8901   2.7119   C.ar      1 RES1   0.0000
    31 C22      7.1744  10.6963   3.6585   C.ar      1 RES1   0.0000
    32 C23      6.3032  10.1184   4.5610   C.ar      1 RES1   0.0000
    33 C24      6.0203   8.7875   4.4358   C.ar      1 RES1   0.0000
    34 C25      6.9094   7.1669   0.7127   C.ar      1 RES1   0.0000
    35 C26      6.7342   7.7898  -0.4994   C.ar      1 RES1   0.0000
    36 C27      5.6691   7.4440  -1.2975   C.ar      1 RES1   0.0000
    37 C28      4.7735   6.4566  -0.8448   C.ar      1 RES1   0.0000
    38 C29      5.0135   5.9431   0.3770   C.ar      1 RES1   0.0000
    39 H1      10.5268   4.3422   4.8555   H         1 RES1   0.0000
    40 H2      11.7415   6.0423   3.8029   H         1 RES1   0.0000
    41 H3      10.6670   7.4840   2.3060   H         1 RES1   0.0000
    42 H4      10.6371   2.2658   4.3987   H         1 RES1   0.0000
    43 H5       9.5098   2.1561   3.3393   H         1 RES1   0.0000
    44 H6       9.6941   1.0319   4.3932   H         1 RES1   0.0000
    45 H7       7.4375   0.9979   4.1662   H         1 RES1   0.0000
    46 H8       5.7231  -0.0051   2.9306   H         1 RES1   0.0000
    47 H9       4.1499   1.2963   1.9001   H         1 RES1   0.0000
    48 H10      4.2991   3.6278   2.0845   H         1 RES1   0.0000
    49 H11      7.9444   3.0547   7.2055   H         1 RES1   0.0000
    50 H12      6.6387   3.9814   8.9129   H         1 RES1   0.0000
    51 H13      5.1186   5.6507   8.3901   H         1 RES1   0.0000
    52 H14      5.0115   6.4498   6.2121   H         1 RES1   0.0000
    53 H15      9.3821   6.8332  -0.2504   H         1 RES1   0.0000
    54 H16     10.6510   7.6352   0.1458   H         1 RES1   0.0000
    55 H17      9.6932   8.1906  -0.9397   H         1 RES1   0.0000
    56 H18      8.4039  10.2520   2.1010   H         1 RES1   0.0000
    57 H19      7.3527  11.6279   3.6887   H         1 RES1   0.0000
    58 H20      5.9032  10.6356   5.2545   H         1 RES1   0.0000
    59 H21      5.3981   8.4016   5.0398   H         1 RES1   0.0000
    60 H22      7.3386   8.4682  -0.7829   H         1 RES1   0.0000
    61 H23      5.5364   7.8727  -2.1395   H         1 RES1   0.0000
    62 H24      4.0436   6.1575  -1.3717   H         1 RES1   0.0000
    63 H25      4.3993   5.2905   0.7044   H         1 RES1   0.0000
    64 H26      3.5044   5.6008   4.1221   H         1 RES1   0.0000
    65 H27      3.6749   6.9601   3.2251   H         1 RES1   0.0000
    66 S1       1.8910   3.7541   5.3632   S.o2      2 RES2   0.0000
    67 F1       3.1569   3.0661   7.5274   F         2 RES2   0.0000
    68 F2       4.2288   2.6770   5.7347   F         2 RES2   0.0000
    69 F3       2.6055   1.4392   6.3029   F         2 RES2   0.0000
    70 O4       2.5151   5.0463   5.4787   O.3       2 RES2  -1.0000
    71 O5       1.8899   3.2216   4.0520   O.2       2 RES2   0.0000
    72 O6       0.6704   3.6530   6.1020   O.2       2 RES2   0.0000
    73 C30      3.0387   2.6997   6.2850   C.3       2 RES2   0.0000
    74 S2       9.4476  13.2518  -1.8244   S.o2      3 RES3   0.0000
    75 F4       8.5826  10.8553  -1.4020   F         3 RES3   0.0000
    76 F5       8.0234  12.1699   0.0248   F         3 RES3   0.0000
    77 F6       7.0552  12.2760  -1.7061   F         3 RES3   0.0000
    78 O7       8.9587  14.3926  -1.5823   O.3       3 RES3  -1.0000
    79 O8       9.4794  12.9004  -3.1618   O.2       3 RES3   0.0000
    80 O9      10.6151  12.9115  -1.3346   O.2       3 RES3   0.0000
    81 C31      8.2556  11.9866  -1.2245   C.3       3 RES3   0.0000
@<TRIPOS>BOND
     1     1     4    1
     2     2    15    1
     3     3    27    1
     4     4    64    1
     5     5     1    1
     6     6     1    1
     7     7     1    1
     8     8     1    1
     9     9     1    1
    10    10     5   ar
    11    11    10   ar
    12    12    11   ar
    13    13    12   ar
    14    14     5   ar
    15    15    10    1
    16    16     2    1
    17    17     6   ar
    18    18    17   ar
    19    19    18   ar
    20    20    19   ar
    21    21     6   ar
    22    22     7   ar
    23    23    22   ar
    24    24    23   ar
    25    25    24   ar
    26    26     7   ar
    27    27    14    1
    28    28     3    1
    29    29     8   ar
    30    30    29   ar
    31    31    30   ar
    32    32    31   ar
    33    33     8   ar
    34    34     9   ar
    35    35    34   ar
    36    36    35   ar
    37    37    36   ar
    38    38     9   ar
    39    39    11    1
    40    40    12    1
    41    41    13    1
    42    42    16    1
    43    43    16    1
    44    44    16    1
    45    45    18    1
    46    46    19    1
    47    47    20    1
    48    48    21    1
    49    49    23    1
    50    50    24    1
    51    51    25    1
    52    52    26    1
    53    53    28    1
    54    54    28    1
    55    55    28    1
    56    56    30    1
    57    57    31    1
    58    58    32    1
    59    59    33    1
    60    60    35    1
    61    61    36    1
    62    62    37    1
    63    63    38    1
    64    65     4    1
    65    13    14   ar
    66    15    17    1
    67    15    22    1
    68    20    21   ar
    69    25    26   ar
    70    27    29    1
    71    27    34    1
    72    32    33   ar
    73    37    38   ar
    74    66    70    1
    75    67    73    1
    76    68    73    1
    77    69    73    1
    78    71    66    2
    79    72    66    2
    80    73    66    1
    81    74    78    1
    82    75    81    1
    83    76    81    1
    84    77    81    1
    85    79    74    2
    86    80    74    2
    87    81    74    1
@<TRIPOS>SUBSTRUCTURE
     1 RES1        1 GROUP             0 ****  ****    0  
     2 RES2       66 GROUP             0 ****  ****    0  
     3 RES3       74 GROUP             0 ****  ****    0  
@<TRIPOS>CRYSIN
   11.7940   12.2910   13.9540   80.6800   87.7200   62.4900     2     1
