@<TRIPOS>MOLECULE
WUPKUN
   100   107     4     0     0
SMALL
USER_CHARGES
****
Generated from the CSD

@<TRIPOS>ATOM
     1 Fe1      3.8545  -2.0335   4.9118   Fe        1 RES1   2.0000
     2 O1       3.6186   1.7339   2.5354   O.3       1 RES1   0.0000
     3 O2       4.5657  -5.2100   1.8271   O.3       1 RES1   0.0000
     4 N1       4.0328  -1.8005   2.9458   N.ar      1 RES1   0.0000
     5 N2       4.9454  -0.3682   5.2115   N.ar      1 RES1   0.0000
     6 N3       2.2960  -0.7880   4.8358   N.ar      1 RES1   0.0000
     7 N4       2.7321  -3.7252   4.5660   N.ar      1 RES1   0.0000
     8 N5       5.4023  -3.2964   4.8325   N.ar      1 RES1   0.0000
     9 N6       3.6495  -2.2602   6.8797   N.ar      1 RES1   0.0000
    10 C1       3.8864  -0.6119   2.3666   C.ar      1 RES1   0.0000
    11 C2       3.7461  -0.4443   1.0013   C.ar      1 RES1   0.0000
    12 C3       3.7523  -1.5415   0.1854   C.ar      1 RES1   0.0000
    13 C4       3.9273  -2.7649   0.7629   C.ar      1 RES1   0.0000
    14 C5       4.1528  -2.8692   2.1299   C.ar      1 RES1   0.0000
    15 C6       3.6781   0.5517   3.3314   C.3       1 RES1   0.0000
    16 C7       3.3578   2.9608   3.2321   C.3       1 RES1   0.0000
    17 C8       4.8443   0.5841   4.2830   C.ar      1 RES1   0.0000
    18 C9       5.7917   1.6010   4.2483   C.ar      1 RES1   0.0000
    19 C10      6.7378   1.7016   5.2032   C.ar      1 RES1   0.0000
    20 C11      6.7384   0.8032   6.2028   C.ar      1 RES1   0.0000
    21 C12      5.8520  -0.2404   6.1862   C.ar      1 RES1   0.0000
    22 C13      2.3126   0.2244   3.9951   C.ar      1 RES1   0.0000
    23 C14      1.1791   0.9244   3.5697   C.ar      1 RES1   0.0000
    24 C15     -0.0343   0.5953   4.1672   C.ar      1 RES1   0.0000
    25 C16     -0.0556  -0.3703   5.1602   C.ar      1 RES1   0.0000
    26 C17      1.1370  -0.9878   5.4448   C.ar      1 RES1   0.0000
    27 C18      4.3296  -4.2214   2.8018   C.3       1 RES1   0.0000
    28 C19      5.7771  -5.0688   1.0360   C.3       1 RES1   0.0000
    29 C20      3.0632  -4.5272   3.5515   C.ar      1 RES1   0.0000
    30 C21      2.3217  -5.6784   3.2255   C.ar      1 RES1   0.0000
    31 C22      1.2289  -6.0252   3.9918   C.ar      1 RES1   0.0000
    32 C23      0.9243  -5.2154   5.0526   C.ar      1 RES1   0.0000
    33 C24      1.6736  -4.0900   5.3223   C.ar      1 RES1   0.0000
    34 C25      5.4127  -4.2574   3.8825   C.ar      1 RES1   0.0000
    35 C26      6.2566  -5.3795   3.9554   C.ar      1 RES1   0.0000
    36 C27      7.2080  -5.4262   4.9467   C.ar      1 RES1   0.0000
    37 C28      7.2896  -4.4178   5.8635   C.ar      1 RES1   0.0000
    38 C29      6.3776  -3.3830   5.7791   C.ar      1 RES1   0.0000
    39 C30      3.2746  -1.2482   7.6790   C.ar      1 RES1   0.0000
    40 C31      3.0719  -1.3527   9.0245   C.ar      1 RES1   0.0000
    41 C32      3.2687  -2.5640   9.6170   C.ar      1 RES1   0.0000
    42 C33      3.6551  -3.6521   8.8458   C.ar      1 RES1   0.0000
    43 C34      3.7947  -3.4512   7.4804   C.ar      1 RES1   0.0000
    44 H1       3.6526   0.4237   0.6305   H         1 RES1   0.0000
    45 H2       3.6465  -1.4593  -0.7530   H         1 RES1   0.0000
    46 H3       3.8890  -3.5472   0.2300   H         1 RES1   0.0000
    47 H4       3.3666   2.8040   4.1655   H         1 RES1   0.0000
    48 H5       2.5111   3.2990   2.9707   H         1 RES1   0.0000
    49 H6       4.0344   3.5959   3.0104   H         1 RES1   0.0000
    50 H7       5.7803   2.2389   3.5482   H         1 RES1   0.0000
    51 H8       7.3905   2.3884   5.1717   H         1 RES1   0.0000
    52 H9       7.3530   0.8951   6.9243   H         1 RES1   0.0000
    53 H10      5.8919  -0.8929   6.8714   H         1 RES1   0.0000
    54 H11      1.2354   1.5967   2.9045   H         1 RES1   0.0000
    55 H12     -0.8402   1.0271   3.8991   H         1 RES1   0.0000
    56 H13     -0.8542  -0.5994   5.6202   H         1 RES1   0.0000
    57 H14      1.1343  -1.6164   6.1548   H         1 RES1   0.0000
    58 H15      6.2561  -4.2977   1.3173   H         1 RES1   0.0000
    59 H16      6.3234  -5.8382   1.1502   H         1 RES1   0.0000
    60 H17      5.5509  -4.9792   0.1158   H         1 RES1   0.0000
    61 H18      2.5792  -6.2146   2.4791   H         1 RES1   0.0000
    62 H19      0.7028  -6.7938   3.7899   H         1 RES1   0.0000
    63 H20      0.1842  -5.4321   5.6087   H         1 RES1   0.0000
    64 H21      1.4379  -3.5551   6.0671   H         1 RES1   0.0000
    65 H22      6.1748  -6.0933   3.3331   H         1 RES1   0.0000
    66 H23      7.8152  -6.1615   4.9947   H         1 RES1   0.0000
    67 H24      7.9461  -4.4334   6.5487   H         1 RES1   0.0000
    68 H25      6.4416  -2.6795   6.4146   H         1 RES1   0.0000
    69 H26      3.1429  -0.3922   7.2752   H         1 RES1   0.0000
    70 H27      2.7972  -0.5999   9.5408   H         1 RES1   0.0000
    71 H28      3.1452  -2.6688  10.5504   H         1 RES1   0.0000
    72 H29      3.8270  -4.4974   9.2429   H         1 RES1   0.0000
    73 H30      4.0105  -4.1945   6.9376   H         1 RES1   0.0000
    74 S1       9.0986  -2.2096   8.7365   S.o2      2 RES2   0.0000
    75 F1       7.7509  -3.2655  10.6960   F         2 RES2   0.0000
    76 F2       8.1215  -4.5881   9.0824   F         2 RES2   0.0000
    77 F3       9.6401  -4.1004  10.4428   F         2 RES2   0.0000
    78 O3       9.9991  -2.8423   7.8164   O.3       2 RES2  -1.0000
    79 O4       7.8583  -1.7999   8.1606   O.2       2 RES2   0.0000
    80 O5       9.6696  -1.2762   9.6600   O.2       2 RES2   0.0000
    81 C35      8.6517  -3.5797   9.7858   C.3       2 RES2   0.0000
    82 S2       8.3106   3.8164   2.3964   S.o2      3 RES3   0.0000
    83 F4       9.0452   6.2223   1.6665   F         3 RES3   0.0000
    84 F5       8.6921   4.8796   0.0281   F         3 RES3   0.0000
    85 F6      10.4789   4.6766   1.2263   F         3 RES3   0.0000
    86 O6       8.6636   2.5313   1.8916   O.3       3 RES3  -1.0000
    87 O7       6.9354   4.1819   2.2325   O.2       3 RES3   0.0000
    88 O8       8.8788   4.1310   3.6806   O.2       3 RES3   0.0000
    89 C36      9.1671   4.9647   1.2627   C.3       3 RES3   0.0000
    90 N7       7.7169  -1.9185   2.6860   N.ar      4 RES4   0.0000
    91 C37      8.8266  -2.6553   2.9624   C.ar      4 RES4   0.0000
    92 C38      9.9182  -2.7071   2.1514   C.ar      4 RES4   0.0000
    93 C39      9.8988  -1.9451   1.1088   C.ar      4 RES4   0.0000
    94 C40      8.8109  -1.1054   0.8937   C.ar      4 RES4   0.0000
    95 C41      7.7874  -1.1197   1.6384   C.ar      4 RES4   0.0000
    96 H31      8.8262  -3.1880   3.7601   H         4 RES4   0.0000
    97 H32     10.6699  -3.2561   2.3467   H         4 RES4   0.0000
    98 H33     10.6156  -1.9620   0.4948   H         4 RES4   0.0000
    99 H34      8.8231  -0.5079   0.1423   H         4 RES4   0.0000
   100 H35      7.0620  -0.5308   1.4481   H         4 RES4   0.0000
@<TRIPOS>BOND
     1     1     4    1
     2     2    15    1
     3     3    27    1
     4     4    10   ar
     5     5     1    1
     6     6     1    1
     7     7     1    1
     8     8     1    1
     9     9     1    1
    10    10    11   ar
    11    11    12   ar
    12    12    13   ar
    13    13    14   ar
    14    14     4   ar
    15    15    10    1
    16    16     2    1
    17    17     5   ar
    18    18    17   ar
    19    19    18   ar
    20    20    19   ar
    21    21     5   ar
    22    22     6   ar
    23    23    22   ar
    24    24    23   ar
    25    25    24   ar
    26    26     6   ar
    27    27    14    1
    28    28     3    1
    29    29     7   ar
    30    30    29   ar
    31    31    30   ar
    32    32    31   ar
    33    33     7   ar
    34    34     8   ar
    35    35    34   ar
    36    36    35   ar
    37    37    36   ar
    38    38     8   ar
    39    39     9   ar
    40    40    39   ar
    41    41    40   ar
    42    42    41   ar
    43    43     9   ar
    44    44    11    1
    45    45    12    1
    46    46    13    1
    47    47    16    1
    48    48    16    1
    49    49    16    1
    50    50    18    1
    51    51    19    1
    52    52    20    1
    53    53    21    1
    54    54    23    1
    55    55    24    1
    56    56    25    1
    57    57    26    1
    58    58    28    1
    59    59    28    1
    60    60    28    1
    61    61    30    1
    62    62    31    1
    63    63    32    1
    64    64    33    1
    65    65    35    1
    66    66    36    1
    67    67    37    1
    68    68    38    1
    69    69    39    1
    70    70    40    1
    71    71    41    1
    72    72    42    1
    73    73    43    1
    74    15    17    1
    75    15    22    1
    76    20    21   ar
    77    25    26   ar
    78    27    29    1
    79    27    34    1
    80    32    33   ar
    81    37    38   ar
    82    42    43   ar
    83    74    78    1
    84    75    81    1
    85    76    81    1
    86    77    81    1
    87    79    74    2
    88    80    74    2
    89    81    74    1
    90    82    86    1
    91    83    89    1
    92    84    89    1
    93    85    89    1
    94    87    82    2
    95    88    82    2
    96    89    82    1
    97    90    91   ar
    98    91    92   ar
    99    92    93   ar
   100    93    94   ar
   101    94    95   ar
   102    95    90   ar
   103    96    91    1
   104    97    92    1
   105    98    93    1
   106    99    94    1
   107   100    95    1
@<TRIPOS>SUBSTRUCTURE
     1 RES1        1 GROUP             0 ****  ****    0  
     2 RES2       74 GROUP             0 ****  ****    0  
     3 RES3       82 GROUP             0 ****  ****    0  
     4 RES4       90 GROUP             0 ****  ****    0  
@<TRIPOS>CRYSIN
   10.0580   12.3680   16.8470   86.3200   79.8500   89.5400     2     1
