@<TRIPOS>MOLECULE
WUPPED
    75    84     1     0     0
SMALL
NO_CHARGES
****
Generated from the CSD

@<TRIPOS>ATOM
     1 Fe1      3.6487   3.6299   5.0841   Fe        1 RES1   0.0000
     2 N1       1.6080   4.2314   5.6997   N.ar      1 RES1   0.0000
     3 N2       3.4019   2.7668   7.0598   N.2       1 RES1   0.0000
     4 N3       4.1187   1.8632   7.8369   N.2       1 RES1   0.0000
     5 N4       2.8642   0.3470  10.7617   N.ar      1 RES1   0.0000
     6 N5       1.9870   1.7604   8.3697   N.pl3     1 RES1   0.0000
     7 N6       0.7886   1.1662   8.7219   N.pl3     1 RES1   0.0000
     8 C1       0.8319   5.1597   5.1360   C.ar      1 RES1   0.0000
     9 H1       1.1642   5.6364   4.3845   H         1 RES1   0.0000
    10 C2      -0.4371   5.4556   5.6027   C.ar      1 RES1   0.0000
    11 H2      -0.9500   6.1470   5.1990   H         1 RES1   0.0000
    12 C3      -0.9483   4.7329   6.6643   C.ar      1 RES1   0.0000
    13 H3      -1.8279   4.9004   6.9825   H         1 RES1   0.0000
    14 C4      -0.1570   3.7549   7.2611   C.ar      1 RES1   0.0000
    15 H4      -0.4879   3.2362   7.9851   H         1 RES1   0.0000
    16 C5       1.1231   3.5576   6.7731   C.ar      1 RES1   0.0000
    17 C6       2.1365   2.6903   7.3852   C.2       1 RES1   0.0000
    18 C7       3.2534   1.2597   8.6064   C.2       1 RES1   0.0000
    19 C8       3.5677   0.2461   9.6212   C.ar      1 RES1   0.0000
    20 C9       4.5332  -0.7139   9.3873   C.ar      1 RES1   0.0000
    21 H5       4.9888  -0.7515   8.5545   H         1 RES1   0.0000
    22 C10      4.8206  -1.6201  10.3970   C.ar      1 RES1   0.0000
    23 H6       5.4879  -2.2858  10.2760   H         1 RES1   0.0000
    24 C11      4.1158  -1.5354  11.5806   C.ar      1 RES1   0.0000
    25 H7       4.2960  -2.1350  12.2944   H         1 RES1   0.0000
    26 C12      3.1354  -0.5550  11.7097   C.ar      1 RES1   0.0000
    27 H8       2.6328  -0.5249  12.5151   H         1 RES1   0.0000
    28 C13      0.0457   1.4430   9.8510   C.2       1 RES1   0.0000
    29 H9       0.3097   1.9748  10.5933   H         1 RES1   0.0000
    30 C14     -1.1407   0.8010   9.6863   C.2       1 RES1   0.0000
    31 H10     -1.8575   0.7936  10.3096   H         1 RES1   0.0000
    32 C15     -1.1311   0.1451   8.4264   C.2       1 RES1   0.0000
    33 H11     -1.8374  -0.3761   8.0624   H         1 RES1   0.0000
    34 C16      0.0684   0.3943   7.8346   C.2       1 RES1   0.0000
    35 H12      0.3539   0.0963   6.9795   H         1 RES1   0.0000
    36 N7       2.8161   1.8177   4.4031   N.2       1 RES1   0.0000
    37 C17      2.3308   0.7572   4.4567   C.1       1 RES1   0.0000
    38 S1       1.6328  -0.7125   4.5461   S.2       1 RES1   0.0000
    39 N1A      5.6894   3.0284   4.4685   N.ar      1 RES1   0.0000
    40 N2A      3.8954   4.4929   3.1084   N.2       1 RES1   0.0000
    41 N3A      3.1787   5.3966   2.3314   N.2       1 RES1   0.0000
    42 N4A      4.4331   6.9128  -0.5935   N.ar      1 RES1   0.0000
    43 N5A      5.3103   5.4994   1.7986   N.pl3     1 RES1   0.0000
    44 N6A      6.5087   6.0936   1.4463   N.pl3     1 RES1   0.0000
    45 C1A      6.4655   2.1001   5.0323   C.ar      1 RES1   0.0000
    46 H1A      6.1332   1.6234   5.7837   H         1 RES1   0.0000
    47 C2A      7.7344   1.8042   4.5655   C.ar      1 RES1   0.0000
    48 H2A      8.2474   1.1128   4.9692   H         1 RES1   0.0000
    49 C3A      8.2456   2.5269   3.5040   C.ar      1 RES1   0.0000
    50 H3A      9.1252   2.3594   3.1857   H         1 RES1   0.0000
    51 C4A      7.4544   3.5049   2.9071   C.ar      1 RES1   0.0000
    52 H4A      7.7852   4.0236   2.1831   H         1 RES1   0.0000
    53 C5A      6.1742   3.7022   3.3952   C.ar      1 RES1   0.0000
    54 C6A      5.1608   4.5694   2.7830   C.2       1 RES1   0.0000
    55 C7A      4.0440   6.0001   1.5618   C.2       1 RES1   0.0000
    56 C8A      3.7296   7.0137   0.5471   C.ar      1 RES1   0.0000
    57 C9A      2.7642   7.9737   0.7809   C.ar      1 RES1   0.0000
    58 H5A      2.3086   8.0113   1.6137   H         1 RES1   0.0000
    59 C10A     2.4767   8.8799  -0.2288   C.ar      1 RES1   0.0000
    60 H6A      1.8095   9.5456  -0.1078   H         1 RES1   0.0000
    61 C11A     3.1815   8.7952  -1.4124   C.ar      1 RES1   0.0000
    62 H7A      3.0014   9.3948  -2.1262   H         1 RES1   0.0000
    63 C12A     4.1619   7.8148  -1.5415   C.ar      1 RES1   0.0000
    64 H8A      4.6645   7.7847  -2.3468   H         1 RES1   0.0000
    65 C13A     7.2517   5.8168   0.3172   C.2       1 RES1   0.0000
    66 H9A      6.9876   5.2850  -0.4250   H         1 RES1   0.0000
    67 C14A     8.4381   6.4587   0.4820   C.2       1 RES1   0.0000
    68 H10A     9.1549   6.4662  -0.1413   H         1 RES1   0.0000
    69 C15A     8.4285   7.1147   1.7418   C.2       1 RES1   0.0000
    70 H11A     9.1347   7.6359   2.1058   H         1 RES1   0.0000
    71 C16A     7.2290   6.8655   2.3336   C.2       1 RES1   0.0000
    72 H12A     6.9435   7.1635   3.1888   H         1 RES1   0.0000
    73 N7A      4.4812   5.4421   5.7651   N.2       1 RES1   0.0000
    74 C17A     4.9665   6.5026   5.7115   C.1       1 RES1   0.0000
    75 S1A      5.6646   7.9723   5.6221   S.2       1 RES1   0.0000
@<TRIPOS>BOND
     1     1     2    1
     2     2     8   ar
     3     3     1    1
     4     4     3    1
     5     5    19   ar
     6     6     7    1
     7     7    28    1
     8     8     9    1
     9    10     8   ar
    10    11    10    1
    11    12    10   ar
    12    13    12    1
    13    14    12   ar
    14    15    14    1
    15    16     2   ar
    16    17     3    2
    17    18     4    2
    18    19    18    1
    19    20    19   ar
    20    21    20    1
    21    22    20   ar
    22    23    22    1
    23    24    22   ar
    24    25    24    1
    25    26     5   ar
    26    27    26    1
    27    28    29    1
    28    30    28    2
    29    31    30    1
    30    32    30    1
    31    33    32    1
    32    34     7    1
    33    35    34    1
    34    36     1    1
    35    37    36    2
    36    38    37    2
    37    39     1    1
    38    40     1    1
    39    41    40    1
    40    42    56   ar
    41    43    44    1
    42    44    65    1
    43    45    39   ar
    44    46    45    1
    45    47    45   ar
    46    48    47    1
    47    49    47   ar
    48    50    49    1
    49    51    49   ar
    50    52    51    1
    51    53    39   ar
    52    54    40    2
    53    55    41    2
    54    56    55    1
    55    57    56   ar
    56    58    57    1
    57    59    57   ar
    58    60    59    1
    59    61    59   ar
    60    62    61    1
    61    63    42   ar
    62    64    63    1
    63    65    66    1
    64    67    65    2
    65    68    67    1
    66    69    67    1
    67    70    69    1
    68    71    44    1
    69    72    71    1
    70    73     1    1
    71    74    73    2
    72    75    74    2
    73     6    17    1
    74     6    18    1
    75    14    16   ar
    76    16    17    1
    77    24    26   ar
    78    32    34    2
    79    43    54    1
    80    43    55    1
    81    51    53   ar
    82    53    54    1
    83    61    63   ar
    84    69    71    2
@<TRIPOS>SUBSTRUCTURE
     1 RES1        1 GROUP             0 ****  ****    0  
@<TRIPOS>CRYSIN
    9.0442    9.3305   10.5023  101.2420   98.8680   90.7850     2     1
