@<TRIPOS>MOLECULE
WUQBOB
    86    93     3     0     0
SMALL
USER_CHARGES
****
Generated from the CSD

@<TRIPOS>ATOM
     1 Fe1     15.6776   7.7415  15.7454   Fe        1 RES1   1.0000
     2 O1      16.9132   6.8215  16.8165   O.3       1 RES1   0.0000
     3 O2      16.8546   8.6443  14.5730   O.3       1 RES1   0.0000
     4 N1      14.1432   9.1658  15.3180   N.ar      1 RES1   0.0000
     5 N2      15.2575  10.4647  16.8814   N.3       1 RES1   0.0000
     6 N3      15.7393   9.1934  17.2804   N.2       1 RES1   0.0000
     7 N4      15.4087   6.4442  14.1013   N.2       1 RES1   0.0000
     8 N5      14.8829   5.1549  14.4392   N.3       1 RES1   0.0000
     9 N6      14.1599   6.3276  16.3128   N.ar      1 RES1   0.0000
    10 C1      14.4462  10.3974  15.7327   C.ar      1 RES1   0.0000
    11 C2      13.9617  11.5354  15.1035   C.ar      1 RES1   0.0000
    12 H1      14.2209  12.3825  15.3883   H         1 RES1   0.0000
    13 C3      13.1057  11.3840  14.0687   C.ar      1 RES1   0.0000
    14 H2      12.7769  12.1314  13.6241   H         1 RES1   0.0000
    15 C4      12.7233  10.1211  13.6732   C.ar      1 RES1   0.0000
    16 H3      12.1033  10.0045  12.9889   H         1 RES1   0.0000
    17 C5      13.2742   9.0529  14.3023   C.ar      1 RES1   0.0000
    18 H4      13.0372   8.2009  14.0154   H         1 RES1   0.0000
    19 C6      15.9896   9.0216  18.5516   C.2       1 RES1   0.0000
    20 C7      15.7098  10.1079  19.5499   C.3       1 RES1   0.0000
    21 H5      16.5327  10.5344  19.7978   H         1 RES1   0.0000
    22 H6      15.2990   9.7282  20.3306   H         1 RES1   0.0000
    23 H7      15.1195  10.7555  19.1606   H         1 RES1   0.0000
    24 C8      16.5160   7.7443  19.0083   C.ar      1 RES1   0.0000
    25 C9      16.6296   7.4872  20.3716   C.ar      1 RES1   0.0000
    26 H8      16.3718   8.1517  20.9678   H         1 RES1   0.0000
    27 C10     17.1046   6.3072  20.8777   C.ar      1 RES1   0.0000
    28 H9      17.1588   6.1798  21.7977   H         1 RES1   0.0000
    29 C11     17.5016   5.3063  20.0109   C.ar      1 RES1   0.0000
    30 H10     17.8262   4.5012  20.3449   H         1 RES1   0.0000
    31 C12     17.4131   5.5045  18.6688   C.ar      1 RES1   0.0000
    32 H11     17.6743   4.8232  18.0930   H         1 RES1   0.0000
    33 C13     16.9375   6.7157  18.1289   C.ar      1 RES1   0.0000
    34 C14     16.1520  11.6026  16.9908   C.ar      1 RES1   0.0000
    35 C15     17.4200  11.5282  16.4620   C.ar      1 RES1   0.0000
    36 H12     17.7159  10.7519  16.0460   H         1 RES1   0.0000
    37 C16     18.2410  12.6276  16.5603   C.ar      1 RES1   0.0000
    38 H13     19.1045  12.5844  16.2161   H         1 RES1   0.0000
    39 C17     17.8146  13.7860  17.1566   C.ar      1 RES1   0.0000
    40 H14     18.3802  14.5213  17.2099   H         1 RES1   0.0000
    41 C18     16.5357  13.8520  17.6750   C.ar      1 RES1   0.0000
    42 H15     16.2400  14.6295  18.0889   H         1 RES1   0.0000
    43 C19     15.6990  12.7586  17.5746   C.ar      1 RES1   0.0000
    44 H16     14.8310  12.8042  17.9045   H         1 RES1   0.0000
    45 C20     16.6291   8.9207  13.2995   C.ar      1 RES1   0.0000
    46 C21     15.9161   8.0760  12.4455   C.ar      1 RES1   0.0000
    47 C22     15.7283   8.4893  11.1037   C.ar      1 RES1   0.0000
    48 H17     15.2687   7.9378  10.5136   H         1 RES1   0.0000
    49 C23     16.2159   9.6897  10.6612   C.ar      1 RES1   0.0000
    50 H18     16.0541   9.9601   9.7862   H         1 RES1   0.0000
    51 C24     16.9462  10.5056  11.5136   C.ar      1 RES1   0.0000
    52 H19     17.2968  11.3083  11.2001   H         1 RES1   0.0000
    53 C25     17.1547  10.1295  12.8085   C.ar      1 RES1   0.0000
    54 H20     17.6481  10.6786  13.3741   H         1 RES1   0.0000
    55 C26     15.3554   6.7818  12.8520   C.2       1 RES1   0.0000
    56 C27     14.7121   5.9083  11.8291   C.3       1 RES1   0.0000
    57 H21     15.3898   5.4396  11.3373   H         1 RES1   0.0000
    58 H22     14.1952   6.4478  11.2287   H         1 RES1   0.0000
    59 H23     14.1373   5.2738  12.2656   H         1 RES1   0.0000
    60 C28     14.2522   5.1525  15.6915   C.ar      1 RES1   0.0000
    61 C29     13.7171   3.9761  16.2304   C.ar      1 RES1   0.0000
    62 H24     13.8248   3.1566  15.8063   H         1 RES1   0.0000
    63 C30     13.0258   4.0842  17.4107   C.ar      1 RES1   0.0000
    64 H25     12.6495   3.3248  17.7918   H         1 RES1   0.0000
    65 C31     12.8841   5.2991  18.0336   C.ar      1 RES1   0.0000
    66 H26     12.4006   5.3724  18.8266   H         1 RES1   0.0000
    67 C32     13.4671   6.3961  17.4681   C.ar      1 RES1   0.0000
    68 H27     13.3835   7.2180  17.8943   H         1 RES1   0.0000
    69 C33     15.6957   4.0242  14.0429   C.ar      1 RES1   0.0000
    70 C34     17.0376   3.9977  14.3351   C.ar      1 RES1   0.0000
    71 H28     17.4252   4.6995  14.8064   H         1 RES1   0.0000
    72 C35     17.8076   2.9343  13.9273   C.ar      1 RES1   0.0000
    73 H29     18.7181   2.9259  14.1117   H         1 RES1   0.0000
    74 C36     17.2424   1.8949  13.2573   C.ar      1 RES1   0.0000
    75 H30     17.7701   1.1788  12.9848   H         1 RES1   0.0000
    76 C37     15.9079   1.8997  12.9827   C.ar      1 RES1   0.0000
    77 H31     15.5250   1.1752  12.5422   H         1 RES1   0.0000
    78 C38     15.1228   2.9692  13.3515   C.ar      1 RES1   0.0000
    79 H32     14.2178   2.9824  13.1384   H         1 RES1   0.0000
    80 O3      14.2039   3.2936   9.3969   O.2       2 RES2   0.0000
    81 O4      12.6585   3.3813  10.7902   O.2       2 RES2   0.0000
    82 O5      13.6029   1.8132  10.2944   O.3       2 RES2  -1.0000
    83 N7      13.3823   3.1097  10.1018   N.pl3     2 RES2   0.0000
    84 O6      14.0769  11.5089   8.7965   O.3       3 RES3   0.0000
    85 H33     14.2482  12.1602   9.3416   H         3 RES3   0.0000
    86 H34     13.8548  10.9706   8.5138   H         3 RES3   0.0000
@<TRIPOS>BOND
     1     1     2    1
     2     2    33    1
     3     3     1    1
     4     4     1    1
     5     5     6    1
     6     6     1    1
     7     7     1    1
     8     8     7    1
     9     9     1    1
    10    10     4   ar
    11    11    10   ar
    12    12    11    1
    13    13    11   ar
    14    14    13    1
    15    15    13   ar
    16    16    15    1
    17    17     4   ar
    18    18    17    1
    19    19     6    2
    20    20    19    1
    21    21    20    1
    22    22    20    1
    23    23    20    1
    24    24    19    1
    25    25    24   ar
    26    26    25    1
    27    27    25   ar
    28    28    27    1
    29    29    27   ar
    30    30    29    1
    31    31    29   ar
    32    32    31    1
    33    33    24   ar
    34    34     5    1
    35    35    34   ar
    36    36    35    1
    37    37    35   ar
    38    38    37    1
    39    39    37   ar
    40    40    39    1
    41    41    39   ar
    42    42    41    1
    43    43    34   ar
    44    44    43    1
    45    45     3    1
    46    46    45   ar
    47    47    46   ar
    48    48    47    1
    49    49    47   ar
    50    50    49    1
    51    51    49   ar
    52    52    51    1
    53    53    45   ar
    54    54    53    1
    55    55     7    2
    56    56    55    1
    57    57    56    1
    58    58    56    1
    59    59    56    1
    60    60     8    1
    61    61    60   ar
    62    62    61    1
    63    63    61   ar
    64    64    63    1
    65    65    63   ar
    66    66    65    1
    67    67     9   ar
    68    68    67    1
    69    69     8    1
    70    70    69   ar
    71    71    70    1
    72    72    70   ar
    73    73    72    1
    74    74    72   ar
    75    75    74    1
    76    76    74   ar
    77    77    76    1
    78    78    69   ar
    79    79    78    1
    80     5    10    1
    81     9    60   ar
    82    15    17   ar
    83    31    33   ar
    84    41    43   ar
    85    46    55    1
    86    51    53   ar
    87    65    67   ar
    88    76    78   ar
    89    80    83    2
    90    81    83    2
    91    82    83    1
    92    84    85    1
    93    86    84    1
@<TRIPOS>SUBSTRUCTURE
     1 RES1        1 GROUP             0 ****  ****    0  
     2 RES2       80 GROUP             0 ****  ****    0  
     3 RES3       84 GROUP             0 ****  ****    0  
@<TRIPOS>CRYSIN
   28.1340   12.0160   20.6900   90.0000   97.9650   90.0000    15     1
