@<TRIPOS>MOLECULE
WUQBIV
    83    90     3     0     0
SMALL
USER_CHARGES
****
Generated from the CSD

@<TRIPOS>ATOM
     1 Fe1     -2.0045   1.1300  17.3577   Fe        1 RES1   1.0000
     2 O1      -3.0917   2.2965  18.3122   O.3       1 RES1   0.0000
     3 O2      -2.0689  -0.2357  18.6068   O.3       1 RES1   0.0000
     4 N1      -0.3929   1.6470  18.2499   N.2       1 RES1   0.0000
     5 N2       0.7348   0.8853  17.8908   N.pl3     1 RES1   0.0000
     6 N3      -3.8894   1.3832  15.3211   N.pl3     1 RES1   0.0000
     7 N4      -3.5834   0.5754  16.4285   N.2       1 RES1   0.0000
     8 N5      -0.7511   0.0297  16.3189   N.ar      1 RES1   0.0000
     9 N6      -1.9611   2.4581  15.9383   N.ar      1 RES1   0.0000
    10 C1      -7.7587   1.5695  13.8288   C.ar      1 RES1   0.0000
    11 H1      -8.6206   1.6486  13.4890   H         1 RES1   0.0000
    12 C2      -4.0922  -1.2991  17.8456   C.ar      1 RES1   0.0000
    13 C3      -2.9232  -2.0261  19.8110   C.ar      1 RES1   0.0000
    14 H2      -2.2141  -1.9404  20.4066   H         1 RES1   0.0000
    15 C4      -1.3430   3.3533  19.6347   C.ar      1 RES1   0.0000
    16 C5      -3.0198  -1.1524  18.7466   C.ar      1 RES1   0.0000
    17 C6       2.9414   1.0765  18.8799   C.ar      1 RES1   0.0000
    18 H3       3.1654   1.7261  18.2542   H         1 RES1   0.0000
    19 C7      -1.0521   4.3391  20.6002   C.ar      1 RES1   0.0000
    20 H4      -0.1782   4.4331  20.9034   H         1 RES1   0.0000
    21 C8       1.4622  -0.8523  16.3640   C.ar      1 RES1   0.0000
    22 H5       2.3026  -0.8754  16.7618   H         1 RES1   0.0000
    23 C9       0.4806  -0.0099  16.8522   C.ar      1 RES1   0.0000
    24 C10      1.1833  -1.6420  15.3018   C.ar      1 RES1   0.0000
    25 H6       1.8373  -2.2025  14.9534   H         1 RES1   0.0000
    26 C11     -0.2604   2.5322  19.1530   C.2       1 RES1   0.0000
    27 H7       0.5826   2.6559  19.5250   H         1 RES1   0.0000
    28 C12     -0.0822  -1.6107  14.7362   C.ar      1 RES1   0.0000
    29 H8      -0.2975  -2.1498  14.0094   H         1 RES1   0.0000
    30 C13     -5.0348  -2.3344  18.0757   C.ar      1 RES1   0.0000
    31 H9      -5.7526  -2.4531  17.4972   H         1 RES1   0.0000
    32 C14     -3.8430  -3.0087  20.0045   C.ar      1 RES1   0.0000
    33 H10     -3.7515  -3.5841  20.7292   H         1 RES1   0.0000
    34 C15     -4.3318  -0.4286  16.7167   C.2       1 RES1   0.0000
    35 H11     -5.0660  -0.6034  16.1726   H         1 RES1   0.0000
    36 C16      1.6900   0.5325  18.8971   C.ar      1 RES1   0.0000
    37 C17     -3.6640   4.0572  19.7336   C.ar      1 RES1   0.0000
    38 H12     -4.5475   3.9847  19.4519   H         1 RES1   0.0000
    39 C18     -1.0018  -0.7633  15.2824   C.ar      1 RES1   0.0000
    40 H13     -1.8523  -0.7386  14.9083   H         1 RES1   0.0000
    41 C19      1.3499  -0.3825  19.8519   C.ar      1 RES1   0.0000
    42 H14      0.4893  -0.7336  19.8734   H         1 RES1   0.0000
    43 C20     -2.6935   3.1917  19.2046   C.ar      1 RES1   0.0000
    44 C21     -5.2454   1.4129  14.7792   C.ar      1 RES1   0.0000
    45 C22      3.8701   0.6479  19.8110   C.ar      1 RES1   0.0000
    46 H15      4.7329   0.9941  19.7981   H         1 RES1   0.0000
    47 C23     -4.8787  -3.1653  19.1681   C.ar      1 RES1   0.0000
    48 H16     -5.4989  -3.8396  19.3229   H         1 RES1   0.0000
    49 C24     -1.1609   4.3704  14.7642   C.ar      1 RES1   0.0000
    50 H17     -0.5167   5.0332  14.6588   H         1 RES1   0.0000
    51 C25     -3.3275   5.0068  20.6539   C.ar      1 RES1   0.0000
    52 H18     -3.9877   5.5657  20.9937   H         1 RES1   0.0000
    53 C26     -2.0177   5.1535  21.0926   C.ar      1 RES1   0.0000
    54 H19     -1.8048   5.8047  21.7205   H         1 RES1   0.0000
    55 C27     -3.0244   2.4185  15.1147   C.ar      1 RES1   0.0000
    56 C28      3.5321  -0.2638  20.7292   C.ar      1 RES1   0.0000
    57 H20      4.1679  -0.5473  21.3463   H         1 RES1   0.0000
    58 C29     -3.2043   3.3467  14.0954   C.ar      1 RES1   0.0000
    59 H21     -3.9530   3.3071  13.5449   H         1 RES1   0.0000
    60 C30     -1.0367   3.4357  15.7512   C.ar      1 RES1   0.0000
    61 H22     -0.2968   3.4687  16.3146   H         1 RES1   0.0000
    62 C31     -2.2594   4.3193  13.9234   C.ar      1 RES1   0.0000
    63 H23     -2.3538   4.9442  13.2396   H         1 RES1   0.0000
    64 C32     -6.1743   2.2454  15.3727   C.ar      1 RES1   0.0000
    65 H24     -5.9275   2.7647  16.1017   H         1 RES1   0.0000
    66 C33     -5.5612   0.6446  13.7127   C.ar      1 RES1   0.0000
    67 H25     -4.9307   0.0890  13.3127   H         1 RES1   0.0000
    68 C34     -6.8900   0.7204  13.2288   C.ar      1 RES1   0.0000
    69 H26     -7.1620   0.1962  12.5106   H         1 RES1   0.0000
    70 C35      2.2805  -0.7831  20.7744   C.ar      1 RES1   0.0000
    71 H27      2.0534  -1.4046  21.4281   H         1 RES1   0.0000
    72 C36     -7.4074   2.3097  14.9104   C.ar      1 RES1   0.0000
    73 H28     -8.0327   2.8603  15.3233   H         1 RES1   0.0000
    74 Cl1     -4.4148  -3.1440  13.9417   Cl        2 RES2   0.0000
    75 O3      -3.5749  -2.0426  13.8051   O.2       2 RES2   0.0000
    76 O4      -5.6353  -2.7515  14.5599   O.3       2 RES2  -1.0000
    77 O5      -4.6365  -3.7802  12.6934   O.2       2 RES2   0.0000
    78 O6      -3.7469  -4.0687  14.7599   O.2       2 RES2   0.0000
    79 Cl2     -2.9451  -0.7979   9.6077   Cl        3 RES3   0.0000
    80 C37     -3.6922  -1.3519  10.6656   C.3       3 RES3   0.0000
    81 H29     -3.2874  -1.0881  11.5000   H         3 RES3   0.0000
    82 H30     -3.6489  -2.3163  10.5990   H         3 RES3   0.0000
    83 Cl3     -5.2242  -0.9084  10.6699   Cl        3 RES3   0.0000
@<TRIPOS>BOND
     1     1     2    1
     2     2    43    1
     3     3     1    1
     4     4     1    1
     5     5     4    1
     6     6     7    1
     7     7     1    1
     8     8     1    1
     9     9     1    1
    10    10    11    1
    11    12    16   ar
    12    13    14    1
    13    15    19   ar
    14    16     3    1
    15    17    18    1
    16    19    20    1
    17    21    22    1
    18    23     5    1
    19    24    21   ar
    20    25    24    1
    21    26     4    2
    22    27    26    1
    23    28    24   ar
    24    29    28    1
    25    30    12   ar
    26    31    30    1
    27    32    13   ar
    28    33    32    1
    29    34     7    2
    30    35    34    1
    31    36     5    1
    32    37    38    1
    33    39     8   ar
    34    40    39    1
    35    41    36   ar
    36    42    41    1
    37    43    15   ar
    38    44     6    1
    39    45    17   ar
    40    46    45    1
    41    47    30   ar
    42    48    47    1
    43    49    50    1
    44    51    37   ar
    45    52    51    1
    46    53    19   ar
    47    54    53    1
    48    55     6    1
    49    56    45   ar
    50    57    56    1
    51    58    55   ar
    52    59    58    1
    53    60     9   ar
    54    61    60    1
    55    62    49   ar
    56    63    62    1
    57    64    44   ar
    58    65    64    1
    59    66    44   ar
    60    67    66    1
    61    68    10   ar
    62    69    68    1
    63    70    41   ar
    64    71    70    1
    65    72    10   ar
    66    73    72    1
    67     8    23   ar
    68     9    55   ar
    69    12    34    1
    70    13    16   ar
    71    15    26    1
    72    17    36   ar
    73    21    23   ar
    74    28    39   ar
    75    32    47   ar
    76    37    43   ar
    77    49    60   ar
    78    51    53   ar
    79    56    70   ar
    80    58    62   ar
    81    64    72   ar
    82    66    68   ar
    83    74    75    2
    84    76    74    1
    85    77    74    2
    86    78    74    2
    87    79    80    1
    88    80    81    1
    89    82    80    1
    90    83    80    1
@<TRIPOS>SUBSTRUCTURE
     1 RES1        1 GROUP             0 ****  ****    0  
     2 RES2       74 GROUP             0 ****  ****    0  
     3 RES3       79 GROUP             0 ****  ****    0  
@<TRIPOS>CRYSIN
    9.9420   16.4860   22.0020   90.0000  102.2220   90.0000   231     1
