@<TRIPOS>MOLECULE
WUTSAI
   101   109     4     0     0
SMALL
USER_CHARGES
****
Generated from the CSD

@<TRIPOS>ATOM
     1 Fe1      3.1222   4.5348   4.1702   Fe        1 RES1   2.0000
     2 N1       2.3041   7.3907   3.3061   N.pl3     1 RES1   0.0000
     3 H1       1.5258   7.1593   2.9938   H         1 RES1   0.0000
     4 N2       3.0932   6.4807   3.9038   N.2       1 RES1   0.0000
     5 N3       4.7876   5.0303   4.9924   N.ar      1 RES1   0.0000
     6 N4       3.7923   2.7720   4.7459   N.2       1 RES1   0.0000
     7 N5       3.3476   1.4955   4.7576   N.pl3     1 RES1   0.0000
     8 H2       2.6421   1.2688   4.2541   H         1 RES1   0.0000
     9 N6       2.0261   4.9570   7.0286   N.pl3     1 RES1   0.0000
    10 H3       2.7430   5.2667   7.3338   H         1 RES1   0.0000
    11 N7       1.9284   4.6491   5.7249   N.2       1 RES1   0.0000
    12 N8       1.4395   4.0932   3.3636   N.ar      1 RES1   0.0000
    13 N9       3.6710   4.2744   2.3005   N.2       1 RES1   0.0000
    14 N10      4.7965   4.3483   1.5839   N.pl3     1 RES1   0.0000
    15 H4       5.5331   4.5895   1.9615   H         1 RES1   0.0000
    16 C1      -0.5282   8.4141   0.8177   C.3       1 RES1   0.0000
    17 H5      -1.3093   8.8692   1.1964   H         1 RES1   0.0000
    18 H6      -0.7381   7.4673   0.6773   H         1 RES1   0.0000
    19 H7      -0.2933   8.8273  -0.0393   H         1 RES1   0.0000
    20 C2       1.1065   9.7732   1.9435   C.ar      1 RES1   0.0000
    21 C3       0.5814  10.9416   1.4049   C.ar      1 RES1   0.0000
    22 H8      -0.1856  10.9018   0.8461   H         1 RES1   0.0000
    23 C4       1.1742  12.1641   1.6807   C.ar      1 RES1   0.0000
    24 H9       0.8136  12.9577   1.3022   H         1 RES1   0.0000
    25 C5       2.2858  12.2413   2.5011   C.ar      1 RES1   0.0000
    26 H10      2.6822  13.0839   2.6892   H         1 RES1   0.0000
    27 C6       2.8181  11.0808   3.0488   C.ar      1 RES1   0.0000
    28 H11      3.5784  11.1349   3.6156   H         1 RES1   0.0000
    29 C7       2.2459   9.8311   2.7737   C.ar      1 RES1   0.0000
    30 C8       2.8682   8.6389   3.3389   C.2       1 RES1   0.0000
    31 O1       0.5739   8.5291   1.7201   O.3       1 RES1   0.0000
    32 C9       4.0813   8.5087   3.9845   C.2       1 RES1   0.0000
    33 H12      4.7147   9.1938   4.1632   H         1 RES1   0.0000
    34 O2       5.8993  -1.1452   6.6875   O.3       1 RES1   0.0000
    35 C10      4.1801   7.1505   4.3204   C.2       1 RES1   0.0000
    36 C11      5.1770   6.3203   4.9806   C.ar      1 RES1   0.0000
    37 C12      6.3769   6.7159   5.5487   C.ar      1 RES1   0.0000
    38 H13      6.6443   7.6275   5.5385   H         1 RES1   0.0000
    39 C13      7.1791   5.7453   6.1334   C.ar      1 RES1   0.0000
    40 H14      8.0066   5.9934   6.5297   H         1 RES1   0.0000
    41 C14      6.7819   4.4131   6.1431   C.ar      1 RES1   0.0000
    42 H15      7.3287   3.7444   6.5384   H         1 RES1   0.0000
    43 C15      5.5640   4.0859   5.5593   C.ar      1 RES1   0.0000
    44 C16      4.9423   2.7716   5.4467   C.2       1 RES1   0.0000
    45 C17      5.2242   1.4794   5.9121   C.2       1 RES1   0.0000
    46 H16      5.9718   1.2088   6.4320   H         1 RES1   0.0000
    47 C18      4.1911   0.6801   5.4592   C.2       1 RES1   0.0000
    48 C19      3.8695  -0.7549   5.6134   C.ar      1 RES1   0.0000
    49 C20      2.6426  -1.2436   5.1397   C.ar      1 RES1   0.0000
    50 H17      2.0189  -0.6393   4.7550   H         1 RES1   0.0000
    51 C21      2.3186  -2.5976   5.2208   C.ar      1 RES1   0.0000
    52 H18      1.4987  -2.9190   4.8636   H         1 RES1   0.0000
    53 C22      3.2022  -3.4601   5.8251   C.ar      1 RES1   0.0000
    54 H19      2.9840  -4.3829   5.8886   H         1 RES1   0.0000
    55 C23      4.3953  -3.0104   6.3397   C.ar      1 RES1   0.0000
    56 H20      4.9875  -3.6184   6.7673   H         1 RES1   0.0000
    57 C24      4.7411  -1.6475   6.2331   C.ar      1 RES1   0.0000
    58 C25      6.8125  -2.0563   7.3314   C.3       1 RES1   0.0000
    59 H21      6.3999  -2.4098   8.1474   H         1 RES1   0.0000
    60 H22      7.6386  -1.5830   7.5617   H         1 RES1   0.0000
    61 H23      7.0185  -2.7966   6.7230   H         1 RES1   0.0000
    62 C26      0.8381   4.8429   7.6417   C.2       1 RES1   0.0000
    63 H24      0.6640   5.0123   8.5601   H         1 RES1   0.0000
    64 C27     -0.0841   4.4373   6.7049   C.2       1 RES1   0.0000
    65 H25     -1.0091   4.2658   6.8381   H         1 RES1   0.0000
    66 C28      0.6388   4.3332   5.5144   C.2       1 RES1   0.0000
    67 C29      0.3272   4.0335   4.1243   C.ar      1 RES1   0.0000
    68 C30     -0.9162   3.7844   3.5671   C.ar      1 RES1   0.0000
    69 H26     -1.6942   3.7299   4.1099   H         1 RES1   0.0000
    70 C31     -0.9916   3.6186   2.1922   C.ar      1 RES1   0.0000
    71 H27     -1.8354   3.4618   1.7860   H         1 RES1   0.0000
    72 C32      0.1482   3.6756   1.3991   C.ar      1 RES1   0.0000
    73 H28      0.0958   3.5631   0.4572   H         1 RES1   0.0000
    74 C33      1.3666   3.9052   2.0294   C.ar      1 RES1   0.0000
    75 C34      2.6875   4.0062   1.4180   C.2       1 RES1   0.0000
    76 C35      3.2113   3.9100   0.1229   C.2       1 RES1   0.0000
    77 H29      2.7399   3.7295  -0.6820   H         1 RES1   0.0000
    78 C36      4.5560   4.1343   0.2750   C.2       1 RES1   0.0000
    79 H30      5.2042   4.1380  -0.4197   H         1 RES1   0.0000
    80 Cl1      4.3378   6.0436   9.5243   Cl        2 RES2   0.0000
    81 O3       3.0802   5.4334   9.8796   O.3       2 RES2  -1.0000
    82 O4       4.3998   6.1202   8.0871   O.2       2 RES2   0.0000
    83 O5       4.3917   7.3539  10.0617   O.2       2 RES2   0.0000
    84 O6       5.3955   5.2708  10.0514   O.2       2 RES2   0.0000
    85 Cl2      7.7596   6.1748   2.3146   Cl        3 RES3   0.0000
    86 O7       7.2009   4.9356   2.8356   O.3       3 RES3  -1.0000
    87 O8       8.2452   5.9385   0.9931   O.2       3 RES3   0.0000
    88 O9       6.7362   7.1795   2.2876   O.2       3 RES3   0.0000
    89 O10      8.8251   6.5830   3.1690   O.2       3 RES3   0.0000
    90 O11      0.9738   0.9664   3.2455   O.3       4 RES4   0.0000
    91 H31      0.3589   1.1492   3.9355   H         4 RES4   0.0000
    92 C37      0.4331  -0.1155   2.4740   C.3       4 RES4   0.0000
    93 H32      0.4378  -0.9354   3.0290   H         4 RES4   0.0000
    94 H33      1.0236  -0.2770   1.6957   H         4 RES4   0.0000
    95 C38     -0.9728   0.1264   1.9757   C.3       4 RES4   0.0000
    96 H34     -1.5617   0.3195   2.7474   H         4 RES4   0.0000
    97 H35     -0.9755   0.9202   1.3847   H         4 RES4   0.0000
    98 C39     -1.5209  -1.0505   1.2214   C.3       4 RES4   0.0000
    99 H36     -2.4306  -0.8493   0.9185   H         4 RES4   0.0000
   100 H37     -0.9512  -1.2348   0.4452   H         4 RES4   0.0000
   101 H38     -1.5374  -1.8354   1.8078   H         4 RES4   0.0000
@<TRIPOS>BOND
     1     1     4    1
     2     2     3    1
     3     4     2    1
     4     5     1    1
     5     6     1    1
     6     7     6    1
     7     8     7    1
     8     9    10    1
     9    11     1    1
    10    12     1    1
    11    13     1    1
    12    14    13    1
    13    15    14    1
    14    16    17    1
    15    18    16    1
    16    19    16    1
    17    20    21   ar
    18    21    22    1
    19    23    21   ar
    20    24    23    1
    21    25    23   ar
    22    26    25    1
    23    27    25   ar
    24    28    27    1
    25    29    20   ar
    26    30     2    1
    27    31    16    1
    28    32    30    2
    29    33    32    1
    30    34    57    1
    31    35     4    2
    32    36     5   ar
    33    37    36   ar
    34    38    37    1
    35    39    37   ar
    36    40    39    1
    37    41    39   ar
    38    42    41    1
    39    43     5   ar
    40    44     6    2
    41    45    44    1
    42    46    45    1
    43    47     7    1
    44    48    47    1
    45    49    48   ar
    46    50    49    1
    47    51    49   ar
    48    52    51    1
    49    53    51   ar
    50    54    53    1
    51    55    53   ar
    52    56    55    1
    53    57    48   ar
    54    58    34    1
    55    59    58    1
    56    60    58    1
    57    61    58    1
    58    62     9    1
    59    63    62    1
    60    64    62    2
    61    65    64    1
    62    66    11    2
    63    67    12   ar
    64    68    67   ar
    65    69    68    1
    66    70    68   ar
    67    71    70    1
    68    72    70   ar
    69    73    72    1
    70    74    12   ar
    71    75    13    2
    72    76    75    1
    73    77    76    1
    74    78    14    1
    75    79    78    1
    76     9    11    1
    77    20    31    1
    78    27    29   ar
    79    29    30    1
    80    32    35    1
    81    35    36    1
    82    41    43   ar
    83    43    44    1
    84    45    47    2
    85    55    57   ar
    86    64    66    1
    87    66    67    1
    88    72    74   ar
    89    74    75    1
    90    76    78    2
    91    80    81    1
    92    82    80    2
    93    83    80    2
    94    84    80    2
    95    85    86    1
    96    87    85    2
    97    88    85    2
    98    89    85    2
    99    90    91    1
   100    92    90    1
   101    93    92    1
   102    94    92    1
   103    95    92    1
   104    96    95    1
   105    97    95    1
   106    98    95    1
   107    99    98    1
   108   100    98    1
   109   101    98    1
@<TRIPOS>SUBSTRUCTURE
     1 RES1        1 GROUP             0 ****  ****    0  
     2 RES2       80 GROUP             0 ****  ****    0  
     3 RES3       85 GROUP             0 ****  ****    0  
     4 RES4       90 GROUP             0 ****  ****    0  
@<TRIPOS>CRYSIN
   11.1233   11.9616   16.9794  100.6020  105.9460  107.6180     2     1
