@<TRIPOS>MOLECULE
WUVRUC
    75    80     2     0     0
SMALL
USER_CHARGES
****
Generated from the CSD

@<TRIPOS>ATOM
     1 Fe1     11.3264   5.1619  11.4349   Fe        1 RES1   1.0000
     2 O1      11.4193   3.4096  10.7725   O.3       1 RES1   0.0000
     3 O2      10.1474   5.9446  10.1712   O.3       1 RES1   0.0000
     4 O3      12.1938  -1.2098  10.1225   O.3       1 RES1   0.0000
     5 O4       8.1381   8.8641   7.2048   O.3       1 RES1   0.0000
     6 N1      12.6765   4.6027  12.9516   N.2       1 RES1   0.0000
     7 N2      11.5605   7.0293  12.3497   N.2       1 RES1   0.0000
     8 N3       9.6596   4.7341  12.7276   N.2       1 RES1   0.0000
     9 N4       7.5575   4.4388  13.2677   N.pl3     1 RES1   0.0000
    10 N5      13.0319   5.6505  10.1610   N.2       1 RES1   0.0000
    11 N6      14.4877   5.3610   8.5609   N.pl3     1 RES1   0.0000
    12 C1      12.0365   2.3135  11.1943   C.ar      1 RES1   0.0000
    13 C2      11.8475   1.1664  10.4068   C.ar      1 RES1   0.0000
    14 C3      12.3630  -0.0418  10.7864   C.ar      1 RES1   0.0000
    15 C4      13.1247  -0.1116  11.9451   C.ar      1 RES1   0.0000
    16 C5      13.3598   1.0042  12.6875   C.ar      1 RES1   0.0000
    17 C6      12.8576   2.2717  12.3497   C.ar      1 RES1   0.0000
    18 C7      13.2037   3.4276  13.1523   C.2       1 RES1   0.0000
    19 C8      14.2507   3.2428  14.2241   C.3       1 RES1   0.0000
    20 C9      13.1466   5.7568  13.7007   C.3       1 RES1   0.0000
    21 C10     12.2217   6.8865  13.6472   C.3       1 RES1   0.0000
    22 C11     11.1073   8.1802  11.9401   C.2       1 RES1   0.0000
    23 C12     11.3881   9.4424  12.7209   C.3       1 RES1   0.0000
    24 C13     10.3618   8.3040  10.6944   C.ar      1 RES1   0.0000
    25 C14      9.9962   9.5836  10.2446   C.ar      1 RES1   0.0000
    26 C15      9.2805   9.8347   9.1043   C.ar      1 RES1   0.0000
    27 C16      8.8559   8.7520   8.3452   C.ar      1 RES1   0.0000
    28 C17      9.1772   7.4758   8.7531   C.ar      1 RES1   0.0000
    29 C18      9.9171   7.2178   9.8901   C.ar      1 RES1   0.0000
    30 C19     11.3560  -1.1908   8.9772   C.3       1 RES1   0.0000
    31 C20      7.8429  10.1973   6.7551   C.3       1 RES1   0.0000
    32 C21      9.5632   4.3969  14.0652   C.2       1 RES1   0.0000
    33 C22      8.2755   4.2191  14.3980   C.2       1 RES1   0.0000
    34 C23      8.4102   4.7491  12.2979   C.2       1 RES1   0.0000
    35 C24     13.8171   6.7697  10.0423   C.2       1 RES1   0.0000
    36 C25     14.7131   6.6024   9.0775   C.2       1 RES1   0.0000
    37 C26     13.4870   4.8345   9.2314   C.2       1 RES1   0.0000
    38 H1       6.5833   4.3760  13.2426   H         1 RES1   0.0000
    39 H2      14.9252   5.0734   7.9255   H         1 RES1   0.0000
    40 H3      11.3737   1.2553   9.5641   H         1 RES1   0.0000
    41 H4      13.3488  -0.8891  12.1725   H         1 RES1   0.0000
    42 H5      13.8514   0.8194  13.3763   H         1 RES1   0.0000
    43 H6      13.8836   3.4764  15.0785   H         1 RES1   0.0000
    44 H7      14.5278   2.3240  14.2341   H         1 RES1   0.0000
    45 H8      15.0069   3.8024  14.0368   H         1 RES1   0.0000
    46 H9      13.3731   5.6487  14.6973   H         1 RES1   0.0000
    47 H10     14.0188   6.1543  13.2259   H         1 RES1   0.0000
    48 H11     12.7035   7.7060  13.8428   H         1 RES1   0.0000
    49 H12     11.5382   6.7436  14.3211   H         1 RES1   0.0000
    50 H13     11.5140   9.2227  13.6472   H         1 RES1   0.0000
    51 H14     10.6450  10.0439  12.6340   H         1 RES1   0.0000
    52 H15     12.1799   9.8643  12.3815   H         1 RES1   0.0000
    53 H16     10.2758  10.3037  10.7847   H         1 RES1   0.0000
    54 H17      9.1269  10.7047   8.8618   H         1 RES1   0.0000
    55 H18      8.9338   6.7994   8.2933   H         1 RES1   0.0000
    56 H19     10.6230  -0.5910   9.1344   H         1 RES1   0.0000
    57 H20     11.8558  -0.8909   8.2147   H         1 RES1   0.0000
    58 H21     11.0174  -2.0729   8.8100   H         1 RES1   0.0000
    59 H22      8.6106  10.5460   6.3019   H         1 RES1   0.0000
    60 H23      7.0950  10.1816   6.1531   H         1 RES1   0.0000
    61 H24      7.6330  10.7570   7.5075   H         1 RES1   0.0000
    62 H25     10.3397   4.4283  14.5802   H         1 RES1   0.0000
    63 H26      7.9515   3.9402  15.2825   H         1 RES1   0.0000
    64 H27      8.1023   4.9513  11.4201   H         1 RES1   0.0000
    65 H28     13.7416   7.5665  10.5172   H         1 RES1   0.0000
    66 H29     15.3286   7.0609   8.7782   H         1 RES1   0.0000
    67 H30     13.1322   4.0622   9.0290   H         1 RES1   0.0000
    68 S1       4.4446   3.6016  15.3634   S.o2      2 RES2   0.0000
    69 F1       3.8551   1.3947  14.1656   F         2 RES2   0.0000
    70 F2       5.8588   1.4976  14.7825   F         2 RES2   0.0000
    71 F3       4.3249   1.1664  16.2406   F         2 RES2   0.0000
    72 O5       4.7737   4.1476  14.0865   O.2       2 RES2   0.0000
    73 O6       5.3955   3.8687  16.3944   O.3       2 RES2  -1.0000
    74 O7       3.0816   3.7658  15.7139   O.2       2 RES2   0.0000
    75 C27      4.6183   1.8393  15.0919   C.3       2 RES2   0.0000
@<TRIPOS>BOND
     1     1     2    1
     2     2    12    1
     3     3     1    1
     4     4    14    1
     5     5    27    1
     6     6     1    1
     7     7     1    1
     8     8     1    1
     9     9    33    1
    10    10     1    1
    11    11    36    1
    12    12    13   ar
    13    13    14   ar
    14    14    15   ar
    15    15    16   ar
    16    16    17   ar
    17    17    12   ar
    18    18     6    2
    19    19    18    1
    20    20     6    1
    21    21     7    1
    22    22     7    2
    23    23    22    1
    24    24    22    1
    25    25    24   ar
    26    26    25   ar
    27    27    26   ar
    28    28    27   ar
    29    29     3    1
    30    30     4    1
    31    31     5    1
    32    32     8    1
    33    33    32    2
    34    34     8    2
    35    35    10    1
    36    36    35    2
    37    37    10    2
    38    38     9    1
    39    39    11    1
    40    40    13    1
    41    41    15    1
    42    42    16    1
    43    43    19    1
    44    44    19    1
    45    45    19    1
    46    46    20    1
    47    47    20    1
    48    48    21    1
    49    49    21    1
    50    50    23    1
    51    51    23    1
    52    52    23    1
    53    53    25    1
    54    54    26    1
    55    55    28    1
    56    56    30    1
    57    57    30    1
    58    58    30    1
    59    59    31    1
    60    60    31    1
    61    61    31    1
    62    62    32    1
    63    63    33    1
    64    64    34    1
    65    65    35    1
    66    66    36    1
    67    67    37    1
    68     9    34    1
    69    11    37    1
    70    17    18    1
    71    20    21    1
    72    24    29   ar
    73    28    29   ar
    74    68    72    2
    75    69    75    1
    76    70    75    1
    77    71    75    1
    78    73    68    1
    79    74    68    2
    80    75    68    1
@<TRIPOS>SUBSTRUCTURE
     1 RES1        1 GROUP             0 ****  ****    0  
     2 RES2       68 GROUP             0 ****  ****    0  
@<TRIPOS>CRYSIN
   20.6919   17.4343   18.1663   90.0000  113.0140   90.0000    15     1
