@<TRIPOS>MOLECULE
WUWMIM
    87    94     1     0     0
SMALL
NO_CHARGES
****
Generated from the CSD

@<TRIPOS>ATOM
     1 Fe1      3.1760   9.4946  29.6706   Fe        1 RES1   0.0000
     2 P1       5.5218   9.2943  29.3376   P.3       1 RES1   0.0000
     3 P2       2.1490   9.1654  27.5563   P.3       1 RES1   0.0000
     4 O1       2.7432  11.2534  30.1212   O.3       1 RES1   0.0000
     5 C1       2.9131   6.5853  28.1411   C.ar      1 RES1   0.0000
     6 C2       2.1719   7.3765  27.2289   C.ar      1 RES1   0.0000
     7 C3       4.9676   6.7564  30.0148   C.ar      1 RES1   0.0000
     8 C4       2.5160   7.5944  30.6505   C.ar      1 RES1   0.0000
     9 C5       1.5324   6.7858  26.1295   C.ar      1 RES1   0.0000
    10 H1       1.0074   7.3241  25.5493   H         1 RES1   0.0000
    11 C6       6.0057   7.7110  30.0663   C.ar      1 RES1   0.0000
    12 C7       6.0144   7.9235  26.9490   C.3       1 RES1   0.0000
    13 H2       6.4202   7.1738  27.4341   H         1 RES1   0.0000
    14 H3       6.3629   7.9497  26.0347   H         1 RES1   0.0000
    15 H4       5.0418   7.8091  26.9252   H         1 RES1   0.0000
    16 C8       6.3548   9.2323  27.6610   C.3       1 RES1   0.0000
    17 H5       5.9835   9.9809  27.1127   H         1 RES1   0.0000
    18 C9       3.0542   5.2231  27.8197   C.ar      1 RES1   0.0000
    19 H6       3.5919   4.6728  28.3781   H         1 RES1   0.0000
    20 C10      7.2656   7.3884  30.5842   C.ar      1 RES1   0.0000
    21 H7       7.9488   8.0477  30.6210   H         1 RES1   0.0000
    22 C11      2.0337  13.4714  29.9977   C.ar      1 RES1   0.0000
    23 H8       2.0109  13.4278  29.0476   H         1 RES1   0.0000
    24 C12      1.1081   7.4059  30.5919   C.ar      1 RES1   0.0000
    25 H9       0.7343   6.9841  29.8276   H         1 RES1   0.0000
    26 C13      5.2499   5.4868  30.5220   C.ar      1 RES1   0.0000
    27 H10      4.5663   4.8265  30.5273   H         1 RES1   0.0000
    28 C14      6.4438  10.6304  30.2220   C.3       1 RES1   0.0000
    29 H11      7.4257  10.4550  30.1490   H         1 RES1   0.0000
    30 C15      1.6566   5.4334  25.8828   C.ar      1 RES1   0.0000
    31 H12      1.2081   5.0390  25.1443   H         1 RES1   0.0000
    32 C16      7.5143   6.1080  31.0442   C.ar      1 RES1   0.0000
    33 H13      8.3750   5.8781  31.3743   H         1 RES1   0.0000
    34 C17      1.6826  14.6537  30.6244   C.ar      1 RES1   0.0000
    35 H14      1.4034  15.3969  30.1022   H         1 RES1   0.0000
    36 C18      6.5044   5.1675  31.0181   C.ar      1 RES1   0.0000
    37 H15      6.6710   4.2914  31.3441   H         1 RES1   0.0000
    38 C19      3.0981   9.9439  26.1489   C.3       1 RES1   0.0000
    39 H16      3.9426   9.4154  26.0682   H         1 RES1   0.0000
    40 C20      0.3920   9.6813  27.2356   C.3       1 RES1   0.0000
    41 H17      0.1808   9.4862  26.2791   H         1 RES1   0.0000
    42 C21      3.5354  11.3736  26.4793   C.3       1 RES1   0.0000
    43 H18      2.7627  11.9741  26.4197   H         1 RES1   0.0000
    44 H19      4.2221  11.6613  25.8406   H         1 RES1   0.0000
    45 H20      3.9019  11.4019  27.3872   H         1 RES1   0.0000
    46 C22      2.9804   8.2984  31.7817   C.ar      1 RES1   0.0000
    47 H21      3.9106   8.4727  31.8597   H         1 RES1   0.0000
    48 C23      2.4370   4.6586  26.7180   C.ar      1 RES1   0.0000
    49 H22      2.5510   3.7324  26.5336   H         1 RES1   0.0000
    50 C24      7.8733   9.4066  27.7159   C.3       1 RES1   0.0000
    51 H23      8.0871  10.3122  28.0233   H         1 RES1   0.0000
    52 H24      8.2504   9.2650  26.8214   H         1 RES1   0.0000
    53 H25      8.2542   8.7528  28.3379   H         1 RES1   0.0000
    54 C25      2.4238  12.3293  30.7228   C.ar      1 RES1   0.0000
    55 C26      2.4426   9.8829  24.7710   C.3       1 RES1   0.0000
    56 H26      2.2652   8.9479  24.5350   H         1 RES1   0.0000
    57 H27      3.0433  10.2795  24.1065   H         1 RES1   0.0000
    58 H28      1.5988  10.3809  24.7894   H         1 RES1   0.0000
    59 C27     -0.5872   8.9130  28.0966   C.3       1 RES1   0.0000
    60 H29     -0.4822   7.9529  27.9329   H         1 RES1   0.0000
    61 H30     -1.5009   9.1843  27.8726   H         1 RES1   0.0000
    62 H31     -0.4125   9.1059  29.0409   H         1 RES1   0.0000
    63 C28      6.0457  10.6598  31.6966   C.3       1 RES1   0.0000
    64 H32      5.0892  10.8571  31.7726   H         1 RES1   0.0000
    65 H33      6.5607  11.3540  32.1610   H         1 RES1   0.0000
    66 H34      6.2324   9.7880  32.1041   H         1 RES1   0.0000
    67 C29      0.2662   7.8113  31.6009   C.ar      1 RES1   0.0000
    68 H35     -0.6648   7.6314  31.5383   H         1 RES1   0.0000
    69 C30      2.1165   8.7550  32.8007   C.ar      1 RES1   0.0000
    70 H36      2.4616   9.2432  33.5369   H         1 RES1   0.0000
    71 C31      0.7669   8.4847  32.7153   C.ar      1 RES1   0.0000
    72 H37      0.1816   8.7572  33.4130   H         1 RES1   0.0000
    73 C32      0.2178  11.1840  27.4645   C.3       1 RES1   0.0000
    74 H38      0.5483  11.4194  28.3580   H         1 RES1   0.0000
    75 H39     -0.7313  11.4172  27.3972   H         1 RES1   0.0000
    76 H40      0.7250  11.6787  26.7880   H         1 RES1   0.0000
    77 C33      6.1182  11.9719  29.5448   C.3       1 RES1   0.0000
    78 H41      6.3598  11.9250  28.5957   H         1 RES1   0.0000
    79 H42      6.6277  12.6878  29.9783   H         1 RES1   0.0000
    80 H43      5.1593  12.1560  29.6301   H         1 RES1   0.0000
    81 C34      1.7334  14.7649  31.9949   C.ar      1 RES1   0.0000
    82 H44      1.4895  15.5767  32.4221   H         1 RES1   0.0000
    83 B1       3.5072   7.1847  29.4979   B         1 RES1   0.0000
    84 C35      2.4628  12.4623  32.1225   C.ar      1 RES1   0.0000
    85 H45      2.7093  11.7147  32.6564   H         1 RES1   0.0000
    86 C36      2.1456  13.6719  32.7421   C.ar      1 RES1   0.0000
    87 H46      2.2154  13.7482  33.6875   H         1 RES1   0.0000
@<TRIPOS>BOND
     1     1     2    1
     2     2    11    1
     3     3     1    1
     4     4     1    1
     5     5     6   ar
     6     6     3    1
     7     7    11   ar
     8     8     1   un
     9     9     6   ar
    10    10     9    1
    11    11    20   ar
    12    12    13    1
    13    14    12    1
    14    15    12    1
    15    16     2    1
    16    17    16    1
    17    18     5   ar
    18    19    18    1
    19    20    21    1
    20    22    23    1
    21    24     8   ar
    22    25    24    1
    23    26     7   ar
    24    27    26    1
    25    28     2    1
    26    29    28    1
    27    30     9   ar
    28    31    30    1
    29    32    20   ar
    30    33    32    1
    31    34    22   ar
    32    35    34    1
    33    36    26   ar
    34    37    36    1
    35    38     3    1
    36    39    38    1
    37    40     3    1
    38    41    40    1
    39    42    38    1
    40    43    42    1
    41    44    42    1
    42    45    42    1
    43    46     1   un
    44    47    46    1
    45    48    18   ar
    46    49    48    1
    47    50    16    1
    48    51    50    1
    49    52    50    1
    50    53    50    1
    51    54     4    1
    52    55    38    1
    53    56    55    1
    54    57    55    1
    55    58    55    1
    56    59    40    1
    57    60    59    1
    58    61    59    1
    59    62    59    1
    60    63    28    1
    61    64    63    1
    62    65    63    1
    63    66    63    1
    64    67    24   ar
    65    68    67    1
    66    69    46   ar
    67    70    69    1
    68    71    67   ar
    69    72    71    1
    70    73    40    1
    71    74    73    1
    72    75    73    1
    73    76    73    1
    74    77    28    1
    75    78    77    1
    76    79    77    1
    77    80    77    1
    78    81    34   ar
    79    82    81    1
    80    83     1    1
    81    84    54   ar
    82    85    84    1
    83    86    81   ar
    84    87    86    1
    85     5    83    1
    86     7    83    1
    87     8    46   ar
    88     8    83    1
    89    12    16    1
    90    22    54   ar
    91    30    48   ar
    92    32    36   ar
    93    69    71   ar
    94    84    86   ar
@<TRIPOS>SUBSTRUCTURE
     1 RES1        1 GROUP             0 ****  ****    0  
@<TRIPOS>CRYSIN
   17.9786   10.8974   33.4789   90.0000   90.6720   90.0000    15     1
