@<TRIPOS>MOLECULE
XABHIV
    80    82     2     0     0
SMALL
USER_CHARGES
****
Generated from the CSD

@<TRIPOS>ATOM
     1 Fe1      9.4097   3.9806   4.0021   Fe        1 RES1   1.0000
     2 P1       8.4859   5.8611   3.1797   P.3       1 RES1   0.0000
     3 P2       9.9964   1.9621   4.7890   P.3       1 RES1   0.0000
     4 O1      11.9984   5.3045   4.4659   O.2       1 RES1   0.0000
     5 O2       9.8701   2.9944   1.2771   O.2       1 RES1   0.0000
     6 O3       8.0150   4.3893   6.5451   O.2       1 RES1   0.0000
     7 C1      11.0065   4.7736   4.3132   C.1       1 RES1   0.0000
     8 C2       9.6017   7.2705   3.0191   C.3       1 RES1   0.0000
     9 H1       9.9214   7.5368   3.9064   H         1 RES1   0.0000
    10 H2       9.1243   8.0197   2.6055   H         1 RES1   0.0000
    11 H3      10.3654   7.0203   2.4583   H         1 RES1   0.0000
    12 C3       7.8122   5.6492   1.5109   C.3       1 RES1   0.0000
    13 H4       8.5446   5.4800   0.8820   H         1 RES1   0.0000
    14 H5       7.3351   6.4629   1.2454   H         1 RES1   0.0000
    15 H6       7.1927   4.8898   1.5027   H         1 RES1   0.0000
    16 C4       7.0947   6.5128   4.1425   C.3       1 RES1   0.0000
    17 H7       6.4248   5.8084   4.2666   H         1 RES1   0.0000
    18 H8       6.6910   7.2669   3.6640   H         1 RES1   0.0000
    19 H9       7.4162   6.8156   5.0174   H         1 RES1   0.0000
    20 C5       9.7302   3.3951   2.3345   C.1       1 RES1   0.0000
    21 C6       8.5896   4.2640   5.5732   C.1       1 RES1   0.0000
    22 C7      11.2864   1.1198   3.8793   C.3       1 RES1   0.0000
    23 H10     10.9711   0.9203   2.9730   H         1 RES1   0.0000
    24 H11     11.5159   0.2831   4.3362   H         1 RES1   0.0000
    25 H12     12.0800   1.6927   3.8303   H         1 RES1   0.0000
    26 C8      10.6731   1.9271   6.4634   C.3       1 RES1   0.0000
    27 H13     11.4868   2.4724   6.4984   H         1 RES1   0.0000
    28 H14     10.8884   1.0032   6.7095   H         1 RES1   0.0000
    29 H15     10.0117   2.2867   7.0908   H         1 RES1   0.0000
    30 C9       8.6290   0.8112   4.8824   C.3       1 RES1   0.0000
    31 H16      7.9254   1.1846   5.4533   H         1 RES1   0.0000
    32 H17      8.9411  -0.0373   5.2619   H         1 RES1   0.0000
    33 H18      8.2714   0.6544   3.9835   H         1 RES1   0.0000
    34 H19      8.0675   3.4244   3.6932   H         1 RES1   0.0000
    35 S1       7.7134   9.5444   6.9744   S.3       2 RES2   0.0000
    36 F1       9.8732   8.5366  11.1002   F         2 RES2   0.0000
    37 F2       6.0835  10.3571  12.8833   F         2 RES2   0.0000
    38 F3       8.1246  10.7948  11.2940   F         2 RES2   0.0000
    39 F4      11.1951   6.3141  11.6899   F         2 RES2   0.0000
    40 F5      11.7868   4.5024   9.7260   F         2 RES2   0.0000
    41 F6      10.9794   4.9881   7.1834   F         2 RES2   0.0000
    42 F7       9.6018   7.1514   6.5656   F         2 RES2   0.0000
    43 F8      11.7626   9.6532   8.9572   F         2 RES2   0.0000
    44 F9       6.6416   7.2721   8.4710   F         2 RES2   0.0000
    45 F10     13.0400  11.8794   9.4821   F         2 RES2   0.0000
    46 F11      7.6709  12.0706   8.8834   F         2 RES2   0.0000
    47 F12      4.2486   8.4235  12.3127   F         2 RES2   0.0000
    48 F13      4.5696   6.8993  10.0643   F         2 RES2   0.0000
    49 F14     11.7266  14.2600   9.6137   F         2 RES2   0.0000
    50 F15      9.0134  14.3042   9.3107   F         2 RES2   0.0000
    51 C10      8.1091  10.3606   4.4417   C.ar      2 RES2   0.0000
    52 H20      7.1598  10.3571   4.4040   H         2 RES2   0.0000
    53 C11      8.7573  10.0133   5.6384   C.ar      2 RES2   0.0000
    54 C12     10.7942   6.5284  10.4233   C.ar      2 RES2   0.0000
    55 C13     10.6801   5.8755   8.1566   C.ar      2 RES2   0.0000
    56 C14     11.0982   5.6162   9.4423   C.ar      2 RES2   0.0000
    57 C15     11.7001  11.9188   9.3325   C.ar      2 RES2   0.0000
    58 C16      6.2023   9.6149  11.7663   C.ar      2 RES2   0.0000
    59 C17     10.9905  10.7587   9.0752   C.ar      2 RES2   0.0000
    60 C18     10.1492  10.0413   5.6712   C.ar      2 RES2   0.0000
    61 H21     10.6132   9.8117   6.4677   H         2 RES2   0.0000
    62 C19     10.0879   7.6593  10.0882   C.ar      2 RES2   0.0000
    63 C20      9.9548   7.0163   7.8723   C.ar      2 RES2   0.0000
    64 C21      9.6090  10.6986   8.9089   C.ar      2 RES2   0.0000
    65 C22      9.6198   7.9726   8.8105   C.ar      2 RES2   0.0000
    66 C23      6.5229   8.1239   9.5128   C.ar      2 RES2   0.0000
    67 C24      7.2586   9.8373  10.8961   C.ar      2 RES2   0.0000
    68 C25      8.8410  10.7097   3.3102   C.ar      2 RES2   0.0000
    69 H22      8.3862  10.9292   2.5056   H         2 RES2   0.0000
    70 C26      9.0116  11.9598   8.9933   C.ar      2 RES2   0.0000
    71 C27      7.4649   9.1304   9.7126   C.ar      2 RES2   0.0000
    72 C28      5.2802   8.6381  11.4862   C.ar      2 RES2   0.0000
    73 C29      9.6804  13.1366   9.2382   C.ar      2 RES2   0.0000
    74 C30     11.0444  13.1241   9.4111   C.ar      2 RES2   0.0000
    75 C31     10.2091  10.7397   3.3452   C.ar      2 RES2   0.0000
    76 H23     10.7052  10.9834   2.5727   H         2 RES2   0.0000
    77 C32      5.4483   7.8788  10.3514   C.ar      2 RES2   0.0000
    78 C33     10.8597  10.4100   4.5237   C.ar      2 RES2   0.0000
    79 H24     11.8093  10.4342   4.5527   H         2 RES2   0.0000
    80 B1       8.7227   9.3396   8.6457   B         2 RES2  -1.0000
@<TRIPOS>BOND
     1     1     2    1
     2     2     8    1
     3     3     1    1
     4     4     7    3
     5     5    20    3
     6     6    21    3
     7     7     1    1
     8     8     9    1
     9    10     8    1
    10    11     8    1
    11    12     2    1
    12    13    12    1
    13    14    12    1
    14    15    12    1
    15    16     2    1
    16    17    16    1
    17    18    16    1
    18    19    16    1
    19    20     1    1
    20    21     1    1
    21    22     3    1
    22    23    22    1
    23    24    22    1
    24    25    22    1
    25    26     3    1
    26    27    26    1
    27    28    26    1
    28    29    26    1
    29    30     3    1
    30    31    30    1
    31    32    30    1
    32    33    30    1
    33    34     1    1
    34    35    53    1
    35    36    62    1
    36    37    58    1
    37    38    67    1
    38    39    54    1
    39    40    56    1
    40    41    55    1
    41    42    63    1
    42    43    59    1
    43    44    66    1
    44    45    57    1
    45    46    70    1
    46    47    72    1
    47    48    77    1
    48    49    74    1
    49    50    73    1
    50    51    52    1
    51    53    51   ar
    52    54    56   ar
    53    55    56   ar
    54    57    59   ar
    55    58    67   ar
    56    59    64   ar
    57    60    53   ar
    58    61    60    1
    59    62    54   ar
    60    63    55   ar
    61    64    70   ar
    62    65    62   ar
    63    66    71   ar
    64    67    71   ar
    65    68    51   ar
    66    69    68    1
    67    70    73   ar
    68    71    80    1
    69    72    58   ar
    70    73    74   ar
    71    74    57   ar
    72    75    68   ar
    73    76    75    1
    74    77    66   ar
    75    78    60   ar
    76    79    78    1
    77    80    35    1
    78    63    65   ar
    79    64    80    1
    80    65    80    1
    81    72    77   ar
    82    75    78   ar
@<TRIPOS>SUBSTRUCTURE
     1 RES1        1 GROUP             0 ****  ****    0  
     2 RES2       35 GROUP             0 ****  ****    0  
@<TRIPOS>CRYSIN
   12.5412   13.0207   21.9702   90.0000   90.1400   90.0000    14     1
