@<TRIPOS>MOLECULE
XABSOJ
    89    94     3     0     0
SMALL
USER_CHARGES
****
Generated from the CSD

@<TRIPOS>ATOM
     1 Fe1      6.3337   0.0000  13.8209   Fe        1 RES1   2.0000
     2 N1       4.3409   0.9920  13.6021   N.ar      1 RES1   0.0000
     3 C1       3.5935   1.2839  14.6770   C.ar      1 RES1   0.0000
     4 H1       3.9974   1.2558  15.5140   H         1 RES1   0.0000
     5 C2       2.2610   1.6220  14.6084   C.ar      1 RES1   0.0000
     6 H2       1.7929   1.8236  15.3868   H         1 RES1   0.0000
     7 C3       1.6127   1.6617  13.3789   C.ar      1 RES1   0.0000
     8 C4       2.3993   1.3951  12.2650   C.ar      1 RES1   0.0000
     9 H3       2.0255   1.4312  11.4147   H         1 RES1   0.0000
    10 C5       3.7321   1.0773  12.4173   C.ar      1 RES1   0.0000
    11 H4       4.2353   0.9140  11.6524   H         1 RES1   0.0000
    12 N2      -2.6351   2.1872  12.9918   N.ar      1 RES1   0.0000
    13 C6      -2.0687   1.9306  14.1519   C.ar      1 RES1   0.0000
    14 H5      -2.6173   1.8458  14.8989   H         1 RES1   0.0000
    15 C7      -0.7045   1.7796  14.3245   C.ar      1 RES1   0.0000
    16 H6      -0.3633   1.5962  15.1698   H         1 RES1   0.0000
    17 C8       0.1518   1.8980  13.2529   C.ar      1 RES1   0.0000
    18 C9      -0.4333   2.2352  12.0391   C.ar      1 RES1   0.0000
    19 H7       0.0934   2.3720  11.2848   H         1 RES1   0.0000
    20 C10     -1.8024   2.3660  11.9661   C.ar      1 RES1   0.0000
    21 H8      -2.1730   2.5964  11.1438   H         1 RES1   0.0000
    22 O1       7.2950   1.3542  12.4790   O.3       1 RES1   0.0000
    23 H9       6.8725   2.0391  12.1624   H         1 RES1   0.0000
    24 H10      8.0817   1.6199  12.7152   H         1 RES1   0.0000
    25 O2       6.7333   1.2812  15.4100   O.3       1 RES1   0.0000
    26 H11      6.9433   1.1444  16.2271   H         1 RES1   0.0000
    27 H12      6.7338   2.1253  15.2445   H         1 RES1   0.0000
    28 N1B      8.3265  -0.9920  14.0397   N.ar      1 RES1   0.0000
    29 C1B      9.0738  -1.2839  12.9648   C.ar      1 RES1   0.0000
    30 H1B      8.6700  -1.2558  12.1279   H         1 RES1   0.0000
    31 C2B     10.4064  -1.6220  13.0334   C.ar      1 RES1   0.0000
    32 H2B     10.8745  -1.8236  12.2550   H         1 RES1   0.0000
    33 C3B     11.0547  -1.6617  14.2629   C.ar      1 RES1   0.0000
    34 C4B     10.2681  -1.3951  15.3769   C.ar      1 RES1   0.0000
    35 H3B     10.6419  -1.4312  16.2271   H         1 RES1   0.0000
    36 C5B      8.9353  -1.0773  15.2246   C.ar      1 RES1   0.0000
    37 H4B      8.4321  -0.9140  15.9894   H         1 RES1   0.0000
    38 C8B     12.5156  -1.8980  14.3890   C.ar      1 RES1   0.0000
    39 C7B     13.3718  -1.7796  13.3173   C.ar      1 RES1   0.0000
    40 C6B     14.7360  -1.9306  13.4899   C.ar      1 RES1   0.0000
    41 N2B     15.3025  -2.1872  14.6500   N.ar      1 RES1   0.0000
    42 C10B    14.4698  -2.3660  15.6757   C.ar      1 RES1   0.0000
    43 C9B     13.1007  -2.2352  15.6027   C.ar      1 RES1   0.0000
    44 H7B     12.5740  -2.3720  16.3571   H         1 RES1   0.0000
    45 H8B     14.8403  -2.5964  16.4980   H         1 RES1   0.0000
    46 H5B     15.2846  -1.8458  12.7429   H         1 RES1   0.0000
    47 H6B     13.0306  -1.5962  12.4720   H         1 RES1   0.0000
    48 O1B      5.3723  -1.3542  15.1628   O.3       1 RES1   0.0000
    49 H9B      5.7949  -2.0391  15.4794   H         1 RES1   0.0000
    50 H10B     4.5857  -1.6199  14.9266   H         1 RES1   0.0000
    51 O2B      5.9340  -1.2812  12.2318   O.3       1 RES1   0.0000
    52 H11B     5.7240  -1.1444  11.4147   H         1 RES1   0.0000
    53 H12B     5.9335  -2.1253  12.3974   H         1 RES1   0.0000
    54 N3       3.2960   3.6036  18.4495   N.ar      2 RES2   0.0000
    55 C11      2.1549   2.9694  18.4689   C.ar      2 RES2   0.0000
    56 H13      1.3729   3.4673  18.3887   H         2 RES2   0.0000
    57 C12      2.0486   1.6095  18.6029   C.ar      2 RES2   0.0000
    58 H14      1.2069   1.2127  18.6099   H         2 RES2   0.0000
    59 C13      3.1668   0.8251  18.7257   C.ar      2 RES2   0.0000
    60 C14      4.3601   1.4906  18.6527   C.ar      2 RES2   0.0000
    61 H15      5.1609   1.0210  18.6969   H         2 RES2   0.0000
    62 C15      4.3649   2.8520  18.5145   C.ar      2 RES2   0.0000
    63 H16      5.1914   3.2756  18.4606   H         2 RES2   0.0000
    64 N4       2.9535  -3.4090  19.3064   N.ar      2 RES2   0.0000
    65 C16      1.8723  -2.6424  19.3272   C.ar      2 RES2   0.0000
    66 H17      1.0504  -3.0497  19.4820   H         2 RES2   0.0000
    67 C17      1.8933  -1.2856  19.1364   C.ar      2 RES2   0.0000
    68 H18      1.1014  -0.7996  19.1558   H         2 RES2   0.0000
    69 C18      3.0913  -0.6426  18.9143   C.ar      2 RES2   0.0000
    70 C19      4.2193  -1.4371  18.8517   C.ar      2 RES2   0.0000
    71 H19      5.0512  -1.0611  18.6748   H         2 RES2   0.0000
    72 C20      4.0936  -2.7866  19.0535   C.ar      2 RES2   0.0000
    73 H20      4.8659  -3.3023  19.0107   H         2 RES2   0.0000
    74 S1       1.4319   5.7333  11.1274   S.o2      3 RES3   0.0000
    75 O3       2.3002   6.8760  10.9737   O.2       3 RES3   0.0000
    76 O4       1.9988   4.4951  10.6849   O.2       3 RES3   0.0000
    77 N5       0.0103   6.0292  10.4626   N.am      3 RES3  -1.0000
    78 C21     -0.9453   6.1175  11.3839   C.2       3 RES3   0.0000
    79 O5      -2.1237   6.4025  11.1336   O.2       3 RES3   0.0000
    80 C22     -0.4679   5.8334  12.7845   C.ar      3 RES3   0.0000
    81 C23     -1.1911   5.7575  13.9522   C.ar      3 RES3   0.0000
    82 H21     -2.1072   5.9195  13.9591   H         3 RES3   0.0000
    83 C24     -0.5179   5.4365  15.1104   C.ar      3 RES3   0.0000
    84 H22     -0.9916   5.3696  15.9065   H         3 RES3   0.0000
    85 C25      0.8365   5.2136  15.1159   C.ar      3 RES3   0.0000
    86 H23      1.2631   5.0099  15.9175   H         3 RES3   0.0000
    87 C26      1.5768   5.2849  13.9494   C.ar      3 RES3   0.0000
    88 H24      2.4948   5.1318  13.9439   H         3 RES3   0.0000
    89 C27      0.8868   5.5951  12.7947   C.ar      3 RES3   0.0000
@<TRIPOS>BOND
     1     1     2    1
     2     2     3   ar
     3     3     4    1
     4     5     3   ar
     5     6     5    1
     6     7     5   ar
     7     8     7   ar
     8     9     8    1
     9    10     2   ar
    10    11    10    1
    11    12    13   ar
    12    13    14    1
    13    15    13   ar
    14    16    15    1
    15    17     7    1
    16    18    17   ar
    17    19    18    1
    18    20    12   ar
    19    21    20    1
    20    22     1    1
    21    23    22    1
    22    24    22    1
    23    25     1    1
    24    26    25    1
    25    27    25    1
    26    28     1    1
    27    29    28   ar
    28    30    29    1
    29    31    29   ar
    30    32    31    1
    31    33    31   ar
    32    34    33   ar
    33    35    34    1
    34    36    28   ar
    35    37    36    1
    36    38    33    1
    37    39    38   ar
    38    40    39   ar
    39    41    40   ar
    40    42    41   ar
    41    43    38   ar
    42    44    43    1
    43    45    42    1
    44    46    40    1
    45    47    39    1
    46    48     1    1
    47    49    48    1
    48    50    48    1
    49    51     1    1
    50    52    51    1
    51    53    51    1
    52     8    10   ar
    53    15    17   ar
    54    18    20   ar
    55    34    36   ar
    56    42    43   ar
    57    54    55   ar
    58    55    56    1
    59    57    55   ar
    60    58    57    1
    61    59    57   ar
    62    60    59   ar
    63    61    60    1
    64    62    54   ar
    65    63    62    1
    66    64    65   ar
    67    65    66    1
    68    67    65   ar
    69    68    67    1
    70    69    59    1
    71    70    69   ar
    72    71    70    1
    73    72    64   ar
    74    73    72    1
    75    60    62   ar
    76    67    69   ar
    77    70    72   ar
    78    74    75    2
    79    76    74    2
    80    77    74    1
    81    78    77   am
    82    79    78    2
    83    80    78    1
    84    81    80   ar
    85    82    81    1
    86    83    81   ar
    87    84    83    1
    88    85    83   ar
    89    86    85    1
    90    87    85   ar
    91    88    87    1
    92    89    74    1
    93    80    89   ar
    94    87    89   ar
@<TRIPOS>SUBSTRUCTURE
     1 RES1        1 GROUP             0 ****  ****    0  
     2 RES2       54 GROUP             0 ****  ****    0  
     3 RES3       74 GROUP             0 ****  ****    0  
@<TRIPOS>CRYSIN
   12.6101   14.8619   15.1793   90.0000  114.4240   90.0000    14     1
