@<TRIPOS>MOLECULE
XADDUE
    76    84     2     0     0
SMALL
USER_CHARGES
****
Generated from the CSD

@<TRIPOS>ATOM
     1 Fe1      3.3248   8.5829  10.7693   Fe        1 RES1   1.0000
     2 O1       3.2891  10.3352  10.0257   O.3       1 RES1   0.0000
     3 O2       4.2266   7.7505   9.2723   O.3       1 RES1   0.0000
     4 O3       2.2950  14.3109   7.7715   O.3       1 RES1   0.0000
     5 N1       5.1899   8.6775  11.7179   N.2       1 RES1   0.0000
     6 N2       1.2868   8.4072  10.2246   N.2       1 RES1   0.0000
     7 O4       7.0596   4.5306   7.0941   O.3       1 RES1   0.0000
     8 N3       2.7957   6.6201  11.4907   N.ar      1 RES1   0.0000
     9 N4       2.8396   9.3048  12.7704   N.ar      1 RES1   0.0000
    10 C1       2.3894  11.0740   9.3935   C.ar      1 RES1   0.0000
    11 C2       6.2751   8.0566  11.3222   C.2       1 RES1   0.0000
    12 C3       6.3956   7.2527  10.1624   C.ar      1 RES1   0.0000
    13 C4       3.9325   9.7285  13.4590   C.ar      1 RES1   0.0000
    14 C5       0.6566   7.1822  10.5776   C.ar      1 RES1   0.0000
    15 C6       1.5180   6.2293  11.2168   C.ar      1 RES1   0.0000
    16 C7       0.5975   9.3128   9.6062   C.2       1 RES1   0.0000
    17 C8       1.8225  13.1091   8.2153   C.ar      1 RES1   0.0000
    18 C9       5.3592   7.0484   9.2101   C.ar      1 RES1   0.0000
    19 C10      1.6310   9.5367  13.2699   C.ar      1 RES1   0.0000
    20 C11      5.5567   6.1303   8.1783   C.ar      1 RES1   0.0000
    21 C12      2.7371  12.3195   8.8922   C.ar      1 RES1   0.0000
    22 C13      6.7600   5.4585   8.0547   C.ar      1 RES1   0.0000
    23 C14      1.0767  10.5949   9.1740   C.ar      1 RES1   0.0000
    24 C15      0.5186  12.6683   8.0246   C.ar      1 RES1   0.0000
    25 C16      5.2220   9.4279  12.9363   C.ar      1 RES1   0.0000
    26 C17      6.0256   4.1916   6.1823   C.3       1 RES1   0.0000
    27 C18      0.1606  11.4434   8.4918   C.ar      1 RES1   0.0000
    28 C19      1.0293   4.9472  11.5704   C.ar      1 RES1   0.0000
    29 C20      4.9838  10.8848  15.3102   C.ar      1 RES1   0.0000
    30 C21      7.8227   5.6994   8.9334   C.ar      1 RES1   0.0000
    31 C22      7.6225   6.5719   9.9611   C.ar      1 RES1   0.0000
    32 C23      6.3258   9.8686  13.5860   C.ar      1 RES1   0.0000
    33 C24      1.3853  15.1808   7.1025   C.3       1 RES1   0.0000
    34 C25      3.5819   5.7770  12.1249   C.ar      1 RES1   0.0000
    35 C26      3.8187  10.4575  14.6776   C.ar      1 RES1   0.0000
    36 C27      1.4244  10.2094  14.4799   C.ar      1 RES1   0.0000
    37 C28     -0.6488   6.8405  10.3551   C.ar      1 RES1   0.0000
    38 C29      1.9286   4.0738  12.2104   C.ar      1 RES1   0.0000
    39 C30      3.1792   4.4797  12.5065   C.ar      1 RES1   0.0000
    40 C31      6.2085  10.6074  14.7734   C.ar      1 RES1   0.0000
    41 C32     -1.1471   5.5673  10.7244   C.ar      1 RES1   0.0000
    42 C33      2.5023  10.6957  15.1642   C.ar      1 RES1   0.0000
    43 C34     -0.3258   4.6305  11.2971   C.ar      1 RES1   0.0000
    44 H1      -0.7124  11.1507   8.3619   H         1 RES1   0.0000
    45 H2      -0.0982  13.2028   7.5812   H         1 RES1   0.0000
    46 H3       3.6048  12.6309   9.0133   H         1 RES1   0.0000
    47 H4       4.8740   5.9670   7.5681   H         1 RES1   0.0000
    48 H5       8.6418   5.2747   8.8194   H         1 RES1   0.0000
    49 H6       8.3206   6.7281  10.5552   H         1 RES1   0.0000
    50 H7       7.1691   9.6795  13.2420   H         1 RES1   0.0000
    51 H8       6.9775  10.9125  15.2007   H         1 RES1   0.0000
    52 H9       4.9282  11.3640  16.1052   H         1 RES1   0.0000
    53 H10     -1.2211   7.4543   9.9537   H         1 RES1   0.0000
    54 H11     -2.0429   5.3648  10.5792   H         1 RES1   0.0000
    55 H12     -0.6580   3.7874  11.5058   H         1 RES1   0.0000
    56 H13      4.4467   6.0500  12.3318   H         1 RES1   0.0000
    57 H14      3.7662   3.9150  12.9548   H         1 RES1   0.0000
    58 H15      1.6581   3.2119  12.4301   H         1 RES1   0.0000
    59 H16      0.8893   9.2378  12.7949   H         1 RES1   0.0000
    60 H17      0.5647  10.3245  14.8134   H         1 RES1   0.0000
    61 H18      2.3757  11.1819  15.9469   H         1 RES1   0.0000
    62 H19      7.0341   8.1529  11.8508   H         1 RES1   0.0000
    63 H20     -0.2929   9.1129   9.4249   H         1 RES1   0.0000
    64 H21      6.3566   3.5510   5.5447   H         1 RES1   0.0000
    65 H22      5.2881   3.8097   6.6630   H         1 RES1   0.0000
    66 H23      5.7319   4.9812   5.7232   H         1 RES1   0.0000
    67 H24      1.0169  14.7320   6.3393   H         1 RES1   0.0000
    68 H25      0.6782  15.4261   7.7029   H         1 RES1   0.0000
    69 H26      1.8493  15.9704   6.8160   H         1 RES1   0.0000
    70 P1       4.4271   5.9961  16.4283   P.3       2 RES2  -1.0000
    71 F1       3.7117   4.7938  15.6657   F         2 RES2   0.0000
    72 F2       5.0967   7.1983  17.2230   F         2 RES2   0.0000
    73 F3       3.4330   7.0279  15.7250   F         2 RES2   0.0000
    74 F4       5.4331   4.9883  17.1213   F         2 RES2   0.0000
    75 F5       3.3819   5.8466  17.6189   F         2 RES2   0.0000
    76 F6       5.4410   6.1776  15.2390   F         2 RES2   0.0000
@<TRIPOS>BOND
     1     1     2    1
     2     2    10    1
     3     3     1    1
     4     4    17    1
     5     5     1    1
     6     6     1    1
     7     7    22    1
     8     8     1    1
     9     9     1    1
    10    10    21   ar
    11    11     5    2
    12    12    11    1
    13    13     9   ar
    14    14     6    1
    15    15     8   ar
    16    16     6    2
    17    17    21   ar
    18    18     3    1
    19    19     9   ar
    20    20    18   ar
    21    21    46    1
    22    22    20   ar
    23    23    10   ar
    24    24    17   ar
    25    25     5    1
    26    26     7    1
    27    27    23   ar
    28    28    15   ar
    29    29    35   ar
    30    30    22   ar
    31    31    12   ar
    32    32    25   ar
    33    33     4    1
    34    34     8   ar
    35    35    13   ar
    36    36    19   ar
    37    37    14   ar
    38    38    28   ar
    39    39    34   ar
    40    40    29   ar
    41    41    37   ar
    42    42    35   ar
    43    43    28   ar
    44    44    27    1
    45    45    24    1
    46    47    20    1
    47    48    30    1
    48    49    31    1
    49    50    32    1
    50    51    40    1
    51    52    29    1
    52    53    37    1
    53    54    41    1
    54    55    43    1
    55    56    34    1
    56    57    39    1
    57    58    38    1
    58    59    19    1
    59    60    36    1
    60    61    42    1
    61    62    11    1
    62    63    16    1
    63    64    26    1
    64    65    26    1
    65    66    26    1
    66    67    33    1
    67    68    33    1
    68    69    33    1
    69    12    18   ar
    70    13    25   ar
    71    14    15   ar
    72    16    23    1
    73    24    27   ar
    74    30    31   ar
    75    32    40   ar
    76    36    42   ar
    77    38    39   ar
    78    41    43   ar
    79    70    71    1
    80    72    70    1
    81    73    70    1
    82    74    70    1
    83    75    70    1
    84    76    70    1
@<TRIPOS>SUBSTRUCTURE
     1 RES1        1 GROUP             0 ****  ****    0  
     2 RES2       70 GROUP             0 ****  ****    0  
@<TRIPOS>CRYSIN
   18.9940    8.9220   20.2430   90.0000  104.2500   90.0000   231     1
