@<TRIPOS>MOLECULE
XADFIU01
    81    88     3     0     0
SMALL
USER_CHARGES
****
Generated from the CSD

@<TRIPOS>ATOM
     1 Fe1      7.9714   5.0561   4.6444   Fe        1 RES1   1.0000
     2 O1       7.6625   6.7119   5.4381   O.3       1 RES1   0.0000
     3 O2       4.8702   1.8085   9.9550   O.3       1 RES1   0.0000
     4 O3       8.2808   4.1614   6.2861   O.3       1 RES1   0.0000
     5 O4      11.0431  10.9783   6.7058   O.3       1 RES1   0.0000
     6 N1       8.4988   3.3977   3.6118   N.ar      1 RES1   0.0000
     7 N2       9.9161   5.3904   4.4399   N.2       1 RES1   0.0000
     8 N3       6.0289   4.6919   4.6944   N.2       1 RES1   0.0000
     9 N4       7.4268   5.8110   2.8246   N.ar      1 RES1   0.0000
    10 C1       8.5415   7.6645   5.7088   C.ar      1 RES1   0.0000
    11 C2      10.3090   9.8751   6.3631   C.ar      1 RES1   0.0000
    12 C3       9.8069   3.2748   3.3734   C.ar      1 RES1   0.0000
    13 C4       9.9277   7.6265   5.4493   C.ar      1 RES1   0.0000
    14 C5      10.5539   6.5031   4.8496   C.2       1 RES1   0.0000
    15 H1      11.4767   6.5380   4.7317   H         1 RES1   0.0000
    16 C6      10.6449   4.3709   3.8017   C.ar      1 RES1   0.0000
    17 C7       7.7289   2.3402   3.2567   C.ar      1 RES1   0.0000
    18 H2       6.8170   2.3832   3.4342   H         1 RES1   0.0000
    19 C8      10.8041   8.7103   5.7572   C.ar      1 RES1   0.0000
    20 H3      11.7104   8.6448   5.5561   H         1 RES1   0.0000
    21 C9       5.2388   5.1257   3.5820   C.ar      1 RES1   0.0000
    22 C10     12.5787   3.2156   2.9997   C.ar      1 RES1   0.0000
    23 H4      13.5037   3.1969   2.9078   H         1 RES1   0.0000
    24 C11     10.4693   2.1893   2.7538   C.ar      1 RES1   0.0000
    25 C12      8.0912   8.8776   6.3407   C.ar      1 RES1   0.0000
    26 H5       7.1938   8.9613   6.5717   H         1 RES1   0.0000
    27 C13      7.3981   3.5854   7.1229   C.ar      1 RES1   0.0000
    28 C14     11.8050   2.1430   2.5663   C.ar      1 RES1   0.0000
    29 H6      12.2001   1.4085   2.1541   H         1 RES1   0.0000
    30 C15      8.9750   9.9445   6.6213   C.ar      1 RES1   0.0000
    31 H7       8.6317  10.7234   6.9963   H         1 RES1   0.0000
    32 C16      8.2284   1.1686   2.6284   C.ar      1 RES1   0.0000
    33 H8       7.6741   0.4571   2.4111   H         1 RES1   0.0000
    34 C17      6.0833   5.7351   2.5937   C.ar      1 RES1   0.0000
    35 C18      5.4587   6.2301   1.4365   C.ar      1 RES1   0.0000
    36 C19      6.0309   3.6212   6.8548   C.ar      1 RES1   0.0000
    37 C20      5.6498   2.4636   8.9369   C.ar      1 RES1   0.0000
    38 C21     11.9424   4.3219   3.5757   C.ar      1 RES1   0.0000
    39 H9      12.4612   5.0582   3.8092   H         1 RES1   0.0000
    40 C22      5.1347   2.9956   7.7884   C.ar      1 RES1   0.0000
    41 H10      4.2215   2.9527   7.6146   H         1 RES1   0.0000
    42 C23      8.1526   6.3826   1.8636   C.ar      1 RES1   0.0000
    43 H11      9.0688   6.4365   2.0163   H         1 RES1   0.0000
    44 C24      9.5470   1.1327   2.3602   C.ar      1 RES1   0.0000
    45 H12      9.8846   0.3968   1.9021   H         1 RES1   0.0000
    46 C25      6.3324   6.8176   0.4991   C.ar      1 RES1   0.0000
    47 H13      5.9663   7.1691  -0.2806   H         1 RES1   0.0000
    48 C26      5.3757   4.1251   5.6964   C.2       1 RES1   0.0000
    49 H14      4.4499   4.0541   5.6417   H         1 RES1   0.0000
    50 C27      6.9962   2.4627   9.2311   C.ar      1 RES1   0.0000
    51 H15      7.3173   2.0911  10.0208   H         1 RES1   0.0000
    52 C28      7.8525   3.0391   8.3049   C.ar      1 RES1   0.0000
    53 H16      8.7647   3.0586   8.4874   H         1 RES1   0.0000
    54 C29      4.0983   6.1546   1.2428   C.ar      1 RES1   0.0000
    55 H17      3.6908   6.4872   0.4743   H         1 RES1   0.0000
    56 C30      7.7066   6.8997   0.6742   C.ar      1 RES1   0.0000
    57 H18      8.2752   7.2737   0.0397   H         1 RES1   0.0000
    58 C31      3.9011   5.0123   3.4094   C.ar      1 RES1   0.0000
    59 H19      3.3619   4.5855   4.0351   H         1 RES1   0.0000
    60 C32      3.3709   5.5676   2.2410   C.ar      1 RES1   0.0000
    61 H20      2.4476   5.5342   2.1343   H         1 RES1   0.0000
    62 C33      3.4887   1.6592   9.6421   C.3       1 RES1   0.0000
    63 H21      3.3927   1.0741   8.8885   H         1 RES1   0.0000
    64 H22      3.1136   2.5171   9.4323   H         1 RES1   0.0000
    65 H23      3.0277   1.2851  10.3982   H         1 RES1   0.0000
    66 C34     12.4335  10.9537   6.3047   C.3       1 RES1   0.0000
    67 H24     12.4910  10.8057   5.3587   H         1 RES1   0.0000
    68 H25     12.8878  10.2468   6.7691   H         1 RES1   0.0000
    69 H26     12.8443  11.7939   6.5233   H         1 RES1   0.0000
    70 P1       6.7110   2.8223  -0.9933   P.3       2 RES2  -1.0000
    71 F1       6.7253   1.5223  -0.1266   F         2 RES2   0.0000
    72 F2       8.1791   2.3328  -1.3049   F         2 RES2   0.0000
    73 F3       5.2617   3.2575  -0.7611   F         2 RES2   0.0000
    74 F4       6.8514   3.8937  -2.0200   F         2 RES2   0.0000
    75 F5       7.2511   3.7055   0.0608   F         2 RES2   0.0000
    76 F6       6.1474   1.8588  -2.0225   F         2 RES2   0.0000
    77 Cl1      2.5549   1.3317   0.7549   Cl        3 RES3   0.0000
    78 Cl2      3.9013   1.1131   3.3498   Cl        3 RES3   0.0000
    79 C35      4.0050   0.9544   1.6612   C.3       3 RES3   0.0000
    80 H27      4.2629   0.0426   1.4576   H         3 RES3   0.0000
    81 H28      4.7184   1.5326   1.3459   H         3 RES3   0.0000
@<TRIPOS>BOND
     1     1     2    1
     2     2    10    1
     3     3    37    1
     4     4     1    1
     5     5    11    1
     6     6     1    1
     7     7     1    1
     8     8     1    1
     9     9     1    1
    10    10    13   ar
    11    11    19   ar
    12    12     6   ar
    13    13    14    1
    14    14     7    2
    15    15    14    1
    16    16     7    1
    17    17     6   ar
    18    18    17    1
    19    19    13   ar
    20    20    19    1
    21    21     8    1
    22    22    23    1
    23    24    12   ar
    24    25    10   ar
    25    26    25    1
    26    27     4    1
    27    28    22   ar
    28    29    28    1
    29    30    11   ar
    30    31    30    1
    31    32    17   ar
    32    33    32    1
    33    34     9   ar
    34    35    34   ar
    35    36    27   ar
    36    37    40   ar
    37    38    16   ar
    38    39    38    1
    39    40    36   ar
    40    41    40    1
    41    42     9   ar
    42    43    42    1
    43    44    24   ar
    44    45    44    1
    45    46    35   ar
    46    47    46    1
    47    48     8    2
    48    49    48    1
    49    50    37   ar
    50    51    50    1
    51    52    27   ar
    52    53    52    1
    53    54    35   ar
    54    55    54    1
    55    56    42   ar
    56    57    56    1
    57    58    21   ar
    58    59    58    1
    59    60    54   ar
    60    61    60    1
    61    62     3    1
    62    63    62    1
    63    64    62    1
    64    65    62    1
    65    66     5    1
    66    67    66    1
    67    68    66    1
    68    69    66    1
    69    12    16   ar
    70    21    34   ar
    71    22    38   ar
    72    24    28   ar
    73    25    30   ar
    74    32    44   ar
    75    36    48    1
    76    46    56   ar
    77    50    52   ar
    78    58    60   ar
    79    70    71    1
    80    72    70    1
    81    73    70    1
    82    74    70    1
    83    75    70    1
    84    76    70    1
    85    77    79    1
    86    78    79    1
    87    79    80    1
    88    81    79    1
@<TRIPOS>SUBSTRUCTURE
     1 RES1        1 GROUP             0 ****  ****    0  
     2 RES2       70 GROUP             0 ****  ****    0  
     3 RES3       77 GROUP             0 ****  ****    0  
@<TRIPOS>CRYSIN
   12.4650   12.6584   13.0200   81.5040   72.4830   62.1600     2     1
