@<TRIPOS>MOLECULE
XADFIU
    81    88     3     0     0
SMALL
USER_CHARGES
****
Generated from the CSD

@<TRIPOS>ATOM
     1 Fe1      7.8543   4.9215   4.5465   Fe        1 RES1   1.0000
     2 O1       7.4720   6.5906   5.3371   O.3       1 RES1   0.0000
     3 O2       4.9015   1.8019   9.9522   O.3       1 RES1   0.0000
     4 O3       8.2710   4.1154   6.1940   O.3       1 RES1   0.0000
     5 O4      10.7451  10.7924   6.6987   O.3       1 RES1   0.0000
     6 N1       8.3233   3.2364   3.6207   N.ar      1 RES1   0.0000
     7 N2       9.7484   5.2881   4.3684   N.2       1 RES1   0.0000
     8 N3       5.9558   4.5544   4.6593   N.2       1 RES1   0.0000
     9 N4       7.3541   5.6287   2.7686   N.ar      1 RES1   0.0000
    10 C1       8.3393   7.5513   5.6477   C.ar      1 RES1   0.0000
    11 C2      10.0166   9.6505   6.3586   C.ar      1 RES1   0.0000
    12 C3       9.6862   3.1616   3.3677   C.ar      1 RES1   0.0000
    13 C4       9.7150   7.4598   5.4230   C.ar      1 RES1   0.0000
    14 C5      10.3628   6.3503   4.8067   C.2       1 RES1   0.0000
    15 H1      11.3082   6.3880   4.7097   H         1 RES1   0.0000
    16 C6      10.5063   4.2626   3.7606   C.ar      1 RES1   0.0000
    17 C7       7.5249   2.2095   3.2450   C.ar      1 RES1   0.0000
    18 H2       6.5912   2.2679   3.4033   H         1 RES1   0.0000
    19 C8      10.5676   8.5487   5.7533   C.ar      1 RES1   0.0000
    20 H3      11.4979   8.5147   5.5605   H         1 RES1   0.0000
    21 C9       5.2069   4.9574   3.5359   C.ar      1 RES1   0.0000
    22 C10     12.3896   3.0340   2.8987   C.ar      1 RES1   0.0000
    23 H4      13.3244   2.9911   2.7305   H         1 RES1   0.0000
    24 C11     10.2451   2.0477   2.7379   C.ar      1 RES1   0.0000
    25 C12      7.8361   8.7127   6.2788   C.ar      1 RES1   0.0000
    26 H5       6.9076   8.7810   6.4678   H         1 RES1   0.0000
    27 C13      7.4006   3.5789   7.0166   C.ar      1 RES1   0.0000
    28 C14     11.6252   1.9816   2.5169   C.ar      1 RES1   0.0000
    29 H6      12.0159   1.2180   2.1081   H         1 RES1   0.0000
    30 C15      8.6648   9.7253   6.6152   C.ar      1 RES1   0.0000
    31 H7       8.3100  10.5000   7.0338   H         1 RES1   0.0000
    32 C16      8.0377   1.0790   2.6397   C.ar      1 RES1   0.0000
    33 H8       7.4604   0.3638   2.4015   H         1 RES1   0.0000
    34 C17      6.0003   5.5616   2.5108   C.ar      1 RES1   0.0000
    35 C18      5.4432   6.0809   1.3505   C.ar      1 RES1   0.0000
    36 C19      6.0132   3.5516   6.8006   C.ar      1 RES1   0.0000
    37 C20      5.6313   2.4138   8.9577   C.ar      1 RES1   0.0000
    38 C21     11.8781   4.1988   3.5372   C.ar      1 RES1   0.0000
    39 H9      12.4523   4.9084   3.8011   H         1 RES1   0.0000
    40 C22      5.1489   2.9817   7.7987   C.ar      1 RES1   0.0000
    41 H10      4.2100   2.9963   7.6526   H         1 RES1   0.0000
    42 C23      8.1355   6.1797   1.8527   C.ar      1 RES1   0.0000
    43 H11      9.0699   6.2171   2.0233   H         1 RES1   0.0000
    44 C24      9.3625   0.9931   2.3855   C.ar      1 RES1   0.0000
    45 H12      9.7074   0.2151   1.9644   H         1 RES1   0.0000
    46 C25      6.3241   6.6828   0.3757   C.ar      1 RES1   0.0000
    47 H13      5.9784   7.0478  -0.4309   H         1 RES1   0.0000
    48 C26      5.3027   4.0342   5.6956   C.2       1 RES1   0.0000
    49 H14      4.3542   3.9911   5.6845   H         1 RES1   0.0000
    50 C27      7.0243   2.4721   9.1873   C.ar      1 RES1   0.0000
    51 H15      7.3830   2.1170   9.9915   H         1 RES1   0.0000
    52 C28      7.8815   3.0485   8.2407   C.ar      1 RES1   0.0000
    53 H16      8.8123   3.0848   8.4249   H         1 RES1   0.0000
    54 C29      4.0572   6.0380   1.1713   C.ar      1 RES1   0.0000
    55 H17      3.6526   6.4262   0.4039   H         1 RES1   0.0000
    56 C30      7.6561   6.7156   0.6360   C.ar      1 RES1   0.0000
    57 H18      8.2585   7.0947   0.0074   H         1 RES1   0.0000
    58 C31      3.8574   4.8671   3.2904   C.ar      1 RES1   0.0000
    59 H19      3.2998   4.4216   3.9166   H         1 RES1   0.0000
    60 C32      3.2875   5.4173   2.1400   C.ar      1 RES1   0.0000
    61 H20      2.3478   5.3644   2.0197   H         1 RES1   0.0000
    62 C33      3.5248   1.6331   9.6833   C.3       1 RES1   0.0000
    63 H21      3.4140   1.1100   8.8620   H         1 RES1   0.0000
    64 H22      3.1037   2.5114   9.5704   H         1 RES1   0.0000
    65 H23      3.1020   1.1609  10.4310   H         1 RES1   0.0000
    66 C34     12.1190  10.8372   6.3230   C.3       1 RES1   0.0000
    67 H24     12.1937  10.7745   5.3481   H         1 RES1   0.0000
    68 H25     12.5955  10.0879   6.7367   H         1 RES1   0.0000
    69 H26     12.5134  11.6828   6.6274   H         1 RES1   0.0000
    70 P1       6.6783   2.6768  -1.0203   P.3       2 RES2  -1.0000
    71 F1       6.6555   1.3991  -0.0638   F         2 RES2   0.0000
    72 F2       8.1693   2.2914  -1.4647   F         2 RES2   0.0000
    73 F3       5.1937   3.0555  -0.5758   F         2 RES2   0.0000
    74 F4       6.6916   3.9401  -2.0062   F         2 RES2   0.0000
    75 F5       7.2777   3.5654   0.1596   F         2 RES2   0.0000
    76 F6       6.0899   1.7694  -2.2124   F         2 RES2   0.0000
    77 Cl1      2.5368   1.3438   0.7710   Cl        3 RES3   0.0000
    78 Cl2      3.8552   1.0193   3.3751   Cl        3 RES3   0.0000
    79 C35      4.0484   1.0804   1.6243   C.3       3 RES3   0.0000
    80 H27      4.6779   1.8096   1.3960   H         3 RES3   0.0000
    81 H28      4.4480   0.2282   1.3162   H         3 RES3   0.0000
@<TRIPOS>BOND
     1     1     2    1
     2     2    10    1
     3     3    37    1
     4     4     1    1
     5     5    11    1
     6     6     1    1
     7     7     1    1
     8     8     1    1
     9     9     1    1
    10    10    13   ar
    11    11    19   ar
    12    12     6   ar
    13    13    14    1
    14    14     7    2
    15    15    14    1
    16    16     7    1
    17    17     6   ar
    18    18    17    1
    19    19    13   ar
    20    20    19    1
    21    21     8    1
    22    22    23    1
    23    24    12   ar
    24    25    10   ar
    25    26    25    1
    26    27     4    1
    27    28    22   ar
    28    29    28    1
    29    30    11   ar
    30    31    30    1
    31    32    17   ar
    32    33    32    1
    33    34     9   ar
    34    35    34   ar
    35    36    27   ar
    36    37    40   ar
    37    38    16   ar
    38    39    38    1
    39    40    36   ar
    40    41    40    1
    41    42     9   ar
    42    43    42    1
    43    44    24   ar
    44    45    44    1
    45    46    35   ar
    46    47    46    1
    47    48     8    2
    48    49    48    1
    49    50    37   ar
    50    51    50    1
    51    52    27   ar
    52    53    52    1
    53    54    35   ar
    54    55    54    1
    55    56    42   ar
    56    57    56    1
    57    58    21   ar
    58    59    58    1
    59    60    54   ar
    60    61    60    1
    61    62     3    1
    62    63    62    1
    63    64    62    1
    64    65    62    1
    65    66     5    1
    66    67    66    1
    67    68    66    1
    68    69    66    1
    69    12    16   ar
    70    21    34   ar
    71    22    38   ar
    72    24    28   ar
    73    25    30   ar
    74    32    44   ar
    75    36    48    1
    76    46    56   ar
    77    50    52   ar
    78    58    60   ar
    79    70    71    1
    80    72    70    1
    81    73    70    1
    82    74    70    1
    83    75    70    1
    84    76    70    1
    85    77    79    1
    86    78    79    1
    87    79    80    1
    88    81    79    1
@<TRIPOS>SUBSTRUCTURE
     1 RES1        1 GROUP             0 ****  ****    0  
     2 RES2       70 GROUP             0 ****  ****    0  
     3 RES3       77 GROUP             0 ****  ****    0  
@<TRIPOS>CRYSIN
   12.2866   12.4452   12.8972   81.9970   72.1680   62.7060     2     1
