@<TRIPOS>MOLECULE
XADFEQ
    79    86     3     0     0
SMALL
USER_CHARGES
****
Generated from the CSD

@<TRIPOS>ATOM
     1 Fe1      3.3241  -0.5327   3.5703   Fe        1 RES1   1.0000
     2 O1       5.1714  -0.2515   4.0165   O.3       1 RES1   0.0000
     3 O2       9.7053  -0.8442   5.3057   O.3       1 RES1   0.0000
     4 O3       2.6347   0.0953   5.2524   O.3       1 RES1   0.0000
     5 O4      -0.1481   2.3471   8.3902   O.3       1 RES1   0.0000
     6 N1       3.6082  -2.5923   3.9076   N.2       1 RES1   0.0000
     7 N2       1.4078  -1.3902   3.0443   N.ar      1 RES1   0.0000
     8 N3       3.8190  -0.7711   1.4575   N.ar      1 RES1   0.0000
     9 N4       2.9156   1.3482   2.7636   N.2       1 RES1   0.0000
    10 C1       2.4939  -3.4274   3.6448   C.ar      1 RES1   0.0000
    11 C2       2.4372  -4.7903   3.8059   C.ar      1 RES1   0.0000
    12 H1       3.1898  -5.2538   4.1543   H         1 RES1   0.0000
    13 C3       1.2788  -5.5065   3.4612   C.ar      1 RES1   0.0000
    14 H2       1.2621  -6.4481   3.5797   H         1 RES1   0.0000
    15 C4       0.1740  -4.8763   2.9591   C.ar      1 RES1   0.0000
    16 H3      -0.5902  -5.3834   2.7093   H         1 RES1   0.0000
    17 C5       0.1709  -3.4688   2.8120   C.ar      1 RES1   0.0000
    18 C6       1.3417  -2.7470   3.1544   C.ar      1 RES1   0.0000
    19 C7       0.3398  -0.7294   2.6183   C.ar      1 RES1   0.0000
    20 H4       0.3891   0.2172   2.5492   H         1 RES1   0.0000
    21 C8      -0.8578  -1.3666   2.2637   C.ar      1 RES1   0.0000
    22 H5      -1.6037  -0.8592   1.9655   H         1 RES1   0.0000
    23 C9      -0.9377  -2.7296   2.3558   C.ar      1 RES1   0.0000
    24 H6      -1.7392  -3.1758   2.1117   H         1 RES1   0.0000
    25 C10      4.7465  -3.1394   4.2569   C.2       1 RES1   0.0000
    26 H7       4.7524  -4.0822   4.3673   H         1 RES1   0.0000
    27 C11      5.9738  -2.4571   4.4866   C.ar      1 RES1   0.0000
    28 C12      6.1449  -1.0533   4.3730   C.ar      1 RES1   0.0000
    29 C13      7.4094  -0.4938   4.6394   C.ar      1 RES1   0.0000
    30 H8       7.5365   0.4454   4.5677   H         1 RES1   0.0000
    31 C14      8.4689  -1.3064   5.0054   C.ar      1 RES1   0.0000
    32 C15      9.9309   0.5684   5.2171   C.3       1 RES1   0.0000
    33 H9       9.7190   0.8766   4.3120   H         1 RES1   0.0000
    34 H10     10.8705   0.7619   5.4174   H         1 RES1   0.0000
    35 H11      9.3569   1.0312   5.8630   H         1 RES1   0.0000
    36 C16      8.3156  -2.7012   5.0971   C.ar      1 RES1   0.0000
    37 H12      9.0535  -3.2532   5.3264   H         1 RES1   0.0000
    38 C17      7.0934  -3.2469   4.8514   C.ar      1 RES1   0.0000
    39 H13      6.9872  -4.1880   4.9269   H         1 RES1   0.0000
    40 C18      3.8372   0.4078   0.7647   C.ar      1 RES1   0.0000
    41 C19      3.3955   1.5760   1.4479   C.ar      1 RES1   0.0000
    42 C20      2.2031   2.2814   3.3537   C.2       1 RES1   0.0000
    43 H14      2.0322   3.0736   2.8578   H         1 RES1   0.0000
    44 C21      1.6666   2.2118   4.6637   C.ar      1 RES1   0.0000
    45 C22      1.8956   1.1313   5.5728   C.ar      1 RES1   0.0000
    46 C23      1.3138   1.1836   6.8537   C.ar      1 RES1   0.0000
    47 H15      1.4709   0.4812   7.4738   H         1 RES1   0.0000
    48 C24      0.5122   2.2562   7.2126   C.ar      1 RES1   0.0000
    49 C25     -0.1986   1.1706   9.2190   C.3       1 RES1   0.0000
    50 H16     -0.5116   0.4088   8.6874   H         1 RES1   0.0000
    51 H17     -0.8138   1.3226   9.9666   H         1 RES1   0.0000
    52 H18      0.6973   0.9778   9.5671   H         1 RES1   0.0000
    53 C26      0.3196   3.3533   6.3475   C.ar      1 RES1   0.0000
    54 H19     -0.1990   4.1009   6.6229   H         1 RES1   0.0000
    55 C27      0.8912   3.3224   5.1066   C.ar      1 RES1   0.0000
    56 H20      0.7686   4.0614   4.5228   H         1 RES1   0.0000
    57 C28      3.4869   2.7935   0.8176   C.ar      1 RES1   0.0000
    58 H21      3.2175   3.5810   1.2746   H         1 RES1   0.0000
    59 C29      3.9769   2.8847  -0.5009   C.ar      1 RES1   0.0000
    60 H22      4.0440   3.7355  -0.9177   H         1 RES1   0.0000
    61 C30      4.3594   1.7608  -1.1922   C.ar      1 RES1   0.0000
    62 H23      4.6663   1.8364  -2.0887   H         1 RES1   0.0000
    63 C31      4.2972   0.4930  -0.5711   C.ar      1 RES1   0.0000
    64 C32      4.7171  -0.7131  -1.1929   C.ar      1 RES1   0.0000
    65 H24      5.0332  -0.7055  -2.0887   H         1 RES1   0.0000
    66 C33      4.6623  -1.8852  -0.4915   C.ar      1 RES1   0.0000
    67 H25      4.9221  -2.7001  -0.9039   H         1 RES1   0.0000
    68 C34      4.2187  -1.8774   0.8420   C.ar      1 RES1   0.0000
    69 H26      4.2039  -2.6968   1.3230   H         1 RES1   0.0000
    70 Cl1      1.7670   6.3212   1.2221   Cl        2 RES2   0.0000
    71 O5       2.5292   7.2867   1.9862   O.3       2 RES2  -1.0000
    72 O6       0.6867   7.0009   0.6172   O.2       2 RES2   0.0000
    73 O7       2.6083   5.7149   0.2454   O.2       2 RES2   0.0000
    74 O8       1.3022   5.3130   2.1305   O.2       2 RES2   0.0000
    75 Cl2     -0.8494   2.2049   0.7846   Cl        3 RES3   0.0000
    76 Cl3     -2.5654   3.4188   2.8085   Cl        3 RES3   0.0000
    77 C35     -1.5784   3.6953   1.3575   C.3       3 RES3   0.0000
    78 H27     -2.1456   4.0783   0.6425   H         3 RES3   0.0000
    79 H28     -0.8646   4.3499   1.5648   H         3 RES3   0.0000
@<TRIPOS>BOND
     1     1     2    1
     2     2    28    1
     3     3    31    1
     4     4     1    1
     5     5    48    1
     6     6     1    1
     7     7     1    1
     8     8     1    1
     9     9     1    1
    10    10     6    1
    11    11    10   ar
    12    12    11    1
    13    13    11   ar
    14    14    13    1
    15    15    13   ar
    16    16    15    1
    17    17    15   ar
    18    18     7   ar
    19    19     7   ar
    20    20    19    1
    21    21    19   ar
    22    22    21    1
    23    23    17   ar
    24    24    23    1
    25    25     6    2
    26    26    25    1
    27    27    25    1
    28    28    27   ar
    29    29    28   ar
    30    30    29    1
    31    31    29   ar
    32    32     3    1
    33    33    32    1
    34    34    32    1
    35    35    32    1
    36    36    31   ar
    37    37    36    1
    38    38    27   ar
    39    39    38    1
    40    40     8   ar
    41    41     9    1
    42    42     9    2
    43    43    42    1
    44    44    42    1
    45    45     4    1
    46    46    45   ar
    47    47    46    1
    48    48    46   ar
    49    49     5    1
    50    50    49    1
    51    51    49    1
    52    52    49    1
    53    53    48   ar
    54    54    53    1
    55    55    44   ar
    56    56    55    1
    57    57    41   ar
    58    58    57    1
    59    59    57   ar
    60    60    59    1
    61    61    59   ar
    62    62    61    1
    63    63    40   ar
    64    64    63   ar
    65    65    64    1
    66    66    64   ar
    67    67    66    1
    68    68     8   ar
    69    69    68    1
    70    10    18   ar
    71    17    18   ar
    72    21    23   ar
    73    36    38   ar
    74    40    41   ar
    75    44    45   ar
    76    53    55   ar
    77    61    63   ar
    78    66    68   ar
    79    70    71    1
    80    72    70    2
    81    73    70    2
    82    74    70    2
    83    75    77    1
    84    76    77    1
    85    77    78    1
    86    79    77    1
@<TRIPOS>SUBSTRUCTURE
     1 RES1        1 GROUP             0 ****  ****    0  
     2 RES2       70 GROUP             0 ****  ****    0  
     3 RES3       75 GROUP             0 ****  ****    0  
@<TRIPOS>CRYSIN
   11.9319   12.6183   13.4637  111.7910  105.5690  103.0680     2     1
