@<TRIPOS>MOLECULE
XAGBOW
    80    82     1     0     0
SMALL
NO_CHARGES
****
Generated from the CSD

@<TRIPOS>ATOM
     1 Fe1      5.6517   1.8332  -2.1635   Fe        1 RES1   0.0000
     2 N1       5.1763   2.4078  -4.2596   N.3       1 RES1   0.0000
     3 N2       5.2957  -0.1955  -2.9876   N.3       1 RES1   0.0000
     4 N3       7.6505   1.4853  -3.0545   N.3       1 RES1   0.0000
     5 O1       6.0798   3.7638  -1.4997   O.3       1 RES1   0.0000
     6 H1       5.6053   4.3977  -1.6269   H         1 RES1   0.0000
     7 H2       6.8284   3.9751  -1.3741   H         1 RES1   0.0000
     8 O2       6.3344   1.1306  -0.2260   O.3       1 RES1   0.0000
     9 O3       3.6902   1.9805  -1.4461   O.3       1 RES1   0.0000
    10 C1       4.2547   1.3277  -4.6797   C.3       1 RES1   0.0000
    11 H3       4.0762   1.4144  -5.6505   H         1 RES1   0.0000
    12 H4       3.3948   1.4317  -4.2027   H         1 RES1   0.0000
    13 C2       4.8100  -0.0457  -4.4019   C.3       1 RES1   0.0000
    14 H5       4.1062  -0.7206  -4.5743   H         1 RES1   0.0000
    15 H6       5.5611  -0.2239  -5.0212   H         1 RES1   0.0000
    16 C3       6.6504  -0.7931  -2.9173   C.3       1 RES1   0.0000
    17 H7       6.6429  -1.6698  -3.3776   H         1 RES1   0.0000
    18 H8       6.8864  -0.9508  -1.9683   H         1 RES1   0.0000
    19 C4       7.6972   0.0867  -3.5483   C.3       1 RES1   0.0000
    20 H9       8.5934  -0.2917  -3.3592   H         1 RES1   0.0000
    21 H10      7.5702   0.0883  -4.5291   H         1 RES1   0.0000
    22 C5       7.6778   2.4850  -4.1592   C.3       1 RES1   0.0000
    23 H11      8.4805   2.3321  -4.7165   H         1 RES1   0.0000
    24 H12      7.7456   3.3949  -3.7726   H         1 RES1   0.0000
    25 C6       6.4314   2.4046  -5.0396   C.3       1 RES1   0.0000
    26 H13      6.4249   3.1725  -5.6622   H         1 RES1   0.0000
    27 H14      6.4701   1.5752  -5.5802   H         1 RES1   0.0000
    28 C7       4.5002   3.7244  -4.2663   C.3       1 RES1   0.0000
    29 H15      5.1983   4.4166  -4.1625   H         1 RES1   0.0000
    30 H16      3.9298   3.7670  -3.4562   H         1 RES1   0.0000
    31 C8       3.6239   4.1328  -5.4647   C.3       1 RES1   0.0000
    32 H17      2.8832   3.4642  -5.5283   H         1 RES1   0.0000
    33 C9       4.3152   4.1596  -6.8137   C.3       1 RES1   0.0000
    34 H18      4.7153   3.2829  -6.9945   H         1 RES1   0.0000
    35 H19      5.0189   4.8439  -6.8070   H         1 RES1   0.0000
    36 H20      3.6619   4.3709  -7.5133   H         1 RES1   0.0000
    37 C10      2.9855   5.4778  -5.1417   C.3       1 RES1   0.0000
    38 H21      2.5483   5.4305  -4.2663   H         1 RES1   0.0000
    39 H22      2.3210   5.6986  -5.8279   H         1 RES1   0.0000
    40 H23      3.6780   6.1716  -5.1216   H         1 RES1   0.0000
    41 C11      4.3063  -0.9193  -2.1541   C.3       1 RES1   0.0000
    42 H24      3.4314  -0.4715  -2.2729   H         1 RES1   0.0000
    43 H25      4.5658  -0.7979  -1.2068   H         1 RES1   0.0000
    44 C12      4.0981  -2.4030  -2.3884   C.3       1 RES1   0.0000
    45 H26      4.4133  -2.6159  -3.3140   H         1 RES1   0.0000
    46 C13      4.8970  -3.2671  -1.4093   C.3       1 RES1   0.0000
    47 H27      5.8472  -3.0353  -1.4695   H         1 RES1   0.0000
    48 H28      4.7775  -4.2132  -1.6336   H         1 RES1   0.0000
    49 H29      4.5809  -3.1047  -0.4954   H         1 RES1   0.0000
    50 C14      2.6300  -2.7499  -2.3047   C.3       1 RES1   0.0000
    51 H30      2.5129  -3.7102  -2.4570   H         1 RES1   0.0000
    52 H31      2.1363  -2.2469  -2.9859   H         1 RES1   0.0000
    53 H32      2.2897  -2.5166  -1.4160   H         1 RES1   0.0000
    54 C15      8.7256   1.7345  -2.0620   C.3       1 RES1   0.0000
    55 H33      8.6328   1.0580  -1.3440   H         1 RES1   0.0000
    56 H34      8.5537   2.6191  -1.6520   H         1 RES1   0.0000
    57 C16     10.1984   1.7156  -2.5290   C.3       1 RES1   0.0000
    58 H35     10.2759   1.0911  -3.3073   H         1 RES1   0.0000
    59 C17     11.0592   1.1826  -1.3976   C.3       1 RES1   0.0000
    60 H36     10.7299   0.3012  -1.1214   H         1 RES1   0.0000
    61 H37     11.0174   1.7991  -0.6377   H         1 RES1   0.0000
    62 H38     11.9860   1.1022  -1.7022   H         1 RES1   0.0000
    63 C18     10.7029   3.0558  -2.9441   C.3       1 RES1   0.0000
    64 H39     10.1494   3.4027  -3.6755   H         1 RES1   0.0000
    65 H40     11.6321   2.9738  -3.2487   H         1 RES1   0.0000
    66 H41     10.6629   3.6708  -2.1825   H         1 RES1   0.0000
    67 S1       6.2257   0.5762   1.1098   S.o2      1 RES1   0.0000
    68 O4       5.3906  -0.5803   1.2084   O.2       1 RES1   0.0000
    69 O5       6.0678   1.5531   2.1507   O.2       1 RES1   0.0000
    70 C19      7.8991  -0.0662   1.4026   C.3       1 RES1   0.0000
    71 F1       8.8088   0.8814   1.3758   F         1 RES1   0.0000
    72 F2       7.9674  -0.6686   2.5825   F         1 RES1   0.0000
    73 F3       8.2424  -0.9571   0.4753   F         1 RES1   0.0000
    74 S2       2.6493   2.6333  -0.7816   S.o2      1 RES1   0.0000
    75 O6       1.9594   3.6456  -1.2737   O.2       1 RES1   0.0000
    76 O7       3.2136   2.9975   0.6009   O.2       1 RES1   0.0000
    77 C20      1.5606   1.3702  -0.2226   C.3       1 RES1   0.0000
    78 F4       0.9786   0.8373  -1.3992   F         1 RES1   0.0000
    79 F5       2.0781   0.3232   0.3113   F         1 RES1   0.0000
    80 F6       0.5372   1.8007   0.4502   F         1 RES1   0.0000
@<TRIPOS>BOND
     1     1     2    1
     2     2    10    1
     3     3     1    1
     4     4     1    1
     5     5     1    1
     6     6     5    1
     7     7     5    1
     8     8     1    1
     9     9     1    1
    10    10    11    1
    11    12    10    1
    12    13     3    1
    13    14    13    1
    14    15    13    1
    15    16     3    1
    16    17    16    1
    17    18    16    1
    18    19     4    1
    19    20    19    1
    20    21    19    1
    21    22     4    1
    22    23    22    1
    23    24    22    1
    24    25     2    1
    25    26    25    1
    26    27    25    1
    27    28     2    1
    28    29    28    1
    29    30    28    1
    30    31    28    1
    31    32    31    1
    32    33    31    1
    33    34    33    1
    34    35    33    1
    35    36    33    1
    36    37    31    1
    37    38    37    1
    38    39    37    1
    39    40    37    1
    40    41     3    1
    41    42    41    1
    42    43    41    1
    43    44    41    1
    44    45    44    1
    45    46    44    1
    46    47    46    1
    47    48    46    1
    48    49    46    1
    49    50    44    1
    50    51    50    1
    51    52    50    1
    52    53    50    1
    53    54     4    1
    54    55    54    1
    55    56    54    1
    56    57    54    1
    57    58    57    1
    58    59    57    1
    59    60    59    1
    60    61    59    1
    61    62    59    1
    62    63    57    1
    63    64    63    1
    64    65    63    1
    65    66    63    1
    66    67     8    1
    67    68    67    2
    68    69    67    2
    69    70    67    1
    70    71    70    1
    71    72    70    1
    72    73    70    1
    73    74     9    1
    74    75    74    2
    75    76    74    2
    76    77    74    1
    77    78    77    1
    78    79    77    1
    79    80    77    1
    80    10    13    1
    81    16    19    1
    82    22    25    1
@<TRIPOS>SUBSTRUCTURE
     1 RES1        1 GROUP             0 ****  ****    0  
@<TRIPOS>CRYSIN
   22.9900   15.7680   17.5640   90.0000  107.6500   90.0000    15     1
