@<TRIPOS>MOLECULE
XAGBIQ
    89    90     2     0     0
SMALL
USER_CHARGES
****
Generated from the CSD

@<TRIPOS>ATOM
     1 Fe1      3.1402  16.4179   3.8064   Fe        1 RES1   1.0000
     2 N1       3.2057  18.6275   3.8262   N.3       1 RES1   0.0000
     3 N2       1.0065  16.8287   3.4731   N.3       1 RES1   0.0000
     4 N3       3.2424  16.7515   1.6118   N.3       1 RES1   0.0000
     5 N4       2.9203  16.1659   5.9465   N.1       1 RES1   0.0000
     6 N5       2.8918  14.2781   3.6897   N.1       1 RES1   0.0000
     7 O1       5.2081  16.1742   4.0145   O.3       1 RES1   0.0000
     8 O2       7.3507  15.3218   3.3460   O.2       1 RES1   0.0000
     9 O3       7.2147  17.3556   4.6674   O.2       1 RES1   0.0000
    10 S1       6.6202  16.1019   4.2948   S.o2      1 RES1   0.0000
    11 C1       6.6632  15.1238   5.8225   C.3       1 RES1   0.0000
    12 F1       7.8984  14.8285   6.1662   F         1 RES1   0.0000
    13 F2       5.9986  13.9845   5.6954   F         1 RES1   0.0000
    14 F3       6.1166  15.7917   6.8285   F         1 RES1   0.0000
    15 C2       1.8677  19.0067   4.3049   C.3       1 RES1   0.0000
    16 H1       1.7523  19.9531   4.1887   H         1 RES1   0.0000
    17 H2       1.8050  18.8154   5.2449   H         1 RES1   0.0000
    18 C3       0.7631  18.2902   3.5892   C.3       1 RES1   0.0000
    19 H3      -0.0631  18.4312   4.0553   H         1 RES1   0.0000
    20 H4       0.6715  18.6627   2.7088   H         1 RES1   0.0000
    21 C4       0.8254  16.3219   2.0904   C.3       1 RES1   0.0000
    22 H5      -0.0511  16.5669   1.7828   H         1 RES1   0.0000
    23 H6       0.8702  15.3638   2.1077   H         1 RES1   0.0000
    24 C5       1.8467  16.8387   1.1143   C.3       1 RES1   0.0000
    25 H7       1.7793  16.3404   0.2966   H         1 RES1   0.0000
    26 H8       1.6488  17.7566   0.9134   H         1 RES1   0.0000
    27 C6       3.9715  18.0335   1.5192   C.3       1 RES1   0.0000
    28 H9       3.9230  18.3439   0.6121   H         1 RES1   0.0000
    29 H10      4.8966  17.8858   1.7279   H         1 RES1   0.0000
    30 C7       3.4410  19.0990   2.4263   C.3       1 RES1   0.0000
    31 H11      4.0566  19.8356   2.4467   H         1 RES1   0.0000
    32 H12      2.6104  19.4212   2.0669   H         1 RES1   0.0000
    33 C8       4.3010  19.0587   4.7427   C.3       1 RES1   0.0000
    34 H13      5.1314  18.7550   4.3677   H         1 RES1   0.0000
    35 H14      4.1800  18.6023   5.5777   H         1 RES1   0.0000
    36 C9       4.4561  20.5521   5.0613   C.3       1 RES1   0.0000
    37 H15      4.1247  21.0522   4.3112   H         1 RES1   0.0000
    38 C10      3.7038  21.0018   6.3106   C.3       1 RES1   0.0000
    39 H16      2.7645  20.8374   6.2070   H         1 RES1   0.0000
    40 H17      4.0350  20.5052   7.0623   H         1 RES1   0.0000
    41 H18      3.8521  21.9382   6.4565   H         1 RES1   0.0000
    42 C11      5.9294  20.8240   5.2089   C.3       1 RES1   0.0000
    43 H19      6.3906  20.5471   4.4132   H         1 RES1   0.0000
    44 H20      6.0779  21.7620   5.3532   H         1 RES1   0.0000
    45 H21      6.2606  20.3273   5.9606   H         1 RES1   0.0000
    46 C12      0.1436  16.0836   4.4461   C.3       1 RES1   0.0000
    47 H22      0.2883  16.4410   5.3266   H         1 RES1   0.0000
    48 H23      0.4290  15.1658   4.4540   H         1 RES1   0.0000
    49 C13     -1.3732  16.1105   4.1417   C.3       1 RES1   0.0000
    50 H24     -1.5205  16.7448   3.4370   H         1 RES1   0.0000
    51 C14     -2.1346  16.5770   5.3564   C.3       1 RES1   0.0000
    52 H25     -3.0764  16.6139   5.1696   H         1 RES1   0.0000
    53 H26     -1.9746  15.9611   6.0752   H         1 RES1   0.0000
    54 H27     -1.8260  17.4495   5.6106   H         1 RES1   0.0000
    55 C15     -1.8936  14.7547   3.6708   C.3       1 RES1   0.0000
    56 H28     -2.8320  14.8084   3.4778   H         1 RES1   0.0000
    57 H29     -1.4190  14.4828   2.8830   H         1 RES1   0.0000
    58 H30     -1.7470  14.1120   4.3708   H         1 RES1   0.0000
    59 C16      4.0155  15.6457   0.9699   C.3       1 RES1   0.0000
    60 H31      3.4528  14.8688   0.9636   H         1 RES1   0.0000
    61 H32      4.7616  15.4477   1.5427   H         1 RES1   0.0000
    62 C17      4.5486  15.8252  -0.4284   C.3       1 RES1   0.0000
    63 H33      5.2033  16.5266  -0.3986   H         1 RES1   0.0000
    64 C18      5.2979  14.5483  -0.8318   C.3       1 RES1   0.0000
    65 H34      5.6578  14.6204  -1.7185   H         1 RES1   0.0000
    66 H35      6.0126  14.3956  -0.2087   H         1 RES1   0.0000
    67 H36      4.6800  13.8150  -0.7957   H         1 RES1   0.0000
    68 C19      3.5463  16.2044  -1.5066   C.3       1 RES1   0.0000
    69 H37      3.9786  16.3018  -2.3572   H         1 RES1   0.0000
    70 H38      2.8801  15.5165  -1.5616   H         1 RES1   0.0000
    71 H39      3.1293  17.0351  -1.2618   H         1 RES1   0.0000
    72 C20      2.8902  15.6742   6.9666   C.1       1 RES1   0.0000
    73 C21      2.8734  15.0064   8.2300   C.3       1 RES1   0.0000
    74 H40      3.6665  14.4728   8.3194   H         1 RES1   0.0000
    75 H41      2.1212  14.4157   8.3084   H         1 RES1   0.0000
    76 H42      2.8698  15.6390   8.9519   H         1 RES1   0.0000
    77 C22      2.6575  13.1656   3.6881   C.1       1 RES1   0.0000
    78 C23      2.3370  11.7544   3.6928   C.3       1 RES1   0.0000
    79 H43      1.5602  11.6420   4.3912   H         1 RES1   0.0000
    80 H44      3.0441  11.1738   3.5657   H         1 RES1   0.0000
    81 H45      1.9075  11.5665   2.8579   H         1 RES1   0.0000
    82 S2       0.0450  12.2214   7.4176   S.o2      2 RES2   0.0000
    83 O4      -0.5752  10.9322   7.3684   O.3       2 RES2  -1.0000
    84 O5       0.3758  12.7612   6.1850   O.2       2 RES2   0.0000
    85 O6       1.0073  12.3132   8.4481   O.2       2 RES2   0.0000
    86 C24     -1.2846  13.2596   7.9616   C.3       2 RES2   0.0000
    87 F4      -1.6356  13.0213   9.1889   F         2 RES2   0.0000
    88 F5      -0.8705  14.5332   8.0353   F         2 RES2   0.0000
    89 F6      -2.3266  13.2596   7.1596   F         2 RES2   0.0000
@<TRIPOS>BOND
     1     1     2    1
     2     2    15    1
     3     3     1    1
     4     4     1    1
     5     5     1    1
     6     6     1    1
     7     7     1    1
     8     8    10    2
     9     9    10    2
    10    10     7    1
    11    11    10    1
    12    12    11    1
    13    13    11    1
    14    14    11    1
    15    15    16    1
    16    17    15    1
    17    18     3    1
    18    19    18    1
    19    20    18    1
    20    21     3    1
    21    22    21    1
    22    23    21    1
    23    24     4    1
    24    25    24    1
    25    26    24    1
    26    27     4    1
    27    28    27    1
    28    29    27    1
    29    30     2    1
    30    31    30    1
    31    32    30    1
    32    33     2    1
    33    34    33    1
    34    35    33    1
    35    36    33    1
    36    37    36    1
    37    38    36    1
    38    39    38    1
    39    40    38    1
    40    41    38    1
    41    42    36    1
    42    43    42    1
    43    44    42    1
    44    45    42    1
    45    46     3    1
    46    47    46    1
    47    48    46    1
    48    49    46    1
    49    50    49    1
    50    51    49    1
    51    52    51    1
    52    53    51    1
    53    54    51    1
    54    55    49    1
    55    56    55    1
    56    57    55    1
    57    58    55    1
    58    59     4    1
    59    60    59    1
    60    61    59    1
    61    62    59    1
    62    63    62    1
    63    64    62    1
    64    65    64    1
    65    66    64    1
    66    67    64    1
    67    68    62    1
    68    69    68    1
    69    70    68    1
    70    71    68    1
    71    72     5    3
    72    73    72    1
    73    74    73    1
    74    75    73    1
    75    76    73    1
    76    77     6    3
    77    78    77    1
    78    79    78    1
    79    80    78    1
    80    81    78    1
    81    15    18    1
    82    21    24    1
    83    27    30    1
    84    82    83    1
    85    84    82    2
    86    85    82    2
    87    86    82    1
    88    87    86    1
    89    88    86    1
    90    89    86    1
@<TRIPOS>SUBSTRUCTURE
     1 RES1        1 GROUP             0 ****  ****    0  
     2 RES2       82 GROUP             0 ****  ****    0  
@<TRIPOS>CRYSIN
   12.9530   16.7800   15.7900   90.0000   96.3200   90.0000    14     1
