@<TRIPOS>MOLECULE
XALGAW
    84    87     1     0     0
SMALL
NO_CHARGES
****
Generated from the CSD

@<TRIPOS>ATOM
     1 Fe1      0.4643   3.0750  12.5177   Fe        1 RES1   0.0000
     2 P1      -0.1963   4.0422  10.6602   P.3       1 RES1   0.0000
     3 P2       0.1432   1.3530  13.8084   P.3       1 RES1   0.0000
     4 P3       2.6364   2.8752  12.1881   P.3       1 RES1   0.0000
     5 Si1     -0.3377   4.9676  13.5103   Si        1 RES1   0.0000
     6 C1      -1.3448   4.7333  15.1137   C.ar      1 RES1   0.0000
     7 C2      -1.5319   5.2774  10.9721   C.ar      1 RES1   0.0000
     8 C3       0.9629   5.0509   9.5804   C.3       1 RES1   0.0000
     9 H1       1.7832   4.5239   9.4797   H         1 RES1   0.0000
    10 C4       0.8711   6.3886  13.9435   C.ar      1 RES1   0.0000
    11 C5      -1.5701   4.6836  17.5297   C.ar      1 RES1   0.0000
    12 H2      -1.1856   4.7921  18.3694   H         1 RES1   0.0000
    13 C6      -1.5871   5.7355  12.2955   C.ar      1 RES1   0.0000
    14 C7      -0.8074   4.9080  16.3928   C.ar      1 RES1   0.0000
    15 H3       0.0773   5.1802  16.4837   H         1 RES1   0.0000
    16 C8      -3.4222   7.1973  11.6649   C.ar      1 RES1   0.0000
    17 H4      -4.0560   7.8352  11.9017   H         1 RES1   0.0000
    18 C9      -2.5428   6.7001  12.6197   C.ar      1 RES1   0.0000
    19 H5      -2.5919   7.0174  13.4923   H         1 RES1   0.0000
    20 C10     -2.4146   5.7841  10.0151   C.ar      1 RES1   0.0000
    21 H6      -2.3749   5.4767   9.1393   H         1 RES1   0.0000
    22 C11     -0.9824   2.9032   9.4079   C.3       1 RES1   0.0000
    23 H7      -1.3485   3.4646   8.6937   H         1 RES1   0.0000
    24 C12     -2.6794   4.3435  15.0413   C.ar      1 RES1   0.0000
    25 H8      -3.0676   4.2174  14.2061   H         1 RES1   0.0000
    26 C13     -2.1439   2.1247  10.0128   C.3       1 RES1   0.0000
    27 H9      -1.8108   1.5191  10.6783   H         1 RES1   0.0000
    28 H10     -2.5910   1.6290   9.3229   H         1 RES1   0.0000
    29 H11     -2.7626   2.7367  10.4184   H         1 RES1   0.0000
    30 C14     -3.3515   6.7432  10.3680   C.ar      1 RES1   0.0000
    31 H12     -3.9332   7.0807   9.7273   H         1 RES1   0.0000
    32 C15      1.3522   6.3358  10.3022   C.3       1 RES1   0.0000
    33 H13      0.5960   6.9258  10.3359   H         1 RES1   0.0000
    34 H14      2.0706   6.7625   9.8304   H         1 RES1   0.0000
    35 H15      1.6358   6.1279  11.1961   H         1 RES1   0.0000
    36 C16      2.0442   6.1321  14.6538   C.ar      1 RES1   0.0000
    37 H16      2.2172   5.2618  14.9323   H         1 RES1   0.0000
    38 C17      0.9689  -0.2424  13.4110   C.3       1 RES1   0.0000
    39 H17      0.6945  -0.5363  12.5392   H         1 RES1   0.0000
    40 H18      0.7210  -0.9011  14.0638   H         1 RES1   0.0000
    41 H19      1.9208  -0.1216  13.4242   H         1 RES1   0.0000
    42 C18      0.6671   7.7088  13.5387   C.ar      1 RES1   0.0000
    43 H20     -0.1046   7.9235  13.0653   H         1 RES1   0.0000
    44 C19      3.6820   4.3314  11.8076   C.3       1 RES1   0.0000
    45 H21      3.4547   4.6688  10.9383   H         1 RES1   0.0000
    46 H22      4.6066   4.0742  11.8192   H         1 RES1   0.0000
    47 H23      3.5312   5.0136  12.4649   H         1 RES1   0.0000
    48 C20      0.0341   1.9570   8.7686   C.3       1 RES1   0.0000
    49 H24      0.7540   2.4685   8.3925   H         1 RES1   0.0000
    50 H25     -0.3935   1.4474   8.0768   H         1 RES1   0.0000
    51 H26      0.3813   1.3608   9.4364   H         1 RES1   0.0000
    52 C21      0.4789   5.3884   8.1695   C.3       1 RES1   0.0000
    53 H27      0.3023   4.5755   7.6890   H         1 RES1   0.0000
    54 H28      1.1573   5.8897   7.7096   H         1 RES1   0.0000
    55 H29     -0.3245   5.9097   8.2233   H         1 RES1   0.0000
    56 C22     -1.5874   0.7664  13.8845   C.3       1 RES1   0.0000
    57 H30     -2.1357   1.4375  14.2990   H         1 RES1   0.0000
    58 H31     -1.6296  -0.0433  14.4001   H         1 RES1   0.0000
    59 H32     -1.9077   0.5963  12.9951   H         1 RES1   0.0000
    60 C23     -2.8843   4.3034  17.4292   C.ar      1 RES1   0.0000
    61 H33     -3.3909   4.1575  18.1961   H         1 RES1   0.0000
    62 C24     -3.4476   4.1375  16.1780   C.ar      1 RES1   0.0000
    63 H34     -4.3408   3.8893  16.0979   H         1 RES1   0.0000
    64 C25      2.7304   8.4249  14.5280   C.ar      1 RES1   0.0000
    65 H35      3.3447   9.0994  14.7136   H         1 RES1   0.0000
    66 C26      3.6136   2.2636  13.6085   C.3       1 RES1   0.0000
    67 H36      3.5005   2.8566  14.3547   H         1 RES1   0.0000
    68 H37      4.5415   2.2270  13.3665   H         1 RES1   0.0000
    69 H38      3.3115   1.3842  13.8492   H         1 RES1   0.0000
    70 C27      1.5853   8.7107  13.8243   C.ar      1 RES1   0.0000
    71 H39      1.4240   9.5808  13.5377   H         1 RES1   0.0000
    72 C28      3.2026   1.7223  10.8855   C.3       1 RES1   0.0000
    73 H40      2.8332   0.8511  11.0476   H         1 RES1   0.0000
    74 H41      4.1612   1.6706  10.8970   H         1 RES1   0.0000
    75 H42      2.9096   2.0388  10.0285   H         1 RES1   0.0000
    76 C29      2.9664   7.1306  14.9598   C.ar      1 RES1   0.0000
    77 H43      3.7314   6.9291  15.4481   H         1 RES1   0.0000
    78 C30      0.5091   1.5013  15.5985   C.3       1 RES1   0.0000
    79 H44      1.4452   1.6756  15.7204   H         1 RES1   0.0000
    80 H45      0.2756   0.6829  16.0422   H         1 RES1   0.0000
    81 H46     -0.0019   2.2236  15.9700   H         1 RES1   0.0000
    82 H47      0.9006   3.8143  13.7048   H         1 RES1   0.0000
    83 H48      0.2483   1.9022  11.6521   H         1 RES1   0.0000
    84 H49     -0.8999   3.1314  12.7434   H         1 RES1   0.0000
@<TRIPOS>BOND
     1     1     2    1
     2     2     7    1
     3     3     1    1
     4     4     1    1
     5     5     6    1
     6     6    14   ar
     7     7    13   ar
     8     8     2    1
     9     9     8    1
    10    10     5    1
    11    11    12    1
    12    13     5    1
    13    14    11   ar
    14    15    14    1
    15    16    17    1
    16    18    13   ar
    17    19    18    1
    18    20     7   ar
    19    21    20    1
    20    22     2    1
    21    23    22    1
    22    24     6   ar
    23    25    24    1
    24    26    22    1
    25    27    26    1
    26    28    26    1
    27    29    26    1
    28    30    16   ar
    29    31    30    1
    30    32     8    1
    31    33    32    1
    32    34    32    1
    33    35    32    1
    34    36    10   ar
    35    37    36    1
    36    38     3    1
    37    39    38    1
    38    40    38    1
    39    41    38    1
    40    42    10   ar
    41    43    42    1
    42    44     4    1
    43    45    44    1
    44    46    44    1
    45    47    44    1
    46    48    22    1
    47    49    48    1
    48    50    48    1
    49    51    48    1
    50    52     8    1
    51    53    52    1
    52    54    52    1
    53    55    52    1
    54    56     3    1
    55    57    56    1
    56    58    56    1
    57    59    56    1
    58    60    11   ar
    59    61    60    1
    60    62    24   ar
    61    63    62    1
    62    64    65    1
    63    66     4    1
    64    67    66    1
    65    68    66    1
    66    69    66    1
    67    70    42   ar
    68    71    70    1
    69    72     4    1
    70    73    72    1
    71    74    72    1
    72    75    72    1
    73    76    36   ar
    74    77    76    1
    75    78     3    1
    76    79    78    1
    77    80    78    1
    78    81    78    1
    79    82     1    1
    80    83     1    1
    81    84     1    1
    82     5    82    1
    83    16    18   ar
    84    20    30   ar
    85    60    62   ar
    86    64    70   ar
    87    64    76   ar
@<TRIPOS>SUBSTRUCTURE
     1 RES1        1 GROUP             0 ****  ****    0  
@<TRIPOS>CRYSIN
    9.1606   16.6565   21.0567   90.0000  101.5480   90.0000   231     1
