@<TRIPOS>MOLECULE
XALPIN
    84    87     1     0     0
SMALL
NO_CHARGES
****
Generated from the CSD

@<TRIPOS>ATOM
     1 Fe1     -0.5658  11.8492   4.2797   Fe        1 RES1   0.0000
     2 P1      -2.0594  13.1906   5.1500   P.3       1 RES1   0.0000
     3 P2       0.1740  10.6702   2.5868   P.3       1 RES1   0.0000
     4 Si1      0.2222  13.6669   3.1331   Si        1 RES1   0.0000
     5 P3       0.2924  10.8662   6.0729   P.3       1 RES1   0.0000
     6 C1       0.5235  13.4856  -1.0678   C.ar      1 RES1   0.0000
     7 H1       0.6277  14.0727  -1.7820   H         1 RES1   0.0000
     8 C2       0.2470  11.7302   1.0762   C.ar      1 RES1   0.0000
     9 C3      -1.1354  14.9945   3.2729   C.ar      1 RES1   0.0000
    10 C4      -3.3073  15.5993   4.1624   C.ar      1 RES1   0.0000
    11 H2      -4.0305  15.4144   4.7161   H         1 RES1   0.0000
    12 C5       0.2375  11.2532  -0.2424   C.ar      1 RES1   0.0000
    13 H3       0.1493  10.3425  -0.4067   H         1 RES1   0.0000
    14 C6      -2.2220  17.0542   2.6049   C.ar      1 RES1   0.0000
    15 H4      -2.2156  17.8399   2.1071   H         1 RES1   0.0000
    16 C7      -0.5505  14.9301   6.7293   C.3       1 RES1   0.0000
    17 H5       0.1925  14.4772   6.3225   H         1 RES1   0.0000
    18 H6      -0.3024  15.2239   7.6080   H         1 RES1   0.0000
    19 H7      -0.7949  15.6891   6.1947   H         1 RES1   0.0000
    20 C8      -0.8668  10.2245   7.3427   C.3       1 RES1   0.0000
    21 H8      -1.4051  10.9460   7.6787   H         1 RES1   0.0000
    22 H9      -0.3676   9.8352   8.0650   H         1 RES1   0.0000
    23 H10     -1.4344   9.5571   6.9510   H         1 RES1   0.0000
    24 C9      -3.8373  12.6362   5.2846   C.3       1 RES1   0.0000
    25 H11     -4.3499  13.3917   5.6424   H         1 RES1   0.0000
    26 C10     -1.7332  13.9759   6.8269   C.3       1 RES1   0.0000
    27 H12     -1.4598  13.2518   7.4271   H         1 RES1   0.0000
    28 C11     -4.4233  12.3001   3.9081   C.3       1 RES1   0.0000
    29 H13     -4.3164  13.0529   3.3218   H         1 RES1   0.0000
    30 H14     -5.3572  12.0972   3.9992   H         1 RES1   0.0000
    31 H15     -3.9640  11.5410   3.5408   H         1 RES1   0.0000
    32 C12      1.4140  11.8413   7.1305   C.3       1 RES1   0.0000
    33 H16      2.1601  12.1478   6.6082   H         1 RES1   0.0000
    34 H17      1.7326  11.2932   7.8501   H         1 RES1   0.0000
    35 H18      0.9418  12.5961   7.4869   H         1 RES1   0.0000
    36 C13     -1.1369  16.1927   2.5491   C.ar      1 RES1   0.0000
    37 H19     -0.4021  16.4139   2.0241   H         1 RES1   0.0000
    38 C14     -2.2503   9.6693   1.6350   C.3       1 RES1   0.0000
    39 H20     -2.6825  10.0577   2.3995   H         1 RES1   0.0000
    40 H21     -2.7548   8.9098   1.3344   H         1 RES1   0.0000
    41 H22     -2.2007  10.3189   0.9304   H         1 RES1   0.0000
    42 C15      0.5360  13.9665   0.2346   C.ar      1 RES1   0.0000
    43 H23      0.6595  14.8750   0.3877   H         1 RES1   0.0000
    44 C16      1.8359  14.6388   3.3912   C.3       1 RES1   0.0000
    45 H24      1.8686  14.9727   4.2903   H         1 RES1   0.0000
    46 H25      1.8688  15.3739   2.7749   H         1 RES1   0.0000
    47 H26      2.5862  14.0592   3.2388   H         1 RES1   0.0000
    48 C17     -3.3077  16.7507   3.3952   C.ar      1 RES1   0.0000
    49 H27     -4.0431  17.3207   3.4143   H         1 RES1   0.0000
    50 C18     -0.8966   8.1055   3.0565   C.3       1 RES1   0.0000
    51 H28     -0.0106   7.7670   3.2075   H         1 RES1   0.0000
    52 H29     -1.4595   7.3962   2.7355   H         1 RES1   0.0000
    53 H30     -1.2540   8.4480   3.8795   H         1 RES1   0.0000
    54 C19      1.3359   9.3632   5.9158   C.3       1 RES1   0.0000
    55 H31      0.8355   8.6705   5.4764   H         1 RES1   0.0000
    56 H32      1.5990   9.0632   6.7891   H         1 RES1   0.0000
    57 H33      2.1177   9.5689   5.3989   H         1 RES1   0.0000
    58 C20     -2.9012  14.6862   7.5060   C.3       1 RES1   0.0000
    59 H34     -3.2011  15.4093   6.9510   H         1 RES1   0.0000
    60 H35     -2.6163  15.0300   8.3548   H         1 RES1   0.0000
    61 H36     -3.6215  14.0642   7.6379   H         1 RES1   0.0000
    62 C21     -4.0194  11.4735   6.2477   C.3       1 RES1   0.0000
    63 H37     -3.5545  10.7032   5.9117   H         1 RES1   0.0000
    64 H38     -4.9540  11.2713   6.3321   H         1 RES1   0.0000
    65 H39     -3.6643  11.7112   7.1074   H         1 RES1   0.0000
    66 C22      0.3595  12.1378  -1.3015   C.ar      1 RES1   0.0000
    67 H40      0.3314  11.8208  -2.1751   H         1 RES1   0.0000
    68 C23      0.3623  13.0982   1.3223   C.ar      1 RES1   0.0000
    69 C24     -2.2275  14.7106   4.1145   C.ar      1 RES1   0.0000
    70 C25     -0.8446   9.2264   2.0176   C.3       1 RES1   0.0000
    71 H41     -0.4188   8.8643   1.2120   H         1 RES1   0.0000
    72 C26      2.9151  10.9888   3.0076   C.3       1 RES1   0.0000
    73 H42      2.9518  11.6842   2.3465   H         1 RES1   0.0000
    74 H43      3.7815  10.5836   3.0933   H         1 RES1   0.0000
    75 H44      2.6505  11.3623   3.8509   H         1 RES1   0.0000
    76 C27      1.8975   9.9311   2.5776   C.3       1 RES1   0.0000
    77 H45      1.9076   9.2368   3.2687   H         1 RES1   0.0000
    78 C28      2.3564   9.2641   1.2814   C.3       1 RES1   0.0000
    79 H46      1.7335   8.5744   1.0379   H         1 RES1   0.0000
    80 H47      3.2260   8.8778   1.4106   H         1 RES1   0.0000
    81 H48      2.3974   9.9195   0.5822   H         1 RES1   0.0000
    82 H49      0.6085  12.7310   4.5025   H         1 RES1   0.0000
    83 H50     -1.3670  12.1747   3.2238   H         1 RES1   0.0000
    84 H51     -1.6000  10.7892   4.4345   H         1 RES1   0.0000
@<TRIPOS>BOND
     1     1     2    1
     2     2    24    1
     3     3     1    1
     4     4     9    1
     5     5     1    1
     6     6     7    1
     7     8     3    1
     8     9    36   ar
     9    10    11    1
    10    12     8   ar
    11    13    12    1
    12    14    15    1
    13    16    17    1
    14    18    16    1
    15    19    16    1
    16    20     5    1
    17    21    20    1
    18    22    20    1
    19    23    20    1
    20    24    25    1
    21    26     2    1
    22    27    26    1
    23    28    24    1
    24    29    28    1
    25    30    28    1
    26    31    28    1
    27    32     5    1
    28    33    32    1
    29    34    32    1
    30    35    32    1
    31    36    14   ar
    32    37    36    1
    33    38    39    1
    34    40    38    1
    35    41    38    1
    36    42     6   ar
    37    43    42    1
    38    44     4    1
    39    45    44    1
    40    46    44    1
    41    47    44    1
    42    48    10   ar
    43    49    48    1
    44    50    51    1
    45    52    50    1
    46    53    50    1
    47    54     5    1
    48    55    54    1
    49    56    54    1
    50    57    54    1
    51    58    26    1
    52    59    58    1
    53    60    58    1
    54    61    58    1
    55    62    24    1
    56    63    62    1
    57    64    62    1
    58    65    62    1
    59    66     6   ar
    60    67    66    1
    61    68     4    1
    62    69     2    1
    63    70     3    1
    64    71    70    1
    65    72    73    1
    66    74    72    1
    67    75    72    1
    68    76     3    1
    69    77    76    1
    70    78    76    1
    71    79    78    1
    72    80    78    1
    73    81    78    1
    74    82     1    1
    75    83     1    1
    76    84     1    1
    77     4    82    1
    78     8    68   ar
    79     9    69   ar
    80    10    69   ar
    81    12    66   ar
    82    14    48   ar
    83    16    26    1
    84    38    70    1
    85    42    68   ar
    86    50    70    1
    87    72    76    1
@<TRIPOS>SUBSTRUCTURE
     1 RES1        1 GROUP             0 ****  ****    0  
@<TRIPOS>CRYSIN
   13.3431   16.8555   14.1692   90.0000  106.2564   90.0000   231     1
