@<TRIPOS>MOLECULE
XALVAL
    84    87     1     0     0
SMALL
NO_CHARGES
****
Generated from the CSD

@<TRIPOS>ATOM
     1 Fe1     -0.7335   3.2982   4.3911   Fe        1 RES1   0.0000
     2 H1      -1.6433   3.7595   3.2899   H         1 RES1   0.0000
     3 P1      -2.1016   4.8238   5.2189   P.3       1 RES1   0.0000
     4 P2       0.1387   2.1877   2.6722   P.3       1 RES1   0.0000
     5 P3       0.4196   2.6059   6.1834   P.3       1 RES1   0.0000
     6 Si1      0.2602   5.1151   3.3558   Si        1 RES1   0.0000
     7 N1      -1.9091   1.9175   4.8853   N.1       1 RES1   0.0000
     8 N2      -2.6263   1.0575   5.1969   N.1       1 RES1   0.0000
     9 C1       1.9071   5.9671   3.7566   C.3       1 RES1   0.0000
    10 H2       1.8851   6.3053   4.6754   H         1 RES1   0.0000
    11 H3       2.0468   6.7138   3.1374   H         1 RES1   0.0000
    12 H4       2.6400   5.3233   3.6630   H         1 RES1   0.0000
    13 C2      -1.0114   6.5339   3.3888   C.ar      1 RES1   0.0000
    14 C3      -2.1735   6.2977   4.1337   C.ar      1 RES1   0.0000
    15 C4      -3.2225   7.2288   4.0936   C.ar      1 RES1   0.0000
    16 H5      -4.0155   7.0657   4.5898   H         1 RES1   0.0000
    17 C5      -3.1101   8.3790   3.3394   C.ar      1 RES1   0.0000
    18 H6      -3.8398   8.9849   3.2899   H         1 RES1   0.0000
    19 C6      -1.9524   8.6536   2.6613   C.ar      1 RES1   0.0000
    20 H7      -1.8660   9.4639   2.1719   H         1 RES1   0.0000
    21 C7      -0.9107   7.7448   2.6894   C.ar      1 RES1   0.0000
    22 H8      -0.1067   7.9464   2.2253   H         1 RES1   0.0000
    23 C8      -3.9000   4.3723   5.4096   C.3       1 RES1   0.0000
    24 H9      -4.3797   5.2272   5.6115   H         1 RES1   0.0000
    25 C9      -4.1708   3.4419   6.6038   C.3       1 RES1   0.0000
    26 H10     -3.8465   2.5406   6.3939   H         1 RES1   0.0000
    27 H11     -5.1340   3.4110   6.7817   H         1 RES1   0.0000
    28 H12     -3.7037   3.7818   7.3955   H         1 RES1   0.0000
    29 C10     -4.4882   3.8556   4.0856   C.3       1 RES1   0.0000
    30 H13     -4.3096   4.5045   3.3728   H         1 RES1   0.0000
    31 H14     -5.4568   3.7354   4.1832   H         1 RES1   0.0000
    32 H15     -4.0737   2.9973   3.8569   H         1 RES1   0.0000
    33 C11     -1.7638   5.6804   6.8566   C.3       1 RES1   0.0000
    34 H16     -1.6025   4.9680   7.5400   H         1 RES1   0.0000
    35 C12     -0.4903   6.5113   6.7576   C.3       1 RES1   0.0000
    36 H17      0.2141   5.9791   6.3310   H         1 RES1   0.0000
    37 H18     -0.2016   6.7756   7.6550   H         1 RES1   0.0000
    38 H19     -0.6637   7.3129   6.2200   H         1 RES1   0.0000
    39 C13     -2.8788   6.5937   7.3996   C.3       1 RES1   0.0000
    40 H20     -3.1074   7.2666   6.7255   H         1 RES1   0.0000
    41 H21     -2.5681   7.0400   8.2153   H         1 RES1   0.0000
    42 H22     -3.6708   6.0546   7.6055   H         1 RES1   0.0000
    43 C14      0.4339   4.6482   1.5099   C.ar      1 RES1   0.0000
    44 C15      0.2742   3.2905   1.2063   C.ar      1 RES1   0.0000
    45 C16      0.2697   2.8594  -0.1324   C.ar      1 RES1   0.0000
    46 H23      0.1674   1.9364  -0.3303   H         1 RES1   0.0000
    47 C17      0.4125   3.7732  -1.1622   C.ar      1 RES1   0.0000
    48 H24      0.3801   3.4796  -2.0649   H         1 RES1   0.0000
    49 C18      0.6010   5.1105  -0.8746   C.ar      1 RES1   0.0000
    50 H25      0.7170   5.7353  -1.5807   H         1 RES1   0.0000
    51 C19      0.6232   5.5431   0.4493   C.ar      1 RES1   0.0000
    52 H26      0.7690   6.4615   0.6366   H         1 RES1   0.0000
    53 C20     -0.8437   0.7515   2.0087   C.3       1 RES1   0.0000
    54 H27     -0.4108   0.4738   1.1515   H         1 RES1   0.0000
    55 C21     -0.8072  -0.4618   2.9395   C.3       1 RES1   0.0000
    56 H28      0.1061  -0.8154   2.9783   H         1 RES1   0.0000
    57 H29     -1.4112  -1.1553   2.5971   H         1 RES1   0.0000
    58 H30     -1.0939  -0.1940   3.8369   H         1 RES1   0.0000
    59 C22     -2.2708   1.1690   1.6703   C.3       1 RES1   0.0000
    60 H31     -2.7330   1.4471   2.4888   H         1 RES1   0.0000
    61 H32     -2.7457   0.4137   1.2678   H         1 RES1   0.0000
    62 H33     -2.2513   1.9175   1.0378   H         1 RES1   0.0000
    63 C23      1.8502   1.4272   2.7041   C.3       1 RES1   0.0000
    64 H34      1.8344   0.7124   3.4036   H         1 RES1   0.0000
    65 C24      2.8896   2.4565   3.1495   C.3       1 RES1   0.0000
    66 H35      2.9756   3.1501   2.4634   H         1 RES1   0.0000
    67 H36      3.7533   2.0136   3.2765   H         1 RES1   0.0000
    68 H37      2.6047   2.8651   3.9933   H         1 RES1   0.0000
    69 C25      2.3237   0.7639   1.4042   C.3       1 RES1   0.0000
    70 H38      1.6912   0.0601   1.1474   H         1 RES1   0.0000
    71 H39      3.2100   0.3708   1.5420   H         1 RES1   0.0000
    72 H40      2.3699   1.4351   0.6927   H         1 RES1   0.0000
    73 C26      1.2867   0.9905   6.0676   C.3       1 RES1   0.0000
    74 H41      0.6915   0.3279   5.6570   H         1 RES1   0.0000
    75 H42      1.5390   0.6901   6.9649   H         1 RES1   0.0000
    76 H43      2.0910   1.0901   5.5179   H         1 RES1   0.0000
    77 C27      1.7236   3.5895   6.9930   C.3       1 RES1   0.0000
    78 H44      2.4121   3.8230   6.3350   H         1 RES1   0.0000
    79 H45      2.1268   3.0659   7.7165   H         1 RES1   0.0000
    80 H46      1.3326   4.4101   7.3608   H         1 RES1   0.0000
    81 C28     -0.6146   2.2557   7.6617   C.3       1 RES1   0.0000
    82 H47     -1.1350   3.0539   7.8930   H         1 RES1   0.0000
    83 H48     -0.0370   2.0136   8.4159   H         1 RES1   0.0000
    84 H49     -1.2243   1.5141   7.4664   H         1 RES1   0.0000
@<TRIPOS>BOND
     1     1     2    1
     2     3     1    1
     3     4     1    1
     4     5     1    1
     5     6     1    1
     6     7     1    1
     7     8     7    3
     8     9     6    1
     9    10     9    1
    10    11     9    1
    11    12     9    1
    12    13     6    1
    13    14     3    1
    14    15    14   ar
    15    16    15    1
    16    17    15   ar
    17    18    17    1
    18    19    17   ar
    19    20    19    1
    20    21    13   ar
    21    22    21    1
    22    23     3    1
    23    24    23    1
    24    25    23    1
    25    26    25    1
    26    27    25    1
    27    28    25    1
    28    29    23    1
    29    30    29    1
    30    31    29    1
    31    32    29    1
    32    33     3    1
    33    34    33    1
    34    35    33    1
    35    36    35    1
    36    37    35    1
    37    38    35    1
    38    39    33    1
    39    40    39    1
    40    41    39    1
    41    42    39    1
    42    43     6    1
    43    44     4    1
    44    45    44   ar
    45    46    45    1
    46    47    45   ar
    47    48    47    1
    48    49    47   ar
    49    50    49    1
    50    51    43   ar
    51    52    51    1
    52    53     4    1
    53    54    53    1
    54    55    53    1
    55    56    55    1
    56    57    55    1
    57    58    55    1
    58    59    53    1
    59    60    59    1
    60    61    59    1
    61    62    59    1
    62    63     4    1
    63    64    63    1
    64    65    63    1
    65    66    65    1
    66    67    65    1
    67    68    65    1
    68    69    63    1
    69    70    69    1
    70    71    69    1
    71    72    69    1
    72    73     5    1
    73    74    73    1
    74    75    73    1
    75    76    73    1
    76    77     5    1
    77    78    77    1
    78    79    77    1
    79    80    77    1
    80    81     5    1
    81    82    81    1
    82    83    81    1
    83    84    81    1
    84    13    14   ar
    85    19    21   ar
    86    43    44   ar
    87    49    51   ar
@<TRIPOS>SUBSTRUCTURE
     1 RES1        1 GROUP             0 ****  ****    0  
@<TRIPOS>CRYSIN
   13.4753   17.1665   13.9116   90.0000  105.9880   90.0000   231     1
