@<TRIPOS>MOLECULE
XAMNUU
    75    82     3     0     0
SMALL
USER_CHARGES
****
Generated from the CSD

@<TRIPOS>ATOM
     1 Fe1      0.0000   6.8495   0.0000   Fe        1 RES1   2.0000
     2 P1       2.6119   5.2723  -1.0906   P.3       1 RES1   0.0000
     3 O1       3.7499   4.6371  -1.5781   O.2       1 RES1   0.0000
     4 N1       0.6361   5.1234   0.7312   N.ar      1 RES1   0.0000
     5 N2       0.2054   6.2015  -1.8622   N.ar      1 RES1   0.0000
     6 N3       1.8338   7.6071   0.0079   N.ar      1 RES1   0.0000
     7 C1      -0.0155   4.4988   1.7174   C.ar      1 RES1   0.0000
     8 C2       0.3849   3.3124   2.2531   C.ar      1 RES1   0.0000
     9 C3       1.5109   2.7124   1.7926   C.ar      1 RES1   0.0000
    10 C4       2.2152   3.3343   0.7963   C.ar      1 RES1   0.0000
    11 C5       1.7452   4.5138   0.2774   C.ar      1 RES1   0.0000
    12 C6      -0.7425   6.4303  -2.7743   C.ar      1 RES1   0.0000
    13 C7      -0.6464   6.0193  -4.0659   C.ar      1 RES1   0.0000
    14 C8       0.4302   5.2810  -4.4534   C.ar      1 RES1   0.0000
    15 C9       1.4012   5.0084  -3.5335   C.ar      1 RES1   0.0000
    16 C10      1.2769   5.5029  -2.2621   C.ar      1 RES1   0.0000
    17 C11      2.0839   8.8413   0.4538   C.ar      1 RES1   0.0000
    18 C12      3.2976   9.4427   0.3740   C.ar      1 RES1   0.0000
    19 C13      4.3369   8.7742  -0.2157   C.ar      1 RES1   0.0000
    20 C14      4.1201   7.5016  -0.6616   C.ar      1 RES1   0.0000
    21 C15      2.8734   6.9509  -0.5279   C.ar      1 RES1   0.0000
    22 H1      -0.8013   4.9042   2.0633   H         1 RES1   0.0000
    23 H2      -0.1227   2.9056   2.9461   H         1 RES1   0.0000
    24 H3       1.8041   1.8822   2.1520   H         1 RES1   0.0000
    25 H4       3.0215   2.9535   0.4684   H         1 RES1   0.0000
    26 H5      -1.5222   6.9029  -2.5070   H         1 RES1   0.0000
    27 H6      -1.3230   6.2440  -4.6927   H         1 RES1   0.0000
    28 H7       0.5031   4.9604  -5.3453   H         1 RES1   0.0000
    29 H8       2.1554   4.4823  -3.7728   H         1 RES1   0.0000
    30 H9       1.3698   9.3276   0.8491   H         1 RES1   0.0000
    31 H10      3.4242  10.3167   0.7233   H         1 RES1   0.0000
    32 H11      5.1872   9.1865  -0.3122   H         1 RES1   0.0000
    33 H12      4.8254   7.0043  -1.0592   H         1 RES1   0.0000
    34 N1B     -0.6361   8.5756  -0.7312   N.ar      1 RES1   0.0000
    35 C1B      0.0155   9.2002  -1.7174   C.ar      1 RES1   0.0000
    36 C2B     -0.3849  10.3866  -2.2531   C.ar      1 RES1   0.0000
    37 C3B     -1.5109  10.9866  -1.7926   C.ar      1 RES1   0.0000
    38 C4B     -2.2152  10.3647  -0.7963   C.ar      1 RES1   0.0000
    39 C5B     -1.7452   9.1852  -0.2774   C.ar      1 RES1   0.0000
    40 P1B     -2.6119   8.4267   1.0906   P.3       1 RES1   0.0000
    41 O1B     -3.7499   9.0619   1.5781   O.2       1 RES1   0.0000
    42 C10B    -1.2769   8.1961   2.2621   C.ar      1 RES1   0.0000
    43 N2B     -0.2054   7.4975   1.8622   N.ar      1 RES1   0.0000
    44 N3B     -1.8338   6.0919  -0.0079   N.ar      1 RES1   0.0000
    45 C11B    -2.0839   4.8577  -0.4538   C.ar      1 RES1   0.0000
    46 C12B    -3.2976   4.2563  -0.3740   C.ar      1 RES1   0.0000
    47 C13B    -4.3369   4.9248   0.2157   C.ar      1 RES1   0.0000
    48 C14B    -4.1201   6.1974   0.6616   C.ar      1 RES1   0.0000
    49 C15B    -2.8734   6.7481   0.5279   C.ar      1 RES1   0.0000
    50 H12B    -4.8254   6.6947   1.0592   H         1 RES1   0.0000
    51 H11B    -5.1872   4.5125   0.3122   H         1 RES1   0.0000
    52 H10B    -3.4242   3.3823  -0.7233   H         1 RES1   0.0000
    53 H9B     -1.3698   4.3714  -0.8491   H         1 RES1   0.0000
    54 C6B      0.7425   7.2687   2.7743   C.ar      1 RES1   0.0000
    55 C7B      0.6464   7.6797   4.0659   C.ar      1 RES1   0.0000
    56 C8B     -0.4302   8.4180   4.4534   C.ar      1 RES1   0.0000
    57 C9B     -1.4012   8.6906   3.5335   C.ar      1 RES1   0.0000
    58 H8B     -2.1554   9.2167   3.7728   H         1 RES1   0.0000
    59 H7B     -0.5031   8.7386   5.3453   H         1 RES1   0.0000
    60 H6B      1.3230   7.4550   4.6927   H         1 RES1   0.0000
    61 H5B      1.5222   6.7961   2.5070   H         1 RES1   0.0000
    62 H4B     -3.0215  10.7455  -0.4684   H         1 RES1   0.0000
    63 H3B     -1.8041  11.8168  -2.1520   H         1 RES1   0.0000
    64 H2B      0.1227  10.7934  -2.9461   H         1 RES1   0.0000
    65 H1B      0.8013   8.7948  -2.0633   H         1 RES1   0.0000
    66 O2       9.9253   2.5686   8.7047   O.3       2 RES2  -1.0000
    67 O3       9.2912   0.7397   7.8533   O.2       2 RES2   0.0000
    68 O4       8.5229   1.3713   9.6774   O.2       2 RES2   0.0000
    69 N4       9.2518   1.5617   8.7395   N.pl3     2 RES2   0.0000
    70 N5       2.9953   1.4398   9.4213   N.1       3 RES3   0.0000
    71 C16      2.0460   0.8973   9.6706   C.1       3 RES3   0.0000
    72 C17      0.8996   0.1877  10.0188   C.3       3 RES3   0.0000
    73 H13      0.1891   0.7959  10.1873   H         3 RES3   0.0000
    74 H14      0.6579  -0.3918   9.3067   H         3 RES3   0.0000
    75 H15      1.0698  -0.3247  10.8006   H         3 RES3   0.0000
@<TRIPOS>BOND
     1     1     4    1
     2     2     3    2
     3     4     7   ar
     4     5     1    1
     5     6     1    1
     6     7     8   ar
     7     8     9   ar
     8     9    10   ar
     9    10    11   ar
    10    11     2    1
    11    12     5   ar
    12    13    12   ar
    13    14    13   ar
    14    15    14   ar
    15    16     2    1
    16    17     6   ar
    17    18    17   ar
    18    19    18   ar
    19    20    19   ar
    20    21     2    1
    21    22     7    1
    22    23     8    1
    23    24     9    1
    24    25    10    1
    25    26    12    1
    26    27    13    1
    27    28    14    1
    28    29    15    1
    29    30    17    1
    30    31    18    1
    31    32    19    1
    32    33    20    1
    33    34     1    1
    34    35    34   ar
    35    36    35   ar
    36    37    36   ar
    37    38    37   ar
    38    39    34   ar
    39    40    39    1
    40    41    40    2
    41    42    40    1
    42    43     1    1
    43    44     1    1
    44    45    44   ar
    45    46    45   ar
    46    47    46   ar
    47    48    47   ar
    48    49    40    1
    49    50    48    1
    50    51    47    1
    51    52    46    1
    52    53    45    1
    53    54    43   ar
    54    55    54   ar
    55    56    55   ar
    56    57    42   ar
    57    58    57    1
    58    59    56    1
    59    60    55    1
    60    61    54    1
    61    62    38    1
    62    63    37    1
    63    64    36    1
    64    65    35    1
    65     4    11   ar
    66     5    16   ar
    67     6    21   ar
    68    15    16   ar
    69    20    21   ar
    70    38    39   ar
    71    42    43   ar
    72    44    49   ar
    73    48    49   ar
    74    56    57   ar
    75    66    69    1
    76    67    69    2
    77    68    69    2
    78    70    71    3
    79    71    72    1
    80    72    73    1
    81    74    72    1
    82    75    72    1
@<TRIPOS>SUBSTRUCTURE
     1 RES1        1 GROUP             0 ****  ****    0  
     2 RES2       66 GROUP             0 ****  ****    0  
     3 RES3       70 GROUP             0 ****  ****    0  
@<TRIPOS>CRYSIN
   11.1290   13.6990   11.2390   90.0000   92.0400   90.0000   231     1
