@<TRIPOS>MOLECULE
XATNUE
    88    93     3     0     0
SMALL
USER_CHARGES
****
Generated from the CSD

@<TRIPOS>ATOM
     1 Fe1     -0.0014  15.9409  13.8856   Fe        1 RES1   0.0000
     2 N1       1.0417  13.4935  12.2537   N.1       1 RES1   0.0000
     3 N2       2.5101  15.9268  15.7033   N.1       1 RES1   0.0000
     4 C1       1.5839  15.9084  15.0266   C.1       1 RES1  -1.0000
     5 C2       0.6790  14.4363  12.8160   C.1       1 RES1   0.0000
     6 N1A      1.5980  18.0656  12.2537   N.1       1 RES1   0.0000
     7 N2A     -1.2435  18.1206  15.7033   N.1       1 RES1   0.0000
     8 C1A     -0.7645  17.3277  15.0266   C.1       1 RES1  -1.0000
     9 C2A      0.9629  17.2801  12.8160   C.1       1 RES1  -1.0000
    10 N1B     -2.6397  16.2613  12.2537   N.1       1 RES1   0.0000
    11 N2B     -1.2666  13.7730  15.7033   N.1       1 RES1   0.0000
    12 C1B     -0.8194  14.5843  15.0266   C.1       1 RES1   0.0000
    13 C2B     -1.6419  16.1040  12.8160   C.1       1 RES1   0.0000
    14 P1       2.8667   6.8680   6.0257   P.3       2 RES2   1.0000
    15 C3       0.9981  10.5803   4.1394   C.ar      2 RES2   0.0000
    16 H1       0.6571  11.3573   3.7108   H         2 RES2   0.0000
    17 C4       0.6875   9.3632   3.6585   C.ar      2 RES2   0.0000
    18 H2       0.1132   9.2867   2.9062   H         2 RES2   0.0000
    19 C5       1.2024   8.2069   4.2535   C.ar      2 RES2   0.0000
    20 H3       0.9746   7.3500   3.9130   H         2 RES2   0.0000
    21 C6       2.0465   8.3267   5.3453   C.ar      2 RES2   0.0000
    22 C7       4.5692   7.3435   6.3421   C.ar      2 RES2   0.0000
    23 C8       5.2031   8.1785   5.4182   C.ar      2 RES2   0.0000
    24 H4       4.7087   8.5718   4.7101   H         2 RES2   0.0000
    25 C9       6.5645   8.4281   5.5448   C.ar      2 RES2   0.0000
    26 H5       7.0017   8.9950   4.9216   H         2 RES2   0.0000
    27 C10      7.2751   7.8605   6.5665   C.ar      2 RES2   0.0000
    28 H6       8.2082   8.0243   6.6376   H         2 RES2   0.0000
    29 C11      2.9130   3.4512   3.0123   C.ar      2 RES2   0.0000
    30 H7       2.9252   2.7282   2.3972   H         2 RES2   0.0000
    31 C12      4.0839   4.0906   3.3366   C.ar      2 RES2   0.0000
    32 H8       4.8979   3.8113   2.9342   H         2 RES2   0.0000
    33 C13      4.0943   5.1390   4.2417   C.ar      2 RES2   0.0000
    34 H9       4.9089   5.5711   4.4669   H         2 RES2   0.0000
    35 C14      2.8948   5.5510   4.8162   C.ar      2 RES2   0.0000
    36 C15      1.8098  10.7127   5.2566   C.ar      2 RES2   0.0000
    37 H10      1.9989  11.5773   5.6046   H         2 RES2   0.0000
    38 C16      2.3484   9.5794   5.8741   C.ar      2 RES2   0.0000
    39 H11      2.9086   9.6621   6.6357   H         2 RES2   0.0000
    40 C17      2.0355   6.2413   7.4900   C.ar      2 RES2   0.0000
    41 C18      1.9188   4.8719   7.6957   C.ar      2 RES2   0.0000
    42 H12      2.3192   4.2656   7.0830   H         2 RES2   0.0000
    43 C19      1.2246   4.3868   8.7865   C.ar      2 RES2   0.0000
    44 H13      1.1361   3.4502   8.9150   H         2 RES2   0.0000
    45 C20      0.6588   5.2660   9.6916   C.ar      2 RES2   0.0000
    46 H14      0.1905   4.9351  10.4495   H         2 RES2   0.0000
    47 C21      0.7751   6.6148   9.4933   C.ar      2 RES2   0.0000
    48 H15      0.3838   7.2161  10.1164   H         2 RES2   0.0000
    49 C22      1.4591   7.1200   8.3873   C.ar      2 RES2   0.0000
    50 H16      1.5295   8.0577   8.2526   H         2 RES2   0.0000
    51 C23      6.6484   7.0504   7.5022   C.ar      2 RES2   0.0000
    52 H17      7.1452   6.6805   8.2208   H         2 RES2   0.0000
    53 C24      5.2873   6.7797   7.3833   C.ar      2 RES2   0.0000
    54 H18      4.8551   6.2143   8.0112   H         2 RES2   0.0000
    55 C25      1.7060   4.9002   4.4867   C.ar      2 RES2   0.0000
    56 H19      0.8876   5.1718   4.8860   H         2 RES2   0.0000
    57 C26      1.7209   3.8534   3.5750   C.ar      2 RES2   0.0000
    58 H20      0.9111   3.4144   3.3403   H         2 RES2   0.0000
    59 N3       5.0730  19.2350   9.6329   N.1       3 RES3   0.0000
    60 N4       4.0398  11.4028   9.0498   N.1       3 RES3   0.0000
    61 C27      4.0254  18.8216   9.4843   C.1       3 RES3   0.0000
    62 C28      2.6788  18.2930   9.3533   C.ar      3 RES3   0.0000
    63 C29      1.3183  16.4999   9.3185   C.ar      3 RES3   0.0000
    64 N5       2.2210  14.2770   9.2683   N.ar      3 RES3   0.0000
    65 C30      1.1305  15.0570   9.3101   C.ar      3 RES3   0.0000
    66 N6       2.5679  16.9791   9.3653   N.ar      3 RES3   0.0000
    67 C31      1.9934  12.9794   9.2786   C.ar      3 RES3   0.0000
    68 C32      3.1491  12.1024   9.1714   C.1       3 RES3   0.0000
    69 N3A     -5.3900  18.6860   9.6329   N.1       3 RES3   0.0000
    70 N4A      1.9096  21.7073   9.0498   N.1       3 RES3   0.0000
    71 C27A    -4.5082  17.9855   9.4843   C.1       3 RES3   0.0000
    72 C28A    -3.3770  17.0836   9.3533   C.ar      3 RES3   0.0000
    73 C29A    -1.1440  16.8019   9.3185   C.ar      3 RES3   0.0000
    74 N5A      0.3298  18.6951   9.2683   N.ar      3 RES3   0.0000
    75 C30A     0.1996  17.3607   9.3101   C.ar      3 RES3   0.0000
    76 N6A     -2.1837  17.6445   9.3653   N.ar      3 RES3   0.0000
    77 C31A     1.5674  19.1468   9.2786   C.ar      3 RES3   0.0000
    78 C32A     1.7490  20.5862   9.1714   C.1       3 RES3   0.0000
    79 N3B      0.3170   9.8993   9.6329   N.1       3 RES3   0.0000
    80 N4B     -5.9493  14.7103   9.0498   N.1       3 RES3   0.0000
    81 C27B     0.4827  11.0133   9.4843   C.1       3 RES3   0.0000
    82 C28B     0.6982  12.4438   9.3533   C.ar      3 RES3   0.0000
    83 C29B    -0.1744  14.5185   9.3185   C.ar      3 RES3   0.0000
    84 N5B     -2.5508  14.8482   9.2683   N.ar      3 RES3   0.0000
    85 C30B    -1.3301  15.4027   9.3101   C.ar      3 RES3   0.0000
    86 N6B     -0.3842  13.1967   9.3653   N.ar      3 RES3   0.0000
    87 C31B    -3.5607  15.6942   9.2786   C.ar      3 RES3   0.0000
    88 C32B    -4.8981  15.1318   9.1714   C.1       3 RES3   0.0000
@<TRIPOS>BOND
     1     1     4    1
     2     2     5    3
     3     3     4    3
     4     5     1    1
     5     6     9    3
     6     7     8    3
     7     8     1    1
     8     9     1    1
     9    10    13    3
    10    11    12    3
    11    12     1    1
    12    13     1    1
    13    14    21    1
    14    15    16    1
    15    17    15   ar
    16    18    17    1
    17    19    17   ar
    18    20    19    1
    19    21    19   ar
    20    22    14    1
    21    23    22   ar
    22    24    23    1
    23    25    23   ar
    24    26    25    1
    25    27    25   ar
    26    28    27    1
    27    29    30    1
    28    31    29   ar
    29    32    31    1
    30    33    31   ar
    31    34    33    1
    32    35    14    1
    33    36    15   ar
    34    37    36    1
    35    38    21   ar
    36    39    38    1
    37    40    14    1
    38    41    40   ar
    39    42    41    1
    40    43    41   ar
    41    44    43    1
    42    45    43   ar
    43    46    45    1
    44    47    45   ar
    45    48    47    1
    46    49    40   ar
    47    50    49    1
    48    51    27   ar
    49    52    51    1
    50    53    22   ar
    51    54    53    1
    52    55    35   ar
    53    56    55    1
    54    57    29   ar
    55    58    57    1
    56    33    35   ar
    57    36    38   ar
    58    47    49   ar
    59    51    53   ar
    60    55    57   ar
    61    59    61    3
    62    60    68    3
    63    61    62    1
    64    62    66   ar
    65    63    65   ar
    66    64    65   ar
    67    65    83   ar
    68    66    63   ar
    69    67    64   ar
    70    68    67    1
    71    69    71    3
    72    70    78    3
    73    71    72    1
    74    72    76   ar
    75    73    75   ar
    76    74    75   ar
    77    75    63   ar
    78    76    73   ar
    79    77    62   ar
    80    78    77    1
    81    79    81    3
    82    80    88    3
    83    81    82    1
    84    82    67   ar
    85    83    85   ar
    86    84    85   ar
    87    85    73   ar
    88    86    82   ar
    89    87    72   ar
    90    88    87    1
    91    74    77   ar
    92    83    86   ar
    93    84    87   ar
@<TRIPOS>SUBSTRUCTURE
     1 RES1        1 GROUP             0 ****  ****    0  
     2 RES2       14 GROUP             0 ****  ****    0  
     3 RES3       59 GROUP             0 ****  ****    0  
@<TRIPOS>CRYSIN
   27.6091   27.6091   18.7133   90.0000   90.0000  120.0000   236     1
