@<TRIPOS>MOLECULE
XATPEQ
   191   199     8     0     0
SMALL
USER_CHARGES
****
Generated from the CSD

@<TRIPOS>ATOM
     1 As1      1.9818   2.6706   9.1776   As        1 RES1   1.0000
     2 C1       5.8675   4.0651   9.6885   C.ar      1 RES1   0.0000
     3 H1       6.3782   4.8185   9.4139   H         1 RES1   0.0000
     4 C2       4.3970   1.8628  10.5107   C.ar      1 RES1   0.0000
     5 H2       3.8890   1.1122  10.7943   H         1 RES1   0.0000
     6 C3       2.3280   4.8847   5.6912   C.ar      1 RES1   0.0000
     7 H3       2.8238   4.8323   4.8840   H         1 RES1   0.0000
     8 C4       4.5297   3.9547   9.3044   C.ar      1 RES1   0.0000
     9 H4       4.1199   4.6225   8.7672   H         1 RES1   0.0000
    10 C5       2.4474   3.8885   6.6380   C.ar      1 RES1   0.0000
    11 H5       3.0388   3.1571   6.4940   H         1 RES1   0.0000
    12 C6       1.6974   3.9657   7.8009   C.ar      1 RES1   0.0000
    13 C7       0.7798   6.0548   7.0867   C.ar      1 RES1   0.0000
    14 H6       0.2161   6.8055   7.2397   H         1 RES1   0.0000
    15 C8       1.5758  -0.1490   9.4994   C.ar      1 RES1   0.0000
    16 H7       1.7323   0.0276  10.4207   H         1 RES1   0.0000
    17 C9       1.3442   0.6458   7.2337   C.ar      1 RES1   0.0000
    18 H8       1.3505   1.3605   6.6080   H         1 RES1   0.0000
    19 C10      1.3320  -1.4406   9.0673   C.ar      1 RES1   0.0000
    20 H9       1.3227  -2.1526   9.6945   H         1 RES1   0.0000
    21 C11      1.5882   0.8831   8.5826   C.ar      1 RES1   0.0000
    22 C12     -0.4325   2.4286  10.7088   C.ar      1 RES1   0.0000
    23 H10     -0.6374   1.6972  10.1356   H         1 RES1   0.0000
    24 C13      1.0985   4.1617  11.4395   C.ar      1 RES1   0.0000
    25 H11      1.9388   4.6005  11.3720   H         1 RES1   0.0000
    26 C14     -1.3409   2.8646  11.6751   C.ar      1 RES1   0.0000
    27 H12     -2.1728   2.4148  11.7756   H         1 RES1   0.0000
    28 C15      0.8789   5.0531   8.0590   C.ar      1 RES1   0.0000
    29 H13      0.3983   5.1165   8.8752   H         1 RES1   0.0000
    30 C16      1.1019  -1.6972   7.7394   C.ar      1 RES1   0.0000
    31 H14      0.9510  -2.5886   7.4483   H         1 RES1   0.0000
    32 C17      1.4834   5.9610   5.9178   C.ar      1 RES1   0.0000
    33 H15      1.3942   6.6372   5.2576   H         1 RES1   0.0000
    34 C18      6.4530   3.0854  10.4642   C.ar      1 RES1   0.0000
    35 H16      7.3655   3.1682  10.7163   H         1 RES1   0.0000
    36 C19     -1.0491   3.9464  12.4883   C.ar      1 RES1   0.0000
    37 H17     -1.6825   4.2472  13.1290   H         1 RES1   0.0000
    38 C20      1.0920  -0.6568   6.8181   C.ar      1 RES1   0.0000
    39 H18      0.9108  -0.8362   5.9028   H         1 RES1   0.0000
    40 C21      5.7273   1.9870  10.8768   C.ar      1 RES1   0.0000
    41 H19      6.1360   1.3192  11.4125   H         1 RES1   0.0000
    42 C22      3.8137   2.8536   9.7215   C.ar      1 RES1   0.0000
    43 C23      0.1655   4.5812  12.3653   C.ar      1 RES1   0.0000
    44 H20      0.3634   5.3235  12.9265   H         1 RES1   0.0000
    45 C24      0.7924   3.1019  10.6158   C.ar      1 RES1   0.0000
    46 As2      1.8023  13.4719  14.2530   As        2 RES2   1.0000
    47 C25     -0.4043  14.2154  10.8363   C.ar      2 RES2   0.0000
    48 H21     -0.9326  13.6910  10.2481   H         2 RES2   0.0000
    49 C26     -0.1949  15.5649  10.5647   C.ar      2 RES2   0.0000
    50 H22     -0.5914  15.9623   9.7980   H         2 RES2   0.0000
    51 C27      0.4709  12.3829  15.0871   C.ar      2 RES2   0.0000
    52 C28      0.4600  10.9892  15.0316   C.ar      2 RES2   0.0000
    53 H23      1.1420  10.5256  14.5590   H         2 RES2   0.0000
    54 C29      0.5878  16.3266  11.4095   C.ar      2 RES2   0.0000
    55 H24      0.7311  17.2456  11.2159   H         2 RES2   0.0000
    56 C30      3.7989  15.9264  17.7039   C.ar      2 RES2   0.0000
    57 H25      4.2126  16.4038  18.4137   H         2 RES2   0.0000
    58 C31     -1.5518  12.3498  16.3655   C.ar      2 RES2   0.0000
    59 H26     -2.2451  12.8079  16.8262   H         2 RES2   0.0000
    60 C32     -0.5465  10.2772  15.6663   C.ar      2 RES2   0.0000
    61 H27     -0.5472   9.3279  15.6543   H         2 RES2   0.0000
    62 C33      2.5945  13.9974  16.9102   C.ar      2 RES2   0.0000
    63 H28      2.1875  13.1556  17.0737   H         2 RES2   0.0000
    64 C34      2.5741  14.5465  15.6348   C.ar      2 RES2   0.0000
    65 C35      3.7800  16.4618  16.4360   C.ar      2 RES2   0.0000
    66 H29      4.1634  17.3173  16.2800   H         2 RES2   0.0000
    67 C36      3.1822  12.4353  13.4051   C.ar      2 RES2   0.0000
    68 C37      5.1235  10.9920  12.0667   C.ar      2 RES2   0.0000
    69 H30      5.7743  10.4842  11.5971   H         2 RES2   0.0000
    70 C38      3.2068  15.7663  15.3857   C.ar      2 RES2   0.0000
    71 H31      3.2465  16.1141  14.5020   H         2 RES2   0.0000
    72 C39      0.9488  14.4086  12.8019   C.ar      2 RES2   0.0000
    73 C40      4.6346  10.5560  13.2836   C.ar      2 RES2   0.0000
    74 H32      4.9542   9.7363  13.6422   H         2 RES2   0.0000
    75 C41      0.1613  13.6413  11.9647   C.ar      2 RES2   0.0000
    76 H33      0.0087  12.7251  12.1597   H         2 RES2   0.0000
    77 C42      3.7006  11.2735  13.9858   C.ar      2 RES2   0.0000
    78 H34      3.4123  10.9892  14.8456   H         2 RES2   0.0000
    79 C43      1.1713  15.7636  12.5394   C.ar      2 RES2   0.0000
    80 H35      1.7076  16.2907  13.1215   H         2 RES2   0.0000
    81 C44      3.2181  14.6873  17.9470   C.ar      2 RES2   0.0000
    82 H36      3.2437  14.3147  18.8203   H         2 RES2   0.0000
    83 C45     -0.5448  13.0618  15.7398   C.ar      2 RES2   0.0000
    84 H37     -0.5499  14.0111  15.7578   H         2 RES2   0.0000
    85 C46      3.6769  12.8935  12.1957   C.ar      2 RES2   0.0000
    86 H38      3.3412  13.6993  11.8161   H         2 RES2   0.0000
    87 C47     -1.5477  10.9672  16.3160   C.ar      2 RES2   0.0000
    88 H39     -2.2456  10.4815  16.7376   H         2 RES2   0.0000
    89 C48      4.6532  12.1732  11.5490   C.ar      2 RES2   0.0000
    90 H40      5.0101  12.4988  10.7298   H         2 RES2   0.0000
    91 As3     14.0080   3.5460   0.2308   As        3 RES3   1.0000
    92 C49     15.2509   2.2906  -0.4952   C.ar      3 RES3   0.0000
    93 C50     11.5099   2.3651  -0.4426   C.ar      3 RES3   0.0000
    94 H41     11.7119   2.6521  -1.3249   H         3 RES3   0.0000
    95 C51     14.2956   5.1938  -2.1397   C.ar      3 RES3   0.0000
    96 H42     14.9748   4.5812  -2.3992   H         3 RES3   0.0000
    97 C52     14.9094   0.9493  -0.4982   C.ar      3 RES3   0.0000
    98 H43     14.0509   0.6679  -0.1966   H         3 RES3   0.0000
    99 C53     15.6595   3.4579   2.5568   C.ar      3 RES3   0.0000
   100 H44     16.0388   2.6907   2.1457   H         3 RES3   0.0000
   101 C54     17.0554   0.4388  -1.4119   C.ar      3 RES3   0.0000
   102 H45     17.6808  -0.2042  -1.7255   H         3 RES3   0.0000
   103 C55     12.3702   2.6245   0.5972   C.ar      3 RES3   0.0000
   104 C56     13.0152   7.1836  -2.5118   C.ar      3 RES3   0.0000
   105 H46     12.8225   7.9480  -3.0414   H         3 RES3   0.0000
   106 C57     14.5369   5.6933   3.7527   C.ar      3 RES3   0.0000
   107 H47     14.1659   6.4633   4.1638   H         3 RES3   0.0000
   108 C58     14.6984   4.2003   1.8981   C.ar      3 RES3   0.0000
   109 C59     15.4719   4.9372   4.4294   C.ar      3 RES3   0.0000
   110 H48     15.7089   5.1690   5.3191   H         3 RES3   0.0000
   111 C60     12.5808   5.8644  -0.5702   C.ar      3 RES3   0.0000
   112 H49     12.0831   5.6961   0.2236   H         3 RES3   0.0000
   113 C61     10.3352   1.6696  -0.1741   C.ar      3 RES3   0.0000
   114 H50      9.7250   1.4765  -0.8778   H         3 RES3   0.0000
   115 C62     14.1405   5.3373   2.4923   C.ar      3 RES3   0.0000
   116 H51     13.4947   5.8534   2.0271   H         3 RES3   0.0000
   117 C63     16.4912   2.7404  -0.9468   C.ar      3 RES3   0.0000
   118 H52     16.7196   3.6622  -0.9273   H         3 RES3   0.0000
   119 C64     10.9213   1.5372   2.1337   C.ar      3 RES3   0.0000
   120 H53     10.7151   1.2557   3.0159   H         3 RES3   0.0000
   121 C65     12.0871   2.2243   1.8891   C.ar      3 RES3   0.0000
   122 H54     12.6903   2.4175   2.5973   H         3 RES3   0.0000
   123 C66     17.3840   1.7855  -1.4284   C.ar      3 RES3   0.0000
   124 H55     18.2252   2.0615  -1.7720   H         3 RES3   0.0000
   125 C67     15.8298   0.0276  -0.9438   C.ar      3 RES3   0.0000
   126 H56     15.6172  -0.8997  -0.9288   H         3 RES3   0.0000
   127 C68     14.0106   6.2894  -2.9304   C.ar      3 RES3   0.0000
   128 H57     14.4809   6.4329  -3.7436   H         3 RES3   0.0000
   129 C69     12.3124   6.9711  -1.3474   C.ar      3 RES3   0.0000
   130 H58     11.6422   7.5893  -1.0788   H         3 RES3   0.0000
   131 C70     13.5909   4.9951  -0.9723   C.ar      3 RES3   0.0000
   132 C71     10.0538   1.2640   1.1118   C.ar      3 RES3   0.0000
   133 H59      9.2521   0.7865   1.2904   H         3 RES3   0.0000
   134 C72     16.0689   3.8471   3.8262   C.ar      3 RES3   0.0000
   135 H60     16.7506   3.3669   4.2778   H         3 RES3   0.0000
   136 Fe1      4.1060   7.0423   2.2036   Fe        4 RES4   0.0000
   137 N1       1.1769   5.9831   2.2342   N.1       4 RES4   0.0000
   138 N2       5.1804   4.4029   3.4286   N.1       4 RES4   0.0000
   139 C73      3.5302   8.6656   1.2574   C.1       4 RES4   0.0000
   140 N3       6.9974   8.1037   2.4953   N.1       4 RES4   0.0000
   141 N4       3.4454   8.4972   4.8810   N.1       4 RES4   0.0000
   142 N5       4.9092   5.6354  -0.4531   N.1       4 RES4   0.0000
   143 N6       3.1868   9.6072   0.7112   N.1       4 RES4   0.0000
   144 C74      5.9271   7.7272   2.3602   C.1       4 RES4  -1.0000
   145 C75      4.5726   6.1652   0.4997   C.1       4 RES4   0.0000
   146 C76      3.6958   7.9453   3.9057   C.1       4 RES4  -1.0000
   147 C77      2.2644   6.3501   2.1832   C.1       4 RES4   0.0000
   148 C78      4.7577   5.3953   3.0309   C.1       4 RES4  -1.0000
   149 N7       6.1070   9.1667   6.8631   N.ar      5 RES5   0.0000
   150 N8       4.8932   6.6794   7.4318   N.ar      5 RES5   0.0000
   151 N9       8.6212   1.0597   4.4234   N.1       5 RES5   0.0000
   152 N10      8.2988   4.4484   4.9200   N.ar      5 RES5   0.0000
   153 N11     10.4213  11.5522   3.8877   N.1       5 RES5   0.0000
   154 N12     11.9664   8.1578   2.3647   N.1       5 RES5   0.0000
   155 N13      3.9817  11.1962   8.6382   N.1       5 RES5   0.0000
   156 N14      5.8739   4.4012   6.3875   N.ar      5 RES5   0.0000
   157 N15      2.3338   7.7024   9.4364   N.1       5 RES5   0.0000
   158 N16      9.4094   6.8654   4.2298   N.ar      5 RES5   0.0000
   159 N17      8.2830   9.2663   5.2231   N.ar      5 RES5   0.0000
   160 N18      4.9350   1.1950   5.9553   N.1       5 RES5   0.0000
   161 C79      7.7708   8.0557   5.5232   C.ar      5 RES5   0.0000
   162 C80      6.5472   5.5443   6.1339   C.ar      5 RES5   0.0000
   163 C81      3.2431   7.7521   8.7567   C.1       5 RES5   0.0000
   164 C82      4.4774  10.2690   8.1820   C.1       5 RES5   0.0000
   165 C83      8.2180   2.0753   4.7565   C.1       5 RES5   0.0000
   166 C84      5.0374   9.0547   7.6208   C.ar      5 RES5   0.0000
   167 C85      4.4130   7.8238   7.9164   C.ar      5 RES5   0.0000
   168 C86      6.4196   3.3117   5.8788   C.ar      5 RES5   0.0000
   169 C87      6.6004   8.0115   6.3710   C.ar      5 RES5   0.0000
   170 C88      7.7245   5.5857   5.3747   C.ar      5 RES5   0.0000
   171 C89      8.3329   6.8634   5.0250   C.ar      5 RES5   0.0000
   172 C90      5.9890   6.7779   6.6756   C.ar      5 RES5   0.0000
   173 C91      9.3401   9.2534   4.4354   C.ar      5 RES5   0.0000
   174 C92      7.6501   3.3310   5.1976   C.ar      5 RES5   0.0000
   175 C93     11.0467   8.1026   3.0444   C.1       5 RES5   0.0000
   176 C94      9.9280  10.5449   4.1248   C.1       5 RES5   0.0000
   177 C95      9.9001   8.0639   3.9372   C.ar      5 RES5   0.0000
   178 C96      5.6223   2.1057   5.9643   C.1       5 RES5   0.0000
   179 O1       2.2625  12.2863   0.3421   O.3       6 RES6   0.0000
   180 N19      9.2288   6.8083  -0.0435   N.1       7 RES7   0.0000
   181 C97      8.0802   5.0034   1.3954   C.3       7 RES7   0.0000
   182 H61      8.3767   4.1258   1.0788   H         7 RES7   0.0000
   183 H62      7.1083   5.0724   1.3069   H         7 RES7   0.0000
   184 H63      8.3311   5.1138   2.3362   H         7 RES7   0.0000
   185 C98      8.7129   6.0438   0.6002   C.1       7 RES7   0.0000
   186 N20     12.7279   2.7211   5.1136   N.1       8 RES8   0.0000
   187 C99     11.8093   4.8930   6.1954   C.3       8 RES8   0.0000
   188 H64     11.2875   5.3898   5.5307   H         8 RES8   0.0000
   189 H65     12.5559   5.4505   6.5045   H         8 RES8   0.0000
   190 H66     11.2372   4.6639   6.9576   H         8 RES8   0.0000
   191 C100    12.3260   3.6815   5.5967   C.1       8 RES8   0.0000
@<TRIPOS>BOND
     1     1    12    1
     2     2     3    1
     3     4     5    1
     4     6     7    1
     5     8     2   ar
     6     9     8    1
     7    10     6   ar
     8    11    10    1
     9    12    10   ar
    10    13    14    1
    11    15    16    1
    12    17    18    1
    13    19    15   ar
    14    20    19    1
    15    21     1    1
    16    22    23    1
    17    24    25    1
    18    26    22   ar
    19    27    26    1
    20    28    12   ar
    21    29    28    1
    22    30    19   ar
    23    31    30    1
    24    32     6   ar
    25    33    32    1
    26    34     2   ar
    27    35    34    1
    28    36    26   ar
    29    37    36    1
    30    38    17   ar
    31    39    38    1
    32    40     4   ar
    33    41    40    1
    34    42     1    1
    35    43    24   ar
    36    44    43    1
    37    45     1    1
    38     4    42   ar
    39     8    42   ar
    40    13    28   ar
    41    13    32   ar
    42    15    21   ar
    43    17    21   ar
    44    22    45   ar
    45    24    45   ar
    46    30    38   ar
    47    34    40   ar
    48    36    43   ar
    49    46    51    1
    50    47    48    1
    51    49    47   ar
    52    50    49    1
    53    51    52   ar
    54    52    53    1
    55    54    49   ar
    56    55    54    1
    57    56    57    1
    58    58    59    1
    59    60    52   ar
    60    61    60    1
    61    62    63    1
    62    64    46    1
    63    65    56   ar
    64    66    65    1
    65    67    46    1
    66    68    69    1
    67    70    64   ar
    68    71    70    1
    69    72    46    1
    70    73    68   ar
    71    74    73    1
    72    75    47   ar
    73    76    75    1
    74    77    67   ar
    75    78    77    1
    76    79    54   ar
    77    80    79    1
    78    81    56   ar
    79    82    81    1
    80    83    51   ar
    81    84    83    1
    82    85    67   ar
    83    86    85    1
    84    87    58   ar
    85    88    87    1
    86    89    68   ar
    87    90    89    1
    88    58    83   ar
    89    60    87   ar
    90    62    64   ar
    91    62    81   ar
    92    65    70   ar
    93    72    75   ar
    94    72    79   ar
    95    73    77   ar
    96    85    89   ar
    97    91    92    1
    98    92    97   ar
    99    93    94    1
   100    95    96    1
   101    97    98    1
   102    99   100    1
   103   101   102    1
   104   103    91    1
   105   104   105    1
   106   106   107    1
   107   108    91    1
   108   109   106   ar
   109   110   109    1
   110   111   112    1
   111   113    93   ar
   112   114   113    1
   113   115   106   ar
   114   116   115    1
   115   117    92   ar
   116   118   117    1
   117   119   120    1
   118   121   103   ar
   119   122   121    1
   120   123   101   ar
   121   124   123    1
   122   125    97   ar
   123   126   125    1
   124   127    95   ar
   125   128   127    1
   126   129   104   ar
   127   130   129    1
   128   131    91    1
   129   132   113   ar
   130   133   132    1
   131   134    99   ar
   132   135   134    1
   133    93   103   ar
   134    95   131   ar
   135    99   108   ar
   136   101   125   ar
   137   104   127   ar
   138   108   115   ar
   139   109   134   ar
   140   111   129   ar
   141   111   131   ar
   142   117   123   ar
   143   119   121   ar
   144   119   132   ar
   145   136   139    1
   146   137   147    3
   147   138   148    3
   148   139   143    3
   149   140   144    3
   150   141   146    3
   151   142   145    3
   152   144   136    1
   153   145   136    1
   154   146   136    1
   155   147   136    1
   156   148   136    1
   157   149   166   ar
   158   150   167   ar
   159   151   165    3
   160   152   170   ar
   161   153   176    3
   162   154   175    3
   163   155   164    3
   164   156   162   ar
   165   157   163    3
   166   158   171   ar
   167   159   161   ar
   168   160   178    3
   169   161   169   ar
   170   162   170   ar
   171   163   167    1
   172   164   166    1
   173   165   174    1
   174   166   167   ar
   175   168   156   ar
   176   169   149   ar
   177   170   171   ar
   178   171   161   ar
   179   172   150   ar
   180   173   159   ar
   181   174   152   ar
   182   175   177    1
   183   176   173    1
   184   177   158   ar
   185   178   168    1
   186   162   172   ar
   187   168   174   ar
   188   169   172   ar
   189   173   177   ar
   190   180   185    3
   191   181   182    1
   192   183   181    1
   193   184   181    1
   194   185   181    1
   195   186   191    3
   196   187   188    1
   197   189   187    1
   198   190   187    1
   199   191   187    1
@<TRIPOS>SUBSTRUCTURE
     1 RES1        1 GROUP             0 ****  ****    0  
     2 RES2       46 GROUP             0 ****  ****    0  
     3 RES3       91 GROUP             0 ****  ****    0  
     4 RES4      136 GROUP             0 ****  ****    0  
     5 RES5      149 GROUP             0 ****  ****    0  
     6 RES6      179 GROUP             0 ****  ****    0  
     7 RES7      180 GROUP             0 ****  ****    0  
     8 RES8      186 GROUP             0 ****  ****    0  
@<TRIPOS>CRYSIN
   20.9359   27.5973   17.7530   90.0000  122.3080   90.0000     9     1
