@<TRIPOS>MOLECULE
XAXVEY
    98   108     2     0     0
SMALL
USER_CHARGES
****
Generated from the CSD

@<TRIPOS>ATOM
     1 Fe1      1.5790   1.1915  16.2582   Fe        1 RES1   1.0000
     2 Cl1     -0.2312   6.7154  12.9688   Cl        1 RES1   0.0000
     3 O1       0.4779   2.0638  14.9537   O.3       1 RES1   0.0000
     4 O2       2.6903   2.7593  16.1461   O.3       1 RES1   0.0000
     5 N1       2.6211   0.0740  17.8342   N.3       1 RES1   0.0000
     6 N2       0.2941  -0.4787  16.4239   N.ar      1 RES1   0.0000
     7 N3       0.6956   1.9358  18.0571   N.ar      1 RES1   0.0000
     8 N4       2.8935  -0.1019  15.1746   N.ar      1 RES1   0.0000
     9 C1       0.8608   3.3530  14.8099   C.ar      1 RES1   0.0000
    10 C2       2.0467   3.7288  15.4610   C.ar      1 RES1   0.0000
    11 C3       2.4659   5.0530  15.3933   C.ar      1 RES1   0.0000
    12 C4       1.7515   5.9644  14.6380   C.ar      1 RES1   0.0000
    13 C5       0.6223   5.5657  13.9814   C.ar      1 RES1   0.0000
    14 C6       0.1481   4.2764  14.0631   C.ar      1 RES1   0.0000
    15 C7       1.8768  -1.1933  18.1296   C.3       1 RES1   0.0000
    16 C8       0.6672  -1.4371  17.2725   C.ar      1 RES1   0.0000
    17 C9      -0.0452  -2.6094  17.4084   C.ar      1 RES1   0.0000
    18 C10     -1.1906  -2.7873  16.6503   C.ar      1 RES1   0.0000
    19 C11     -1.5879  -1.7899  15.7935   C.ar      1 RES1   0.0000
    20 C12     -0.8278  -0.6616  15.7005   C.ar      1 RES1   0.0000
    21 C13      2.6714   0.9614  19.0221   C.3       1 RES1   0.0000
    22 C14      1.3680   1.6880  19.1895   C.ar      1 RES1   0.0000
    23 C15      0.9130   2.1327  20.4183   C.ar      1 RES1   0.0000
    24 C16     -0.2370   2.8653  20.4718   C.ar      1 RES1   0.0000
    25 C17     -0.9390   3.1161  19.3304   C.ar      1 RES1   0.0000
    26 C18     -0.4548   2.6414  18.1355   C.ar      1 RES1   0.0000
    27 C19      3.9771  -0.2239  17.3154   C.3       1 RES1   0.0000
    28 C20      3.8801  -0.6746  15.8823   C.ar      1 RES1   0.0000
    29 C21      4.7650  -1.5591  15.2919   C.ar      1 RES1   0.0000
    30 C22      4.6349  -1.8429  13.9419   C.ar      1 RES1   0.0000
    31 C23      3.6131  -1.2682  13.2345   C.ar      1 RES1   0.0000
    32 C24      2.7723  -0.4088  13.8743   C.ar      1 RES1   0.0000
    33 H1       3.2424   5.3308  15.8640   H         1 RES1   0.0000
    34 H2       2.0439   6.8659  14.5760   H         1 RES1   0.0000
    35 H3      -0.6510   4.0236  13.6150   H         1 RES1   0.0000
    36 H4       2.4752  -1.9208  18.0087   H         1 RES1   0.0000
    37 H5       1.5951  -1.1653  19.0373   H         1 RES1   0.0000
    38 H6       0.2453  -3.2850  18.0087   H         1 RES1   0.0000
    39 H7      -1.6942  -3.5898  16.7207   H         1 RES1   0.0000
    40 H8      -2.3792  -1.8839  15.2749   H         1 RES1   0.0000
    41 H9      -1.1004   0.0230  15.1030   H         1 RES1   0.0000
    42 H10      2.8382   0.4377  19.7982   H         1 RES1   0.0000
    43 H11      3.3708   1.5940  18.9105   H         1 RES1   0.0000
    44 H12      1.3939   1.9318  21.2130   H         1 RES1   0.0000
    45 H13     -0.5469   3.1991  21.3060   H         1 RES1   0.0000
    46 H14     -1.7499   3.6098  19.3614   H         1 RES1   0.0000
    47 H15     -0.9423   2.8153  17.3379   H         1 RES1   0.0000
    48 H16      4.5143   0.5597  17.3633   H         1 RES1   0.0000
    49 H17      4.3730  -0.9115  17.8367   H         1 RES1   0.0000
    50 H18      5.4534  -1.9658  15.8048   H         1 RES1   0.0000
    51 H19      5.2466  -2.4305  13.5135   H         1 RES1   0.0000
    52 H20      3.4932  -1.4651  12.3130   H         1 RES1   0.0000
    53 H21      2.0677  -0.0090  13.3783   H         1 RES1   0.0000
    54 C25      7.4181   3.4599  18.7865   C.ar      2 RES2   0.0000
    55 C26      6.2557   3.4569  17.9974   C.ar      2 RES2   0.0000
    56 C27      6.0960   4.3344  16.9293   C.ar      2 RES2   0.0000
    57 C28      7.0944   5.2259  16.6080   C.ar      2 RES2   0.0000
    58 C29      8.2281   5.2409  17.3379   C.ar      2 RES2   0.0000
    59 C30      8.3849   4.3874  18.4173   C.ar      2 RES2   0.0000
    60 C31      8.0276   0.9634  18.9469   C.ar      2 RES2   0.0000
    61 C32      7.2873  -0.2059  18.8665   C.ar      2 RES2   0.0000
    62 C33      7.6179  -1.2492  18.0030   C.ar      2 RES2   0.0000
    63 C34      8.7047  -1.1473  17.1730   C.ar      2 RES2   0.0000
    64 C35      9.4687   0.0020  17.2114   C.ar      2 RES2   0.0000
    65 C36      9.1356   1.0254  18.0833   C.ar      2 RES2   0.0000
    66 C37      8.9507   2.5884  20.8779   C.ar      2 RES2   0.0000
    67 C38      9.8958   1.6250  21.2372   C.ar      2 RES2   0.0000
    68 C39     10.9308   1.8829  22.1233   C.ar      2 RES2   0.0000
    69 C40     11.0618   3.1371  22.6785   C.ar      2 RES2   0.0000
    70 C41     10.1594   4.1135  22.3572   C.ar      2 RES2   0.0000
    71 C42      9.1250   3.8397  21.4779   C.ar      2 RES2   0.0000
    72 C43      6.4085   2.0008  20.8886   C.ar      2 RES2   0.0000
    73 C44      6.4108   0.9224  21.7879   C.ar      2 RES2   0.0000
    74 C45      5.3670   0.6576  22.6644   C.ar      2 RES2   0.0000
    75 C46      4.2690   1.4811  22.6954   C.ar      2 RES2   0.0000
    76 C47      4.2445   2.5785  21.8697   C.ar      2 RES2   0.0000
    77 C48      5.2869   2.8343  20.9830   C.ar      2 RES2   0.0000
    78 B1       7.6859   2.2666  19.8856   B         2 RES2  -1.0000
    79 H22      5.5612   2.8413  18.2003   H         2 RES2   0.0000
    80 H23      5.2938   4.3174  16.4192   H         2 RES2   0.0000
    81 H24      6.9860   5.8245  15.8781   H         2 RES2   0.0000
    82 H25      8.9258   5.8435  17.1096   H         2 RES2   0.0000
    83 H26      9.1861   4.4373  18.9246   H         2 RES2   0.0000
    84 H27      6.5230  -0.2998  19.4234   H         2 RES2   0.0000
    85 H28      7.0857  -2.0358  17.9917   H         2 RES2   0.0000
    86 H29      8.9288  -1.8559  16.5798   H         2 RES2   0.0000
    87 H30     10.2209   0.0909  16.6390   H         2 RES2   0.0000
    88 H31      9.6813   1.8029  18.0988   H         2 RES2   0.0000
    89 H32      9.8256   0.7565  20.8607   H         2 RES2   0.0000
    90 H33     11.5476   1.1963  22.3460   H         2 RES2   0.0000
    91 H34     11.7725   3.3230  23.2788   H         2 RES2   0.0000
    92 H35     10.2435   4.9800  22.7349   H         2 RES2   0.0000
    93 H36      8.5074   4.5313  21.2722   H         2 RES2   0.0000
    94 H37      7.1647   0.3448  21.7964   H         2 RES2   0.0000
    95 H38      5.4138  -0.0939  23.2422   H         2 RES2   0.0000
    96 H39      3.5405   1.2962  23.2788   H         2 RES2   0.0000
    97 H40      3.5034   3.1721  21.9035   H         2 RES2   0.0000
    98 H41      5.2348   3.5998  20.4239   H         2 RES2   0.0000
@<TRIPOS>BOND
     1     1     3    1
     2     2    13    1
     3     3     9    1
     4     4     1    1
     5     5     1    1
     6     6     1    1
     7     7     1    1
     8     8     1    1
     9     9    10   ar
    10    10     4    1
    11    11    10   ar
    12    12    11   ar
    13    13    12   ar
    14    14     9   ar
    15    15     5    1
    16    16     6   ar
    17    17    16   ar
    18    18    17   ar
    19    19    18   ar
    20    20     6   ar
    21    21     5    1
    22    22     7   ar
    23    23    22   ar
    24    24    23   ar
    25    25    24   ar
    26    26     7   ar
    27    27     5    1
    28    28     8   ar
    29    29    28   ar
    30    30    29   ar
    31    31    30   ar
    32    32     8   ar
    33    33    11    1
    34    34    12    1
    35    35    14    1
    36    36    15    1
    37    37    15    1
    38    38    17    1
    39    39    18    1
    40    40    19    1
    41    41    20    1
    42    42    21    1
    43    43    21    1
    44    44    23    1
    45    45    24    1
    46    46    25    1
    47    47    26    1
    48    48    27    1
    49    49    27    1
    50    50    29    1
    51    51    30    1
    52    52    31    1
    53    53    32    1
    54    13    14   ar
    55    15    16    1
    56    19    20   ar
    57    21    22    1
    58    25    26   ar
    59    27    28    1
    60    31    32   ar
    61    54    55   ar
    62    55    56   ar
    63    56    57   ar
    64    57    58   ar
    65    58    59   ar
    66    59    54   ar
    67    60    61   ar
    68    61    62   ar
    69    62    63   ar
    70    63    64   ar
    71    64    65   ar
    72    65    60   ar
    73    66    67   ar
    74    67    68   ar
    75    68    69   ar
    76    69    70   ar
    77    70    71   ar
    78    71    66   ar
    79    72    73   ar
    80    73    74   ar
    81    74    75   ar
    82    75    76   ar
    83    76    77   ar
    84    77    72   ar
    85    78    54    1
    86    79    55    1
    87    80    56    1
    88    81    57    1
    89    82    58    1
    90    83    59    1
    91    84    61    1
    92    85    62    1
    93    86    63    1
    94    87    64    1
    95    88    65    1
    96    89    67    1
    97    90    68    1
    98    91    69    1
    99    92    70    1
   100    93    71    1
   101    94    73    1
   102    95    74    1
   103    96    75    1
   104    97    76    1
   105    98    77    1
   106    60    78    1
   107    66    78    1
   108    72    78    1
@<TRIPOS>SUBSTRUCTURE
     1 RES1        1 GROUP             0 ****  ****    0  
     2 RES2       54 GROUP             0 ****  ****    0  
@<TRIPOS>CRYSIN
   14.0070    9.9940   28.4190   90.0000   97.3960   90.0000    14     1
