@<TRIPOS>MOLECULE
XAYBIL
    99   106     1     0     0
SMALL
NO_CHARGES
****
Generated from the CSD

@<TRIPOS>ATOM
     1 Fe1      9.3008  10.6776   9.0195   Fe        1 RES1   0.0000
     2 P1      10.3790  12.4589   9.8728   P.3       1 RES1   0.0000
     3 P2       8.6301   8.9632   7.6984   P.3       1 RES1   0.0000
     4 O1       7.9962   9.8374  11.4778   O.2       1 RES1   0.0000
     5 O2       6.9258  12.1278   8.0987   O.2       1 RES1   0.0000
     6 N1      10.1705  11.2826   7.3625   N.2       1 RES1   0.0000
     7 C1       8.5312  10.1541  10.5109   C.1       1 RES1   0.0000
     8 C2      11.0761  12.3011   7.2538   C.2       1 RES1   0.0000
     9 C3      11.0196   9.6662   9.5316   C.ar      1 RES1   0.0000
    10 C4       9.4521   7.3318   7.9590   C.3       1 RES1   0.0000
    11 H1      10.4118   7.5511   8.1373   H         1 RES1   0.0000
    12 C5       7.8558  11.5853   8.4824   C.1       1 RES1   0.0000
    13 C6      12.1654   9.6963   8.7198   C.ar      1 RES1   0.0000
    14 H2      12.1130  10.1120   7.8667   H         1 RES1   0.0000
    15 C7      10.0272  10.7016   6.1345   C.2       1 RES1   0.0000
    16 C8       6.7980   8.7624   7.5387   C.3       1 RES1   0.0000
    17 H3       6.4784   9.6161   7.1271   H         1 RES1   0.0000
    18 C9       8.1700  13.6094  11.1629   C.3       1 RES1   0.0000
    19 H4       7.5266  13.0789  10.6290   H         1 RES1   0.0000
    20 H5       8.4580  13.0589  11.9341   H         1 RES1   0.0000
    21 C10     11.5061  12.2557  11.3277   C.3       1 RES1   0.0000
    22 H6      12.1199  11.5014  11.0955   H         1 RES1   0.0000
    23 C11     11.1634   8.9760  10.7496   C.ar      1 RES1   0.0000
    24 H7      10.4066   8.8890  11.3178   H         1 RES1   0.0000
    25 C12      9.4835   6.3045   6.8146   C.3       1 RES1   0.0000
    26 H8       8.5697   5.9620   6.6462   H         1 RES1   0.0000
    27 H9       9.8121   6.7358   5.9864   H         1 RES1   0.0000
    28 C13      4.8306   7.7580   6.3426   C.3       1 RES1   0.0000
    29 H10      4.6173   8.6227   5.9115   H         1 RES1   0.0000
    30 H11      4.5452   7.0320   5.7326   H         1 RES1   0.0000
    31 C14      6.0428   8.6570   8.8682   C.3       1 RES1   0.0000
    32 H12      6.2756   7.8041   9.3143   H         1 RES1   0.0000
    33 H13      6.3134   9.3998   9.4641   H         1 RES1   0.0000
    34 C15      9.3909  13.9590  10.2958   C.3       1 RES1   0.0000
    35 H14      9.9805  14.5432  10.8538   H         1 RES1   0.0000
    36 C16      8.9522   6.6573   9.2437   C.3       1 RES1   0.0000
    37 H15      8.9357   7.3182   9.9813   H         1 RES1   0.0000
    38 H16      8.0284   6.3265   9.1065   H         1 RES1   0.0000
    39 C17     12.3697   8.4154  11.1545   C.ar      1 RES1   0.0000
    40 H17     12.4240   7.9655  11.9897   H         1 RES1   0.0000
    41 C18     11.5379  12.9478   8.5202   C.3       1 RES1   0.0000
    42 H18     11.5425  13.9325   8.4177   H         1 RES1   0.0000
    43 H19     12.4567  12.6512   8.7367   H         1 RES1   0.0000
    44 C19     11.5143  12.3724   5.9410   C.2       1 RES1   0.0000
    45 H20     12.1474  12.9874   5.5876   H         1 RES1   0.0000
    46 C20     10.8223  11.8499  12.6359   C.3       1 RES1   0.0000
    47 H21     10.2571  12.5947  12.9612   H         1 RES1   0.0000
    48 H22     10.2382  11.0671  12.4755   H         1 RES1   0.0000
    49 C21     10.8404  11.3582   5.2280   C.2       1 RES1   0.0000
    50 H23     10.9273  11.1636   4.3019   H         1 RES1   0.0000
    51 C22     13.4896   8.5078  10.3501   C.ar      1 RES1   0.0000
    52 H24     14.3211   8.1468  10.6339   H         1 RES1   0.0000
    53 C23     12.4081  13.4679  11.5854   C.3       1 RES1   0.0000
    54 H25     12.8485  13.7411  10.7426   H         1 RES1   0.0000
    55 H26     11.8621  14.2270  11.9075   H         1 RES1   0.0000
    56 C24      4.5319   8.7163   8.6306   C.3       1 RES1   0.0000
    57 H27      4.0606   8.5978   9.4932   H         1 RES1   0.0000
    58 H28      4.2926   9.6078   8.2727   H         1 RES1   0.0000
    59 C25     13.3767   9.1366   9.1231   C.ar      1 RES1   0.0000
    60 H29     14.1321   9.1868   8.5506   H         1 RES1   0.0000
    61 C26     13.4659  13.1192  12.6256   C.3       1 RES1   0.0000
    62 H30     14.0496  12.4016  12.2725   H         1 RES1   0.0000
    63 H31     14.0290  13.9142  12.7993   H         1 RES1   0.0000
    64 C27      6.3419   7.6635   6.5756   C.3       1 RES1   0.0000
    65 H32      6.5643   6.7757   6.9531   H         1 RES1   0.0000
    66 H33      6.8186   7.7591   5.7133   H         1 RES1   0.0000
    67 C28      9.0929   9.5469   6.0048   C.3       1 RES1   0.0000
    68 H34      9.5302   8.8141   5.5030   H         1 RES1   0.0000
    69 H35      8.2810   9.8225   5.5103   H         1 RES1   0.0000
    70 C29      9.9583   4.4748   8.4878   C.3       1 RES1   0.0000
    71 H36     10.6060   3.7673   8.7319   H         1 RES1   0.0000
    72 H37      9.0749   4.0485   8.3476   H         1 RES1   0.0000
    73 C30      7.4955  14.8751  11.6642   C.3       1 RES1   0.0000
    74 H38      6.7018  14.6347  12.2048   H         1 RES1   0.0000
    75 H39      8.1229  15.3768  12.2435   H         1 RES1   0.0000
    76 C31     10.4066   5.1482   7.1987   C.3       1 RES1   0.0000
    77 H40     10.4169   4.4811   6.4673   H         1 RES1   0.0000
    78 H41     11.3294   5.4895   7.3132   H         1 RES1   0.0000
    79 C32      4.0685   7.6440   7.6537   C.3       1 RES1   0.0000
    80 H42      4.2187   6.7491   8.0479   H         1 RES1   0.0000
    81 H43      3.0983   7.7475   7.4848   H         1 RES1   0.0000
    82 C33      9.8604   5.4906   9.6246   C.3       1 RES1   0.0000
    83 H44      9.5028   5.0452  10.4333   H         1 RES1   0.0000
    84 H45     10.7641   5.8339   9.8388   H         1 RES1   0.0000
    85 C34     11.8681  11.5013  13.6935   C.3       1 RES1   0.0000
    86 H46     11.4136  11.2785  14.5442   H         1 RES1   0.0000
    87 H47     12.3776  10.7044  13.4011   H         1 RES1   0.0000
    88 C35     12.8299  12.6582  13.9246   C.3       1 RES1   0.0000
    89 H48     12.3415  13.4133  14.3364   H         1 RES1   0.0000
    90 H49     13.5393  12.3750  14.5539   H         1 RES1   0.0000
    91 C36      8.9508  14.7968   9.0975   C.3       1 RES1   0.0000
    92 H50      8.3394  14.2653   8.5264   H         1 RES1   0.0000
    93 H51      9.7416  15.0424   8.5554   H         1 RES1   0.0000
    94 C37      8.2351  16.0716   9.5739   C.3       1 RES1   0.0000
    95 H52      8.8824  16.6514  10.0490   H         1 RES1   0.0000
    96 H53      7.8995  16.5716   8.7874   H         1 RES1   0.0000
    97 C38      7.0674  15.7532  10.5026   C.3       1 RES1   0.0000
    98 H54      6.6897  16.5982  10.8538   H         1 RES1   0.0000
    99 H55      6.3581  15.2920   9.9886   H         1 RES1   0.0000
@<TRIPOS>BOND
     1     1     2    1
     2     2    21    1
     3     3     1    1
     4     4     7    3
     5     5    12    3
     6     6     1    1
     7     7     1    1
     8     8     6    1
     9     9     1    1
    10    10     3    1
    11    11    10    1
    12    12     1    1
    13    13     9   ar
    14    14    13    1
    15    15     6    1
    16    16     3    1
    17    17    16    1
    18    18    19    1
    19    20    18    1
    20    21    22    1
    21    23     9   ar
    22    24    23    1
    23    25    10    1
    24    26    25    1
    25    27    25    1
    26    28    29    1
    27    30    28    1
    28    31    16    1
    29    32    31    1
    30    33    31    1
    31    34     2    1
    32    35    34    1
    33    36    10    1
    34    37    36    1
    35    38    36    1
    36    39    23   ar
    37    40    39    1
    38    41     2    1
    39    42    41    1
    40    43    41    1
    41    44     8    2
    42    45    44    1
    43    46    21    1
    44    47    46    1
    45    48    46    1
    46    49    15    2
    47    50    49    1
    48    51    39   ar
    49    52    51    1
    50    53    21    1
    51    54    53    1
    52    55    53    1
    53    56    31    1
    54    57    56    1
    55    58    56    1
    56    59    13   ar
    57    60    59    1
    58    61    53    1
    59    62    61    1
    60    63    61    1
    61    64    16    1
    62    65    64    1
    63    66    64    1
    64    67     3    1
    65    68    67    1
    66    69    67    1
    67    70    71    1
    68    72    70    1
    69    73    18    1
    70    74    73    1
    71    75    73    1
    72    76    25    1
    73    77    76    1
    74    78    76    1
    75    79    28    1
    76    80    79    1
    77    81    79    1
    78    82    36    1
    79    83    82    1
    80    84    82    1
    81    85    46    1
    82    86    85    1
    83    87    85    1
    84    88    61    1
    85    89    88    1
    86    90    88    1
    87    91    34    1
    88    92    91    1
    89    93    91    1
    90    94    91    1
    91    95    94    1
    92    96    94    1
    93    97    73    1
    94    98    97    1
    95    99    97    1
    96     8    41    1
    97    15    67    1
    98    18    34    1
    99    28    64    1
   100    44    49    1
   101    51    59   ar
   102    56    79    1
   103    70    76    1
   104    70    82    1
   105    85    88    1
   106    94    97    1
@<TRIPOS>SUBSTRUCTURE
     1 RES1        1 GROUP             0 ****  ****    0  
@<TRIPOS>CRYSIN
   17.1840   16.6398   24.1679   90.0000   90.0000   90.0000    61     1
