@<TRIPOS>MOLECULE
XAZZED
    84    88     2     0     0
SMALL
NO_CHARGES
****
Generated from the CSD

@<TRIPOS>ATOM
     1 Cl1     -1.9179   0.7671   8.6668   Cl        1 RES1   0.0000
     2 Fe1      0.0000   0.0000   9.8085   Fe        1 RES1   0.0000
     3 P1       1.1569   1.7852   9.0768   P.3       1 RES1   0.0000
     4 P2       0.7848  -1.0258   7.9625   P.3       1 RES1   0.0000
     5 C1       2.4497   2.5091  10.1067   C.3       1 RES1   0.0000
     6 C2       3.1173   3.7636   9.5162   C.3       1 RES1   0.0000
     7 C3       2.1694   4.8627   9.1925   C.3       1 RES1   0.0000
     8 C4       1.1841   4.4630   8.0822   C.3       1 RES1   0.0000
     9 C5       0.2820   3.2595   8.5000   C.3       1 RES1   0.0000
    10 C6       2.0454   1.3100   7.5584   C.3       1 RES1   0.0000
    11 C7       2.1490   0.0111   7.3034   C.3       1 RES1   0.0000
    12 C8      -0.2871  -1.2323   6.5501   C.3       1 RES1   0.0000
    13 C9       0.3245  -1.9206   5.3221   C.3       1 RES1   0.0000
    14 C10      0.9785  -3.2640   5.6085   C.3       1 RES1   0.0000
    15 C11      2.0522  -3.1674   6.6541   C.3       1 RES1   0.0000
    16 C12      1.5816  -2.6523   8.0037   C.3       1 RES1   0.0000
    17 H1       2.0559   2.7545  10.9606   H         1 RES1   0.0000
    18 H2       3.1375   1.8439  10.2469   H         1 RES1   0.0000
    19 H3       3.7600   4.1031  10.1602   H         1 RES1   0.0000
    20 H4       3.5782   3.5129   8.7019   H         1 RES1   0.0000
    21 H5       1.6679   5.0883   9.9902   H         1 RES1   0.0000
    22 H6       2.6753   5.6359   8.8967   H         1 RES1   0.0000
    23 H7       0.6165   5.2217   7.8800   H         1 RES1   0.0000
    24 H8       1.6874   4.2143   7.2912   H         1 RES1   0.0000
    25 H9      -0.2526   3.0073   7.7303   H         1 RES1   0.0000
    26 H10     -0.3022   3.5585   9.2143   H         1 RES1   0.0000
    27 H11      1.5848   1.7205   6.8087   H         1 RES1   0.0000
    28 H12      2.9442   1.6707   7.6194   H         1 RES1   0.0000
    29 H13      2.9795  -0.3104   7.6914   H         1 RES1   0.0000
    30 H14      2.1767  -0.1109   6.3410   H         1 RES1   0.0000
    31 H15     -1.0495  -1.7624   6.8346   H         1 RES1   0.0000
    32 H16     -0.5863  -0.3546   6.2747   H         1 RES1   0.0000
    33 H17     -0.3819  -2.0642   4.6720   H         1 RES1   0.0000
    34 H18      0.9960  -1.3326   4.9462   H         1 RES1   0.0000
    35 H19      0.2980  -3.8831   5.9167   H         1 RES1   0.0000
    36 H20      1.3730  -3.5990   4.7879   H         1 RES1   0.0000
    37 H21      2.4274  -4.0518   6.7832   H         1 RES1   0.0000
    38 H22      2.7400  -2.5678   6.3253   H         1 RES1   0.0000
    39 H23      2.3530  -2.5963   8.5887   H         1 RES1   0.0000
    40 H24      0.9471  -3.2907   8.3653   H         1 RES1   0.0000
    41 Cl1D     1.9179  -0.7671  10.9502   Cl        1 RES1   0.0000
    42 P1D     -1.1569  -1.7852  10.5402   P.3       1 RES1   0.0000
    43 C1D     -2.4497  -2.5091   9.5103   C.3       1 RES1   0.0000
    44 C2D     -3.1173  -3.7636  10.1008   C.3       1 RES1   0.0000
    45 C3D     -2.1694  -4.8627  10.4245   C.3       1 RES1   0.0000
    46 C4D     -1.1841  -4.4630  11.5348   C.3       1 RES1   0.0000
    47 C5D     -0.2820  -3.2595  11.1170   C.3       1 RES1   0.0000
    48 C6D     -2.0454  -1.3100  12.0586   C.3       1 RES1   0.0000
    49 C7D     -2.1490  -0.0111  12.3136   C.3       1 RES1   0.0000
    50 P2D     -0.7848   1.0258  11.6545   P.3       1 RES1   0.0000
    51 C8D      0.2871   1.2323  13.0669   C.3       1 RES1   0.0000
    52 C9D     -0.3245   1.9206  14.2949   C.3       1 RES1   0.0000
    53 C10D    -0.9785   3.2640  14.0085   C.3       1 RES1   0.0000
    54 C11D    -2.0522   3.1674  12.9629   C.3       1 RES1   0.0000
    55 C12D    -1.5816   2.6523  11.6133   C.3       1 RES1   0.0000
    56 H23D    -2.3530   2.5963  11.0283   H         1 RES1   0.0000
    57 H24D    -0.9471   3.2907  11.2517   H         1 RES1   0.0000
    58 H21D    -2.4274   4.0518  12.8338   H         1 RES1   0.0000
    59 H22D    -2.7400   2.5678  13.2917   H         1 RES1   0.0000
    60 H19D    -0.2980   3.8831  13.7003   H         1 RES1   0.0000
    61 H20D    -1.3730   3.5990  14.8291   H         1 RES1   0.0000
    62 H17D     0.3819   2.0642  14.9450   H         1 RES1   0.0000
    63 H18D    -0.9960   1.3326  14.6708   H         1 RES1   0.0000
    64 H15D     1.0495   1.7624  12.7824   H         1 RES1   0.0000
    65 H16D     0.5863   0.3546  13.3423   H         1 RES1   0.0000
    66 H13D    -2.9795   0.3104  11.9256   H         1 RES1   0.0000
    67 H14D    -2.1767   0.1109  13.2760   H         1 RES1   0.0000
    68 H11D    -1.5848  -1.7205  12.8083   H         1 RES1   0.0000
    69 H12D    -2.9442  -1.6707  11.9976   H         1 RES1   0.0000
    70 H9D      0.2526  -3.0073  11.8867   H         1 RES1   0.0000
    71 H10D     0.3022  -3.5585  10.4027   H         1 RES1   0.0000
    72 H7D     -0.6165  -5.2217  11.7370   H         1 RES1   0.0000
    73 H8D     -1.6874  -4.2143  12.3258   H         1 RES1   0.0000
    74 H5D     -1.6679  -5.0883   9.6268   H         1 RES1   0.0000
    75 H6D     -2.6753  -5.6359  10.7203   H         1 RES1   0.0000
    76 H3D     -3.7600  -4.1031   9.4568   H         1 RES1   0.0000
    77 H4D     -3.5782  -3.5129  10.9151   H         1 RES1   0.0000
    78 H1D     -2.0559  -2.7545   8.6564   H         1 RES1   0.0000
    79 H2D     -3.1375  -1.8439   9.3701   H         1 RES1   0.0000
    80 Cl2      3.6083   0.8360  14.5460   Cl        2 RES2   0.0000
    81 Cl3      5.2935   1.6387  12.3764   Cl        2 RES2   0.0000
    82 Cl4      5.4956  -1.0114  13.4416   Cl        2 RES2   0.0000
    83 C13      4.4084   0.3109  13.0963   C.3       2 RES2   0.0000
    84 H25      3.7389   0.0067  12.4646   H         2 RES2   0.0000
@<TRIPOS>BOND
     1     1     2    1
     2     2     3    1
     3     3     5    1
     4     4     2    1
     5     5     6    1
     6     6     7    1
     7     7     8    1
     8     8     9    1
     9     9     3    1
    10    10     3    1
    11    11     4    1
    12    12     4    1
    13    13    12    1
    14    14    13    1
    15    15    14    1
    16    16     4    1
    17    17     5    1
    18    18     5    1
    19    19     6    1
    20    20     6    1
    21    21     7    1
    22    22     7    1
    23    23     8    1
    24    24     8    1
    25    25     9    1
    26    26     9    1
    27    27    10    1
    28    28    10    1
    29    29    11    1
    30    30    11    1
    31    31    12    1
    32    32    12    1
    33    33    13    1
    34    34    13    1
    35    35    14    1
    36    36    14    1
    37    37    15    1
    38    38    15    1
    39    39    16    1
    40    40    16    1
    41    41     2    1
    42    42     2    1
    43    43    42    1
    44    44    43    1
    45    45    44    1
    46    46    45    1
    47    47    42    1
    48    48    42    1
    49    49    48    1
    50    50     2    1
    51    51    50    1
    52    52    51    1
    53    53    52    1
    54    54    53    1
    55    55    50    1
    56    56    55    1
    57    57    55    1
    58    58    54    1
    59    59    54    1
    60    60    53    1
    61    61    53    1
    62    62    52    1
    63    63    52    1
    64    64    51    1
    65    65    51    1
    66    66    49    1
    67    67    49    1
    68    68    48    1
    69    69    48    1
    70    70    47    1
    71    71    47    1
    72    72    46    1
    73    73    46    1
    74    74    45    1
    75    75    45    1
    76    76    44    1
    77    77    44    1
    78    78    43    1
    79    79    43    1
    80    10    11    1
    81    15    16    1
    82    46    47    1
    83    49    50    1
    84    54    55    1
    85    80    83    1
    86    81    83    1
    87    82    83    1
    88    83    84    1
@<TRIPOS>SUBSTRUCTURE
     1 RES1        1 GROUP             0 ****  ****    0  
     2 RES2       80 GROUP             0 ****  ****    0  
@<TRIPOS>CRYSIN
   16.9880   11.1020   19.6170   90.0000   90.0000   90.0000    61     1
