@<TRIPOS>MOLECULE
XEBWOQ
    98   104     3     0     0
SMALL
USER_CHARGES
****
Generated from the CSD

@<TRIPOS>ATOM
     1 Fe1      3.4006   5.6019  18.2267   Fe        1 RES1   1.0000
     2 O1       4.1414   3.8710  18.3843   O.co2     1 RES1   0.0000
     3 O2       5.5431   2.5956  19.5658   O.co2     1 RES1   0.0000
     4 N1       4.7853   6.1622  19.5978   N.3       1 RES1   0.0000
     5 N2       2.0398   5.1734  19.6296   N.3       1 RES1   0.0000
     6 H1       2.3013   4.3916  20.0149   H         1 RES1   0.0000
     7 N3       2.0809   4.8467  16.9171   N.3       1 RES1   0.0000
     8 H2       1.6319   5.5526  16.5588   H         1 RES1   0.0000
     9 N4       4.7510   6.0887  16.8309   N.3       1 RES1   0.0000
    10 H3       4.4881   6.8944  16.4996   H         1 RES1   0.0000
    11 N5       2.4850   7.2720  17.9084   N.2       1 RES1   0.0000
    12 N6       2.6578   8.3829  18.3527   N.1       1 RES1   1.0000
    13 N7       2.7525   9.4695  18.7354   N.3       1 RES1  -1.0000
    14 C1       4.2983   6.9594  20.7707   C.3       1 RES1   0.0000
    15 H4       4.0093   7.8299  20.4557   H         1 RES1   0.0000
    16 H5       5.0398   7.0999  21.3800   H         1 RES1   0.0000
    17 C2       3.1555   6.3146  21.5373   C.3       1 RES1   0.0000
    18 H6       3.4394   5.4390  21.8430   H         1 RES1   0.0000
    19 H7       2.9644   6.8526  22.3218   H         1 RES1   0.0000
    20 C3       1.8805   6.1584  20.7327   C.3       1 RES1   0.0000
    21 H8       1.1659   5.8674  21.3200   H         1 RES1   0.0000
    22 H9       1.6302   7.0176  20.3601   H         1 RES1   0.0000
    23 C4       0.7606   4.8960  18.9350   C.3       1 RES1   0.0000
    24 H10      0.3309   5.7250  18.6737   H         1 RES1   0.0000
    25 H11      0.1592   4.4059  19.5175   H         1 RES1   0.0000
    26 C5       1.0974   4.0745  17.7196   C.3       1 RES1   0.0000
    27 H12      1.4783   3.2228  17.9856   H         1 RES1   0.0000
    28 H13      0.2978   3.9044  17.1970   H         1 RES1   0.0000
    29 C6       2.6284   4.0659  15.7820   C.3       1 RES1   0.0000
    30 H14      1.8996   3.7616  15.2191   H         1 RES1   0.0000
    31 H15      3.0911   3.2842  16.1224   H         1 RES1   0.0000
    32 C7       3.5884   4.8972  14.9550   C.3       1 RES1   0.0000
    33 H16      3.1584   5.7376  14.7286   H         1 RES1   0.0000
    34 H17      3.7724   4.4285  14.1260   H         1 RES1   0.0000
    35 C8       4.9114   5.1971  15.6534   C.3       1 RES1   0.0000
    36 H18      5.3139   4.3618  15.9412   H         1 RES1   0.0000
    37 H19      5.5166   5.6141  15.0202   H         1 RES1   0.0000
    38 C9       6.0520   6.3310  17.5083   C.3       1 RES1   0.0000
    39 H20      6.6130   6.9026  16.9609   H         1 RES1   0.0000
    40 H21      6.5162   5.4915  17.6519   H         1 RES1   0.0000
    41 C10      5.7600   7.0005  18.8344   C.3       1 RES1   0.0000
    42 H22      6.5806   7.0980  19.3425   H         1 RES1   0.0000
    43 H23      5.3885   7.8837  18.6833   H         1 RES1   0.0000
    44 C11      5.4567   4.9103  20.0926   C.3       1 RES1   0.0000
    45 H24      5.2331   4.7782  21.0272   H         1 RES1   0.0000
    46 H25      6.4186   5.0203  20.0302   H         1 RES1   0.0000
    47 C12      5.0451   3.6789  19.3036   C.2       1 RES1   0.0000
    48 B1       4.1020   9.3535  25.4576   B         2 RES2  -1.0000
    49 C13      5.6245   9.2998  24.8356   C.ar      2 RES2   0.0000
    50 C14      6.6738  10.1282  25.2477   C.ar      2 RES2   0.0000
    51 H26      6.4955  10.8078  25.8570   H         2 RES2   0.0000
    52 C15      7.9774   9.9708  24.7763   C.ar      2 RES2   0.0000
    53 H27      8.6474  10.5454  25.0694   H         2 RES2   0.0000
    54 C16      8.2807   8.9654  23.8762   C.ar      2 RES2   0.0000
    55 H28      9.1485   8.8621  23.5585   H         2 RES2   0.0000
    56 C17      7.2706   8.1125  23.4541   C.ar      2 RES2   0.0000
    57 H29      7.4599   7.4271  22.8548   H         2 RES2   0.0000
    58 C18      5.9810   8.2838  23.9273   C.ar      2 RES2   0.0000
    59 H30      5.3186   7.7018  23.6316   H         2 RES2   0.0000
    60 C19      2.9744   9.1780  24.2727   C.ar      2 RES2   0.0000
    61 C20      1.7292   8.5736  24.5043   C.ar      2 RES2   0.0000
    62 H31      1.5676   8.1994  25.3402   H         2 RES2   0.0000
    63 C21      0.7273   8.5081  23.5473   C.ar      2 RES2   0.0000
    64 H32     -0.0704   8.0697  23.7397   H         2 RES2   0.0000
    65 C22      0.9122   9.0927  22.3055   C.ar      2 RES2   0.0000
    66 H33      0.2442   9.0562  21.6602   H         2 RES2   0.0000
    67 C23      2.1108   9.7302  22.0433   C.ar      2 RES2   0.0000
    68 H34      2.2431  10.1447  21.2213   H         2 RES2   0.0000
    69 C24      3.1208   9.7575  23.0018   C.ar      2 RES2   0.0000
    70 H35      3.9235  10.1762  22.7919   H         2 RES2   0.0000
    71 C25      3.7092  10.8201  26.1084   C.ar      2 RES2   0.0000
    72 C26      2.8847  10.9665  27.2316   C.ar      2 RES2   0.0000
    73 H36      2.6441  10.2058  27.7092   H         2 RES2   0.0000
    74 C27      2.4100  12.2047  27.6648   C.ar      2 RES2   0.0000
    75 H37      1.8776  12.2576  28.4256   H         2 RES2   0.0000
    76 C28      2.7279  13.3524  26.9680   C.ar      2 RES2   0.0000
    77 H38      2.3973  14.1777  27.2429   H         2 RES2   0.0000
    78 C29      3.5448  13.2599  25.8527   C.ar      2 RES2   0.0000
    79 H39      3.7727  14.0268  25.3785   H         2 RES2   0.0000
    80 C30      4.0267  12.0184  25.4416   C.ar      2 RES2   0.0000
    81 H40      4.5798  11.9801  24.6956   H         2 RES2   0.0000
    82 C31      4.0512   8.1231  26.5487   C.ar      2 RES2   0.0000
    83 C32      3.7442   6.8014  26.1790   C.ar      2 RES2   0.0000
    84 H41      3.5238   6.6276  25.2922   H         2 RES2   0.0000
    85 C33      3.7553   5.7405  27.0834   C.ar      2 RES2   0.0000
    86 H42      3.5493   4.8812  26.7933   H         2 RES2   0.0000
    87 C34      4.0716   5.9645  28.4163   C.ar      2 RES2   0.0000
    88 H43      4.0547   5.2660  29.0301   H         2 RES2   0.0000
    89 C35      4.4138   7.2477  28.8169   C.ar      2 RES2   0.0000
    90 H44      4.6388   7.4111  29.7044   H         2 RES2   0.0000
    91 C36      4.4218   8.2915  27.8966   C.ar      2 RES2   0.0000
    92 H45      4.6831   9.1364  28.1844   H         2 RES2   0.0000
    93 C37      1.4795   0.9134  22.7480   C.3       3 RES3   0.0000
    94 H46      1.8038   0.0239  22.5904   H         3 RES3   0.0000
    95 H47      0.5199   0.9134  22.7219   H         3 RES3   0.0000
    96 H48      1.7769   1.2145  23.6099   H         3 RES3   0.0000
    97 C38      1.9936   1.8067  21.7182   C.1       3 RES3   0.0000
    98 N8       2.3940   2.5049  20.9158   N.1       3 RES3   0.0000
@<TRIPOS>BOND
     1     1     2    1
     2     2    47    1
     3     3    47    2
     4     4     1    1
     5     5     1    1
     6     6     5    1
     7     7     1    1
     8     8     7    1
     9     9     1    1
    10    10     9    1
    11    11     1    1
    12    12    11    2
    13    13    12    2
    14    14     4    1
    15    15    14    1
    16    16    14    1
    17    17    14    1
    18    18    17    1
    19    19    17    1
    20    20     5    1
    21    21    20    1
    22    22    20    1
    23    23     5    1
    24    24    23    1
    25    25    23    1
    26    26     7    1
    27    27    26    1
    28    28    26    1
    29    29     7    1
    30    30    29    1
    31    31    29    1
    32    32    29    1
    33    33    32    1
    34    34    32    1
    35    35     9    1
    36    36    35    1
    37    37    35    1
    38    38     9    1
    39    39    38    1
    40    40    38    1
    41    41     4    1
    42    42    41    1
    43    43    41    1
    44    44     4    1
    45    45    44    1
    46    46    44    1
    47    47    44    1
    48    17    20    1
    49    23    26    1
    50    32    35    1
    51    38    41    1
    52    48    49    1
    53    49    50   ar
    54    50    51    1
    55    52    50   ar
    56    53    52    1
    57    54    52   ar
    58    55    54    1
    59    56    54   ar
    60    57    56    1
    61    58    49   ar
    62    59    58    1
    63    60    48    1
    64    61    60   ar
    65    62    61    1
    66    63    61   ar
    67    64    63    1
    68    65    63   ar
    69    66    65    1
    70    67    65   ar
    71    68    67    1
    72    69    60   ar
    73    70    69    1
    74    71    48    1
    75    72    71   ar
    76    73    72    1
    77    74    72   ar
    78    75    74    1
    79    76    74   ar
    80    77    76    1
    81    78    76   ar
    82    79    78    1
    83    80    71   ar
    84    81    80    1
    85    82    48    1
    86    83    82   ar
    87    84    83    1
    88    85    83   ar
    89    86    85    1
    90    87    85   ar
    91    88    87    1
    92    89    87   ar
    93    90    89    1
    94    91    82   ar
    95    92    91    1
    96    56    58   ar
    97    67    69   ar
    98    78    80   ar
    99    89    91   ar
   100    93    94    1
   101    95    93    1
   102    96    93    1
   103    97    93    1
   104    98    97    3
@<TRIPOS>SUBSTRUCTURE
     1 RES1        1 GROUP             0 ****  ****    0  
     2 RES2       48 GROUP             0 ****  ****    0  
     3 RES3       93 GROUP             0 ****  ****    0  
@<TRIPOS>CRYSIN
   11.9450   12.5990   24.4550   90.0000  102.2000   90.0000   231     1
