@<TRIPOS>MOLECULE
XECNAU22
    79    86     1     0     0
SMALL
NO_CHARGES
****
Generated from the CSD

@<TRIPOS>ATOM
     1 Fe1      4.3361   4.1425   0.9793   Fe        1 RES1   0.0000
     2 S1       3.0058   7.1736  -2.4739   S.2       1 RES1   0.0000
     3 S2       6.6556   1.0556  -1.8049   S.2       1 RES1   0.0000
     4 N1       2.5295   3.1252   1.3394   N.ar      1 RES1   0.0000
     5 N2       3.9737   5.4720   2.6997   N.2       1 RES1   0.0000
     6 C1       2.7798   5.5510   3.4904   C.ar      1 RES1   0.0000
     7 C2       6.0832   2.6232   3.2233   C.ar      1 RES1   0.0000
     8 C3       3.3098   6.1342  -1.2626   C.1       1 RES1   0.0000
     9 N3       4.8040   2.7651   2.6103   N.2       1 RES1   0.0000
    10 C4       5.0211   6.0707   3.1104   C.2       1 RES1   0.0000
    11 H1       4.9998   6.5789   3.9011   H         1 RES1   0.0000
    12 C5       3.7762   2.1987   3.1160   C.2       1 RES1   0.0000
    13 H2       3.8505   1.6790   3.8961   H         1 RES1   0.0000
    14 N4       6.1612   5.1857   1.2478   N.ar      1 RES1   0.0000
    15 N5       5.1366   2.9090  -0.4183   N.2       1 RES1   0.0000
    16 C6       2.4900   2.3763   2.4576   C.ar      1 RES1   0.0000
    17 C7       0.4181   5.8195   3.5648   C.ar      1 RES1   0.0000
    18 H3      -0.4051   5.9639   3.1338   H         1 RES1   0.0000
    19 C8       1.5807   5.7647   2.8447   C.ar      1 RES1   0.0000
    20 H4       1.5614   5.8715   1.9117   H         1 RES1   0.0000
    21 C9       0.4716   5.6622   4.9288   C.ar      1 RES1   0.0000
    22 C10      1.3998   3.2555   0.6508   C.ar      1 RES1   0.0000
    23 H5       1.4184   3.7536  -0.1471   H         1 RES1   0.0000
    24 C11      7.1541   2.2810   2.4120   C.ar      1 RES1   0.0000
    25 H6       7.0114   2.0991   1.5010   H         1 RES1   0.0000
    26 C12      5.7669   2.1367  -1.0023   C.1       1 RES1   0.0000
    27 C13      1.6540   5.4427   5.5813   C.ar      1 RES1   0.0000
    28 H7       1.6717   5.3373   6.5160   H         1 RES1   0.0000
    29 C14      6.3029   2.9191   4.5536   C.ar      1 RES1   0.0000
    30 H8       5.5881   3.1732   5.1097   H         1 RES1   0.0000
    31 C15      6.2517   5.9567   2.3427   C.ar      1 RES1   0.0000
    32 C16      7.5986   2.8354   5.0623   C.ar      1 RES1   0.0000
    33 H9       7.7597   3.0260   5.9683   H         1 RES1   0.0000
    34 N6      10.1752   2.2117   5.8247   N.2       1 RES1   0.0000
    35 C17     14.1754   1.6920   7.0721   C.ar      1 RES1   0.0000
    36 H10     15.0504   1.5433   7.3814   H         1 RES1   0.0000
    37 N7       3.5112   5.4037  -0.3786   N.2       1 RES1   0.0000
    38 C18      1.3337   1.7960   2.9208   C.ar      1 RES1   0.0000
    39 H11      1.3364   1.2892   3.7135   H         1 RES1   0.0000
    40 C19      8.6412   2.4774   4.2459   C.ar      1 RES1   0.0000
    41 N8      10.0745   2.3518   4.6364   N.2       1 RES1   0.0000
    42 N9      -1.5980   5.6997   5.2905   N.2       1 RES1   0.0000
    43 N10     -0.7153   5.7935   5.9903   N.2       1 RES1   0.0000
    44 C20      0.1986   2.6939   1.0497   C.ar      1 RES1   0.0000
    45 H12     -0.5793   2.8109   0.5341   H         1 RES1   0.0000
    46 C21     11.6153   2.0645   6.2016   C.ar      1 RES1   0.0000
    47 C22      8.4163   2.2060   2.9275   C.ar      1 RES1   0.0000
    48 H13      9.1340   1.9663   2.3714   H         1 RES1   0.0000
    49 C23      2.7988   5.3792   4.8544   C.ar      1 RES1   0.0000
    50 H14      3.6157   5.2175   5.2905   H         1 RES1   0.0000
    51 C24      0.1641   1.9706   2.1990   C.ar      1 RES1   0.0000
    52 H15     -0.6426   1.5938   2.4999   H         1 RES1   0.0000
    53 C25     12.6738   2.3446   5.3396   C.ar      1 RES1   0.0000
    54 H16     12.5156   2.6535   4.4657   H         1 RES1   0.0000
    55 C26      7.2443   5.0876   0.4783   C.ar      1 RES1   0.0000
    56 H17      7.1988   4.5693  -0.3042   H         1 RES1   0.0000
    57 C27     13.1225   1.4451   7.8851   C.ar      1 RES1   0.0000
    58 H18     13.2748   1.1304   8.7573   H         1 RES1   0.0000
    59 C28     13.9718   2.1540   5.8061   C.ar      1 RES1   0.0000
    60 H19     14.7062   2.3431   5.2500   H         1 RES1   0.0000
    61 C29     -2.8440   5.8960   6.2709   C.ar      1 RES1   0.0000
    62 C30     11.8465   1.6458   7.4575   C.ar      1 RES1   0.0000
    63 H20     11.1258   1.4899   8.0406   H         1 RES1   0.0000
    64 C31      8.4240   5.7185   0.7877   C.ar      1 RES1   0.0000
    65 H21      9.1638   5.6318   0.2147   H         1 RES1   0.0000
    66 C32      7.4095   6.5904   2.7129   C.ar      1 RES1   0.0000
    67 H22      7.4426   7.1030   3.5005   H         1 RES1   0.0000
    68 C33     -5.1931   6.3104   7.5961   C.ar      1 RES1   0.0000
    69 H23     -6.0147   6.4490   8.0338   H         1 RES1   0.0000
    70 C34     -4.0086   5.6289   5.6522   C.ar      1 RES1   0.0000
    71 H24     -4.0139   5.3099   4.7682   H         1 RES1   0.0000
    72 C35     -5.1741   5.8238   6.3148   C.ar      1 RES1   0.0000
    73 H25     -5.9870   5.6188   5.8889   H         1 RES1   0.0000
    74 C36     -4.0164   6.5991   8.2417   C.ar      1 RES1   0.0000
    75 H26     -4.0226   6.9369   9.1173   H         1 RES1   0.0000
    76 C37     -2.8052   6.3811   7.5724   C.ar      1 RES1   0.0000
    77 H27     -1.9845   6.5601   7.9933   H         1 RES1   0.0000
    78 C38      8.5233   6.4663   1.9168   C.ar      1 RES1   0.0000
    79 H28      9.3301   6.8864   2.1483   H         1 RES1   0.0000
@<TRIPOS>BOND
     1     1     4    1
     2     2     8    2
     3     3    26    2
     4     4    16   ar
     5     5     1    1
     6     6     5    1
     7     7     9    1
     8     8    37    2
     9     9     1    1
    10    10     5    2
    11    11    10    1
    12    12     9    2
    13    13    12    1
    14    14     1    1
    15    15     1    1
    16    16    12    1
    17    17    18    1
    18    19     6   ar
    19    20    19    1
    20    21    17   ar
    21    22     4   ar
    22    23    22    1
    23    24     7   ar
    24    25    24    1
    25    26    15    2
    26    27    21   ar
    27    28    27    1
    28    29     7   ar
    29    30    29    1
    30    31    10    1
    31    32    29   ar
    32    33    32    1
    33    34    41    2
    34    35    36    1
    35    37     1    1
    36    38    16   ar
    37    39    38    1
    38    40    32   ar
    39    41    40    1
    40    42    43    2
    41    43    21    1
    42    44    22   ar
    43    45    44    1
    44    46    34    1
    45    47    24   ar
    46    48    47    1
    47    49     6   ar
    48    50    49    1
    49    51    38   ar
    50    52    51    1
    51    53    46   ar
    52    54    53    1
    53    55    14   ar
    54    56    55    1
    55    57    35   ar
    56    58    57    1
    57    59    35   ar
    58    60    59    1
    59    61    42    1
    60    62    46   ar
    61    63    62    1
    62    64    55   ar
    63    65    64    1
    64    66    31   ar
    65    67    66    1
    66    68    69    1
    67    70    61   ar
    68    71    70    1
    69    72    68   ar
    70    73    72    1
    71    74    68   ar
    72    75    74    1
    73    76    61   ar
    74    77    76    1
    75    78    64   ar
    76    79    78    1
    77    14    31   ar
    78    17    19   ar
    79    27    49   ar
    80    40    47   ar
    81    44    51   ar
    82    53    59   ar
    83    57    62   ar
    84    66    78   ar
    85    70    72   ar
    86    74    76   ar
@<TRIPOS>SUBSTRUCTURE
     1 RES1        1 GROUP             0 ****  ****    0  
@<TRIPOS>CRYSIN
   15.0861   14.4369   16.9270   90.0000   93.0730   90.0000    14     1
