@<TRIPOS>MOLECULE
XECNAU27
    79    86     1     0     0
SMALL
NO_CHARGES
****
Generated from the CSD

@<TRIPOS>ATOM
     1 Fe1      4.3419   4.1523   0.9651   Fe        1 RES1   0.0000
     2 S1       3.0013   7.1931  -2.4867   S.2       1 RES1   0.0000
     3 S2       6.6807   1.0547  -1.8051   S.2       1 RES1   0.0000
     4 N1       2.5226   3.1234   1.3368   N.ar      1 RES1   0.0000
     5 N2       3.9777   5.4845   2.7102   N.2       1 RES1   0.0000
     6 C1       2.7872   5.5666   3.5021   C.ar      1 RES1   0.0000
     7 C2       6.0838   2.6213   3.2378   C.ar      1 RES1   0.0000
     8 C3       3.3015   6.1549  -1.2758   C.1       1 RES1   0.0000
     9 N3       4.8061   2.7610   2.6192   N.2       1 RES1   0.0000
    10 C4       5.0247   6.0783   3.1311   C.2       1 RES1   0.0000
    11 H1       5.0045   6.5829   3.9223   H         1 RES1   0.0000
    12 C5       3.7773   2.1991   3.1260   C.2       1 RES1   0.0000
    13 H2       3.8467   1.6830   3.9087   H         1 RES1   0.0000
    14 N4       6.1770   5.2042   1.2514   N.ar      1 RES1   0.0000
    15 N5       5.1622   2.9192  -0.4366   N.2       1 RES1   0.0000
    16 C6       2.4857   2.3799   2.4618   C.ar      1 RES1   0.0000
    17 C7       0.4140   5.8369   3.5919   C.ar      1 RES1   0.0000
    18 H3      -0.4086   5.9872   3.1632   H         1 RES1   0.0000
    19 C8       1.5867   5.7761   2.8566   C.ar      1 RES1   0.0000
    20 H4       1.5634   5.8788   1.9213   H         1 RES1   0.0000
    21 C9       0.4684   5.6720   4.9558   C.ar      1 RES1   0.0000
    22 C10      1.3847   3.2546   0.6472   C.ar      1 RES1   0.0000
    23 H5       1.4009   3.7476  -0.1525   H         1 RES1   0.0000
    24 C11      7.1521   2.2772   2.4211   C.ar      1 RES1   0.0000
    25 H6       7.0096   2.0921   1.5113   H         1 RES1   0.0000
    26 C12      5.7914   2.1398  -1.0098   C.1       1 RES1   0.0000
    27 C13      1.6527   5.4552   5.5962   C.ar      1 RES1   0.0000
    28 H7       1.6745   5.3467   6.5298   H         1 RES1   0.0000
    29 C14      6.3061   2.9119   4.5695   C.ar      1 RES1   0.0000
    30 H8       5.5918   3.1635   5.1252   H         1 RES1   0.0000
    31 C15      6.2599   5.9598   2.3568   C.ar      1 RES1   0.0000
    32 C16      7.5984   2.8310   5.0829   C.ar      1 RES1   0.0000
    33 H9       7.7577   3.0218   5.9893   H         1 RES1   0.0000
    34 N6      10.1694   2.2165   5.8318   N.2       1 RES1   0.0000
    35 C17     14.1751   1.6974   7.0855   C.ar      1 RES1   0.0000
    36 H10     15.0480   1.5456   7.3956   H         1 RES1   0.0000
    37 N7       3.5000   5.4248  -0.3948   N.2       1 RES1   0.0000
    38 C18      1.3256   1.8087   2.9362   C.ar      1 RES1   0.0000
    39 H11      1.3277   1.3099   3.7325   H         1 RES1   0.0000
    40 C19      8.6364   2.4753   4.2696   C.ar      1 RES1   0.0000
    41 N8      10.0910   2.3509   4.6593   N.2       1 RES1   0.0000
    42 N9      -1.5885   5.7154   5.3133   N.2       1 RES1   0.0000
    43 N10     -0.7311   5.8065   6.0198   N.2       1 RES1   0.0000
    44 C20      0.1874   2.7008   1.0572   C.ar      1 RES1   0.0000
    45 H12     -0.5915   2.8165   0.5456   H         1 RES1   0.0000
    46 C21     11.6248   2.0690   6.2062   C.ar      1 RES1   0.0000
    47 C22      8.4180   2.2049   2.9481   C.ar      1 RES1   0.0000
    48 H13      9.1413   1.9678   2.3957   H         1 RES1   0.0000
    49 C23      2.8053   5.3959   4.8694   C.ar      1 RES1   0.0000
    50 H14      3.6229   5.2368   5.3065   H         1 RES1   0.0000
    51 C24      0.1579   1.9837   2.2144   C.ar      1 RES1   0.0000
    52 H15     -0.6502   1.6107   2.5211   H         1 RES1   0.0000
    53 C25     12.6769   2.3466   5.3557   C.ar      1 RES1   0.0000
    54 H16     12.5220   2.6517   4.4797   H         1 RES1   0.0000
    55 C26      7.2703   5.1067   0.4913   C.ar      1 RES1   0.0000
    56 H17      7.2327   4.5862  -0.2914   H         1 RES1   0.0000
    57 C27     13.1237   1.4545   7.8954   C.ar      1 RES1   0.0000
    58 H18     13.2756   1.1480   8.7714   H         1 RES1   0.0000
    59 C28     13.9774   2.1601   5.8284   C.ar      1 RES1   0.0000
    60 H19     14.7128   2.3553   5.2760   H         1 RES1   0.0000
    61 C29     -2.8276   5.9091   6.2977   C.ar      1 RES1   0.0000
    62 C30     11.8451   1.6454   7.4651   C.ar      1 RES1   0.0000
    63 H20     11.1220   1.4820   8.0428   H         1 RES1   0.0000
    64 C31      8.4449   5.7371   0.8082   C.ar      1 RES1   0.0000
    65 H21      9.1873   5.6634   0.2372   H         1 RES1   0.0000
    66 C32      7.4242   6.5988   2.7515   C.ar      1 RES1   0.0000
    67 H22      7.4538   7.1049   3.5428   H         1 RES1   0.0000
    68 C33     -5.1832   6.3198   7.6226   C.ar      1 RES1   0.0000
    69 H23     -6.0059   6.4571   8.0581   H         1 RES1   0.0000
    70 C34     -3.9939   5.6373   5.6894   C.ar      1 RES1   0.0000
    71 H24     -4.0004   5.3149   4.8067   H         1 RES1   0.0000
    72 C35     -5.1597   5.8267   6.3519   C.ar      1 RES1   0.0000
    73 H25     -5.9688   5.6142   5.9249   H         1 RES1   0.0000
    74 C36     -4.0054   6.6162   8.2698   C.ar      1 RES1   0.0000
    75 H26     -4.0092   6.9545   9.1475   H         1 RES1   0.0000
    76 C37     -2.7962   6.4022   7.5853   C.ar      1 RES1   0.0000
    77 H27     -1.9745   6.5930   8.0021   H         1 RES1   0.0000
    78 C38      8.5357   6.4701   1.9484   C.ar      1 RES1   0.0000
    79 H28      9.3460   6.8836   2.1856   H         1 RES1   0.0000
@<TRIPOS>BOND
     1     1     4    1
     2     2     8    2
     3     3    26    2
     4     4    16   ar
     5     5     1    1
     6     6     5    1
     7     7     9    1
     8     8    37    2
     9     9     1    1
    10    10     5    2
    11    11    10    1
    12    12     9    2
    13    13    12    1
    14    14     1    1
    15    15     1    1
    16    16    12    1
    17    17    18    1
    18    19     6   ar
    19    20    19    1
    20    21    17   ar
    21    22     4   ar
    22    23    22    1
    23    24     7   ar
    24    25    24    1
    25    26    15    2
    26    27    21   ar
    27    28    27    1
    28    29     7   ar
    29    30    29    1
    30    31    10    1
    31    32    29   ar
    32    33    32    1
    33    34    41    2
    34    35    36    1
    35    37     1    1
    36    38    16   ar
    37    39    38    1
    38    40    32   ar
    39    41    40    1
    40    42    43    2
    41    43    21    1
    42    44    22   ar
    43    45    44    1
    44    46    34    1
    45    47    24   ar
    46    48    47    1
    47    49     6   ar
    48    50    49    1
    49    51    38   ar
    50    52    51    1
    51    53    46   ar
    52    54    53    1
    53    55    14   ar
    54    56    55    1
    55    57    35   ar
    56    58    57    1
    57    59    35   ar
    58    60    59    1
    59    61    42    1
    60    62    46   ar
    61    63    62    1
    62    64    55   ar
    63    65    64    1
    64    66    31   ar
    65    67    66    1
    66    68    69    1
    67    70    61   ar
    68    71    70    1
    69    72    68   ar
    70    73    72    1
    71    74    68   ar
    72    75    74    1
    73    76    61   ar
    74    77    76    1
    75    78    64   ar
    76    79    78    1
    77    14    31   ar
    78    17    19   ar
    79    27    49   ar
    80    40    47   ar
    81    44    51   ar
    82    53    59   ar
    83    57    62   ar
    84    66    78   ar
    85    70    72   ar
    86    74    76   ar
@<TRIPOS>SUBSTRUCTURE
     1 RES1        1 GROUP             0 ****  ****    0  
@<TRIPOS>CRYSIN
   15.1045   14.4584   16.9678   90.0000   93.1030   90.0000    14     1
