@<TRIPOS>MOLECULE
XECNAU35
    79    86     1     0     0
SMALL
NO_CHARGES
****
Generated from the CSD

@<TRIPOS>ATOM
     1 Fe1      4.3697   4.1865   0.9411   Fe        1 RES1   0.0000
     2 S1       2.9801   7.2245  -2.4934   S.2       1 RES1   0.0000
     3 S2       6.6978   1.0582  -1.8122   S.2       1 RES1   0.0000
     4 N1       2.5299   3.1436   1.3271   N.ar      1 RES1   0.0000
     5 N2       3.9976   5.5284   2.7273   N.2       1 RES1   0.0000
     6 C1       2.8050   5.6061   3.5146   C.ar      1 RES1   0.0000
     7 C2       6.0953   2.6299   3.2527   C.ar      1 RES1   0.0000
     8 C3       3.2948   6.1911  -1.2837   C.1       1 RES1   0.0000
     9 N3       4.8202   2.7725   2.6188   N.2       1 RES1   0.0000
    10 C4       5.0483   6.1096   3.1473   C.2       1 RES1   0.0000
    11 H1       5.0271   6.6001   3.9379   H         1 RES1   0.0000
    12 C5       3.7875   2.2180   3.1116   C.2       1 RES1   0.0000
    13 H2       3.8503   1.7057   3.8869   H         1 RES1   0.0000
    14 N4       6.2164   5.2539   1.2769   N.ar      1 RES1   0.0000
    15 N5       5.2196   2.9500  -0.4625   N.2       1 RES1   0.0000
    16 C6       2.5005   2.3999   2.4417   C.ar      1 RES1   0.0000
    17 C7       0.4411   5.8651   3.5809   C.ar      1 RES1   0.0000
    18 H3      -0.3681   6.0034   3.1439   H         1 RES1   0.0000
    19 C8       1.6121   5.8127   2.8667   C.ar      1 RES1   0.0000
    20 H4       1.5978   5.9175   1.9435   H         1 RES1   0.0000
    21 C9       0.4741   5.7123   4.9309   C.ar      1 RES1   0.0000
    22 C10      1.3938   3.2789   0.6512   C.ar      1 RES1   0.0000
    23 H5       1.3998   3.7738  -0.1377   H         1 RES1   0.0000
    24 C11      7.1703   2.2966   2.4655   C.ar      1 RES1   0.0000
    25 H6       7.0401   2.1234   1.5609   H         1 RES1   0.0000
    26 C12      5.8342   2.1612  -1.0304   C.1       1 RES1   0.0000
    27 C13      1.6618   5.5028   5.5924   C.ar      1 RES1   0.0000
    28 H7       1.6760   5.4052   6.5173   H         1 RES1   0.0000
    29 C14      6.2909   2.9166   4.5892   C.ar      1 RES1   0.0000
    30 H8       5.5763   3.1567   5.1333   H         1 RES1   0.0000
    31 C15      6.2883   6.0019   2.3856   C.ar      1 RES1   0.0000
    32 C16      7.5842   2.8380   5.1078   C.ar      1 RES1   0.0000
    33 H9       7.7360   3.0315   6.0038   H         1 RES1   0.0000
    34 N6      10.1570   2.2398   5.8270   N.2       1 RES1   0.0000
    35 C17     14.1809   1.7159   7.1142   C.ar      1 RES1   0.0000
    36 H10     15.0396   1.5703   7.4406   H         1 RES1   0.0000
    37 N7       3.5160   5.4736  -0.4149   N.2       1 RES1   0.0000
    38 C18      1.3507   1.8279   2.9212   C.ar      1 RES1   0.0000
    39 H11      1.3614   1.3331   3.7084   H         1 RES1   0.0000
    40 C19      8.6313   2.4756   4.3052   C.ar      1 RES1   0.0000
    41 N8      10.1389   2.3592   4.6844   N.2       1 RES1   0.0000
    42 N9      -1.5177   5.7560   5.3186   N.2       1 RES1   0.0000
    43 N10     -0.7350   5.8520   6.0617   N.2       1 RES1   0.0000
    44 C20      0.2064   2.7157   1.0695   C.ar      1 RES1   0.0000
    45 H12     -0.5676   2.8307   0.5662   H         1 RES1   0.0000
    46 C21     11.6499   2.0855   6.1994   C.ar      1 RES1   0.0000
    47 C22      8.4253   2.2194   2.9943   C.ar      1 RES1   0.0000
    48 H13      9.1429   1.9866   2.4502   H         1 RES1   0.0000
    49 C23      2.8163   5.4402   4.8765   C.ar      1 RES1   0.0000
    50 H14      3.6223   5.2815   5.3135   H         1 RES1   0.0000
    51 C24      0.1714   1.9982   2.2155   C.ar      1 RES1   0.0000
    52 H15     -0.6247   1.6286   2.5216   H         1 RES1   0.0000
    53 C25     12.7130   2.3446   5.3509   C.ar      1 RES1   0.0000
    54 H16     12.5704   2.6357   4.4804   H         1 RES1   0.0000
    55 C26      7.3152   5.1666   0.5390   C.ar      1 RES1   0.0000
    56 H17      7.2920   4.6616  -0.2414   H         1 RES1   0.0000
    57 C27     13.1260   1.4903   7.8929   C.ar      1 RES1   0.0000
    58 H18     13.2639   1.1992   8.7652   H         1 RES1   0.0000
    59 C28     14.0043   2.1554   5.8491   C.ar      1 RES1   0.0000
    60 H19     14.7414   2.3330   5.3101   H         1 RES1   0.0000
    61 C29     -2.7673   5.9685   6.3830   C.ar      1 RES1   0.0000
    62 C30     11.8635   1.6722   7.4525   C.ar      1 RES1   0.0000
    63 H20     11.1432   1.5092   8.0187   H         1 RES1   0.0000
    64 C31      8.4933   5.8026   0.8876   C.ar      1 RES1   0.0000
    65 H21      9.2414   5.7356   0.3384   H         1 RES1   0.0000
    66 C32      7.4372   6.6307   2.8021   C.ar      1 RES1   0.0000
    67 H22      7.4523   7.1197   3.5928   H         1 RES1   0.0000
    68 C33     -5.1454   6.3527   7.6617   C.ar      1 RES1   0.0000
    69 H23     -5.9628   6.4779   8.0867   H         1 RES1   0.0000
    70 C34     -3.9333   5.6861   5.7420   C.ar      1 RES1   0.0000
    71 H24     -3.9245   5.3674   4.8680   H         1 RES1   0.0000
    72 C35     -5.1099   5.8724   6.3881   C.ar      1 RES1   0.0000
    73 H25     -5.9072   5.6672   5.9562   H         1 RES1   0.0000
    74 C36     -3.9789   6.6554   8.3214   C.ar      1 RES1   0.0000
    75 H26     -3.9979   6.9887   9.1885   H         1 RES1   0.0000
    76 C37     -2.7700   6.4531   7.6651   C.ar      1 RES1   0.0000
    77 H27     -1.9681   6.6467   8.0952   H         1 RES1   0.0000
    78 C38      8.5536   6.5230   2.0319   C.ar      1 RES1   0.0000
    79 H28      9.3463   6.9363   2.2886   H         1 RES1   0.0000
@<TRIPOS>BOND
     1     1     4    1
     2     2     8    2
     3     3    26    2
     4     4    16   ar
     5     5     1    1
     6     6     5    1
     7     7     9    1
     8     8    37    2
     9     9     1    1
    10    10     5    2
    11    11    10    1
    12    12     9    2
    13    13    12    1
    14    14     1    1
    15    15     1    1
    16    16    12    1
    17    17    18    1
    18    19     6   ar
    19    20    19    1
    20    21    17   ar
    21    22     4   ar
    22    23    22    1
    23    24     7   ar
    24    25    24    1
    25    26    15    2
    26    27    21   ar
    27    28    27    1
    28    29     7   ar
    29    30    29    1
    30    31    10    1
    31    32    29   ar
    32    33    32    1
    33    34    41    2
    34    35    36    1
    35    37     1    1
    36    38    16   ar
    37    39    38    1
    38    40    32   ar
    39    41    40    1
    40    42    43    2
    41    43    21    1
    42    44    22   ar
    43    45    44    1
    44    46    34    1
    45    47    24   ar
    46    48    47    1
    47    49     6   ar
    48    50    49    1
    49    51    38   ar
    50    52    51    1
    51    53    46   ar
    52    54    53    1
    53    55    14   ar
    54    56    55    1
    55    57    35   ar
    56    58    57    1
    57    59    35   ar
    58    60    59    1
    59    61    42    1
    60    62    46   ar
    61    63    62    1
    62    64    55   ar
    63    65    64    1
    64    66    31   ar
    65    67    66    1
    66    68    69    1
    67    70    61   ar
    68    71    70    1
    69    72    68   ar
    70    73    72    1
    71    74    68   ar
    72    75    74    1
    73    76    61   ar
    74    77    76    1
    75    78    64   ar
    76    79    78    1
    77    14    31   ar
    78    17    19   ar
    79    27    49   ar
    80    40    47   ar
    81    44    51   ar
    82    53    59   ar
    83    57    62   ar
    84    66    78   ar
    85    70    72   ar
    86    74    76   ar
@<TRIPOS>SUBSTRUCTURE
     1 RES1        1 GROUP             0 ****  ****    0  
@<TRIPOS>CRYSIN
   15.1215   14.5537   17.0259   90.0000   92.9570   90.0000    14     1
