@<TRIPOS>MOLECULE
XECNAU20
    79    86     1     0     0
SMALL
NO_CHARGES
****
Generated from the CSD

@<TRIPOS>ATOM
     1 Fe1      4.3369   4.1064   1.0986   Fe        1 RES1   0.0000
     2 S1       3.0423   7.0479  -2.3917   S.2       1 RES1   0.0000
     3 S2       6.4814   1.0738  -1.8063   S.2       1 RES1   0.0000
     4 N1       2.5986   3.1529   1.3350   N.ar      1 RES1   0.0000
     5 N2       3.9615   5.4104   2.6160   N.2       1 RES1   0.0000
     6 C1       2.7556   5.5012   3.4011   C.ar      1 RES1   0.0000
     7 C2       6.1174   2.6635   3.1593   C.ar      1 RES1   0.0000
     8 C3       3.3922   6.0256  -1.1590   C.1       1 RES1   0.0000
     9 N3       4.8144   2.8096   2.5819   N.2       1 RES1   0.0000
    10 C4       4.9839   6.0782   3.0136   C.2       1 RES1   0.0000
    11 H1       4.9432   6.6396   3.7794   H         1 RES1   0.0000
    12 C5       3.8147   2.1923   3.0908   C.2       1 RES1   0.0000
    13 H2       3.9092   1.6458   3.8612   H         1 RES1   0.0000
    14 N4       6.0895   5.0862   1.2003   N.ar      1 RES1   0.0000
    15 N5       4.9997   2.8671  -0.2644   N.2       1 RES1   0.0000
    16 C6       2.5258   2.3657   2.4353   C.ar      1 RES1   0.0000
    17 C7       0.3858   5.7992   3.4988   C.ar      1 RES1   0.0000
    18 H3      -0.4456   5.9608   3.0679   H         1 RES1   0.0000
    19 C8       1.5579   5.7293   2.7473   C.ar      1 RES1   0.0000
    20 H4       1.5353   5.8368   1.8037   H         1 RES1   0.0000
    21 C9       0.4344   5.6336   4.8666   C.ar      1 RES1   0.0000
    22 C10      1.4894   3.2801   0.5962   C.ar      1 RES1   0.0000
    23 H5       1.5299   3.8004  -0.1971   H         1 RES1   0.0000
    24 C11      7.1571   2.2713   2.3331   C.ar      1 RES1   0.0000
    25 H6       6.9913   2.0566   1.4229   H         1 RES1   0.0000
    26 C12      5.5982   2.1171  -0.9169   C.1       1 RES1   0.0000
    27 C13      1.6276   5.4203   5.4928   C.ar      1 RES1   0.0000
    28 H7       1.6563   5.3266   6.4381   H         1 RES1   0.0000
    29 C14      6.3612   2.9729   4.4824   C.ar      1 RES1   0.0000
    30 H8       5.6493   3.2484   5.0469   H         1 RES1   0.0000
    31 C15      6.2043   5.9377   2.2421   C.ar      1 RES1   0.0000
    32 C16      7.6523   2.8809   4.9835   C.ar      1 RES1   0.0000
    33 H9       7.8226   3.0899   5.8936   H         1 RES1   0.0000
    34 N6      10.2276   2.2209   5.7769   N.2       1 RES1   0.0000
    35 C17     14.2118   1.6660   6.9926   C.ar      1 RES1   0.0000
    36 H10     15.1029   1.5017   7.2798   H         1 RES1   0.0000
    37 N7       3.6396   5.3223  -0.2709   N.2       1 RES1   0.0000
    38 C18      1.3561   1.7655   2.8491   C.ar      1 RES1   0.0000
    39 H11      1.3336   1.2423   3.6424   H         1 RES1   0.0000
    40 C19      8.6838   2.4866   4.1651   C.ar      1 RES1   0.0000
    41 N8      10.0721   2.3519   4.5561   N.2       1 RES1   0.0000
    42 N9      -1.7216   5.6718   5.1655   N.2       1 RES1   0.0000
    43 N10     -0.7216   5.7525   5.8068   N.2       1 RES1   0.0000
    44 C20      0.2969   2.6921   0.9352   C.ar      1 RES1   0.0000
    45 H12     -0.4669   2.8046   0.3824   H         1 RES1   0.0000
    46 C21     11.6250   2.0703   6.1458   C.ar      1 RES1   0.0000
    47 C22      8.4371   2.1978   2.8441   C.ar      1 RES1   0.0000
    48 H13      9.1553   1.9427   2.2763   H         1 RES1   0.0000
    49 C23      2.7881   5.3382   4.7647   C.ar      1 RES1   0.0000
    50 H14      3.6131   5.1695   5.2039   H         1 RES1   0.0000
    51 C24      0.2179   1.9398   2.0826   C.ar      1 RES1   0.0000
    52 H15     -0.6055   1.5450   2.3448   H         1 RES1   0.0000
    53 C25     12.6764   2.3463   5.2824   C.ar      1 RES1   0.0000
    54 H16     12.5091   2.6662   4.4040   H         1 RES1   0.0000
    55 C26      7.1459   4.9505   0.3891   C.ar      1 RES1   0.0000
    56 H17      7.0715   4.3740  -0.3607   H         1 RES1   0.0000
    57 C27     13.1675   1.4282   7.8343   C.ar      1 RES1   0.0000
    58 H18     13.3331   1.1155   8.7161   H         1 RES1   0.0000
    59 C28     13.9734   2.1474   5.7250   C.ar      1 RES1   0.0000
    60 H19     14.7024   2.3434   5.1488   H         1 RES1   0.0000
    61 C29     -2.9299   5.8556   6.0389   C.ar      1 RES1   0.0000
    62 C30     11.8679   1.6372   7.4134   C.ar      1 RES1   0.0000
    63 H20     11.1454   1.4787   8.0096   H         1 RES1   0.0000
    64 C31      8.3282   5.6033   0.5945   C.ar      1 RES1   0.0000
    65 H21      9.0483   5.4909  -0.0134   H         1 RES1   0.0000
    66 C32      7.3727   6.6050   2.5352   C.ar      1 RES1   0.0000
    67 H22      7.4347   7.1728   3.2934   H         1 RES1   0.0000
    68 C33     -5.2725   6.2793   7.4117   C.ar      1 RES1   0.0000
    69 H23     -6.0947   6.4205   7.8643   H         1 RES1   0.0000
    70 C34     -4.1085   5.6264   5.4227   C.ar      1 RES1   0.0000
    71 H24     -4.1289   5.3238   4.5225   H         1 RES1   0.0000
    72 C35     -5.2777   5.8339   6.1124   C.ar      1 RES1   0.0000
    73 H25     -6.1076   5.6668   5.6816   H         1 RES1   0.0000
    74 C36     -4.0821   6.5243   8.0664   C.ar      1 RES1   0.0000
    75 H26     -4.0752   6.8327   8.9649   H         1 RES1   0.0000
    76 C37     -2.8685   6.3038   7.3600   C.ar      1 RES1   0.0000
    77 H27     -2.0306   6.4580   7.7808   H         1 RES1   0.0000
    78 C38      8.4641   6.4234   1.6834   C.ar      1 RES1   0.0000
    79 H28      9.2901   6.8601   1.8571   H         1 RES1   0.0000
@<TRIPOS>BOND
     1     1     4    1
     2     2     8    2
     3     3    26    2
     4     4    16   ar
     5     5     1    1
     6     6     5    1
     7     7     9    1
     8     8    37    2
     9     9     1    1
    10    10     5    2
    11    11    10    1
    12    12     9    2
    13    13    12    1
    14    14     1    1
    15    15     1    1
    16    16    12    1
    17    17    18    1
    18    19     6   ar
    19    20    19    1
    20    21    17   ar
    21    22     4   ar
    22    23    22    1
    23    24     7   ar
    24    25    24    1
    25    26    15    2
    26    27    21   ar
    27    28    27    1
    28    29     7   ar
    29    30    29    1
    30    31    10    1
    31    32    29   ar
    32    33    32    1
    33    34    41    2
    34    35    36    1
    35    37     1    1
    36    38    16   ar
    37    39    38    1
    38    40    32   ar
    39    41    40    1
    40    42    43    2
    41    43    21    1
    42    44    22   ar
    43    45    44    1
    44    46    34    1
    45    47    24   ar
    46    48    47    1
    47    49     6   ar
    48    50    49    1
    49    51    38   ar
    50    52    51    1
    51    53    46   ar
    52    54    53    1
    53    55    14   ar
    54    56    55    1
    55    57    35   ar
    56    58    57    1
    57    59    35   ar
    58    60    59    1
    59    61    42    1
    60    62    46   ar
    61    63    62    1
    62    64    55   ar
    63    65    64    1
    64    66    31   ar
    65    67    66    1
    66    68    69    1
    67    70    61   ar
    68    71    70    1
    69    72    68   ar
    70    73    72    1
    71    74    68   ar
    72    75    74    1
    73    76    61   ar
    74    77    76    1
    75    78    64   ar
    76    79    78    1
    77    14    31   ar
    78    17    19   ar
    79    27    49   ar
    80    40    47   ar
    81    44    51   ar
    82    53    59   ar
    83    57    62   ar
    84    66    78   ar
    85    70    72   ar
    86    74    76   ar
@<TRIPOS>SUBSTRUCTURE
     1 RES1        1 GROUP             0 ****  ****    0  
@<TRIPOS>CRYSIN
   15.0368   14.4119   16.7208   90.0000   92.8150   90.0000    14     1
