@<TRIPOS>MOLECULE
XECNAU06
    79    86     1     0     0
SMALL
NO_CHARGES
****
Generated from the CSD

@<TRIPOS>ATOM
     1 Fe1      4.3110   4.0786   1.1365   Fe        1 RES1   0.0000
     2 S1       3.0490   6.9945  -2.3751   S.2       1 RES1   0.0000
     3 S2       6.4175   1.0626  -1.7930   S.2       1 RES1   0.0000
     4 N1       2.5946   3.1503   1.3343   N.ar      1 RES1   0.0000
     5 N2       3.9391   5.3701   2.5893   N.2       1 RES1   0.0000
     6 C1       2.7368   5.4607   3.3754   C.ar      1 RES1   0.0000
     7 C2       6.0995   2.6617   3.1382   C.ar      1 RES1   0.0000
     8 C3       3.4078   5.9785  -1.1295   C.1       1 RES1   0.0000
     9 N3       4.7897   2.8136   2.5749   N.2       1 RES1   0.0000
    10 C4       4.9604   6.0554   2.9811   C.2       1 RES1   0.0000
    11 H1       4.9192   6.6292   3.7367   H         1 RES1   0.0000
    12 C5       3.7936   2.1799   3.0917   C.2       1 RES1   0.0000
    13 H2       3.8924   1.6319   3.8613   H         1 RES1   0.0000
    14 N4       6.0385   5.0278   1.1753   N.ar      1 RES1   0.0000
    15 N5       4.9287   2.8358  -0.2144   N.2       1 RES1   0.0000
    16 C6       2.5104   2.3519   2.4290   C.ar      1 RES1   0.0000
    17 C7       0.3617   5.7661   3.4783   C.ar      1 RES1   0.0000
    18 H3      -0.4690   5.9309   3.0475   H         1 RES1   0.0000
    19 C8       1.5265   5.6914   2.7333   C.ar      1 RES1   0.0000
    20 H4       1.4979   5.7975   1.7903   H         1 RES1   0.0000
    21 C9       0.4076   5.6009   4.8536   C.ar      1 RES1   0.0000
    22 C10      1.4974   3.2743   0.5779   C.ar      1 RES1   0.0000
    23 H5       1.5475   3.8000  -0.2126   H         1 RES1   0.0000
    24 C11      7.1373   2.2635   2.3060   C.ar      1 RES1   0.0000
    25 H6       6.9668   2.0463   1.3967   H         1 RES1   0.0000
    26 C12      5.5307   2.0932  -0.8822   C.1       1 RES1   0.0000
    27 C13      1.6128   5.3887   5.4812   C.ar      1 RES1   0.0000
    28 H7       1.6427   5.3043   6.4272   H         1 RES1   0.0000
    29 C14      6.3465   2.9811   4.4665   C.ar      1 RES1   0.0000
    30 H8       5.6351   3.2637   5.0305   H         1 RES1   0.0000
    31 C15      6.1731   5.9018   2.2040   C.ar      1 RES1   0.0000
    32 C16      7.6362   2.8857   4.9664   C.ar      1 RES1   0.0000
    33 H9       7.8100   3.0988   5.8758   H         1 RES1   0.0000
    34 N6      10.2136   2.2123   5.7657   N.2       1 RES1   0.0000
    35 C17     14.1996   1.6362   6.9552   C.ar      1 RES1   0.0000
    36 H10     15.0926   1.4612   7.2293   H         1 RES1   0.0000
    37 N7       3.6553   5.2733  -0.2395   N.2       1 RES1   0.0000
    38 C18      1.3315   1.7418   2.8185   C.ar      1 RES1   0.0000
    39 H11      1.2988   1.2117   3.6055   H         1 RES1   0.0000
    40 C19      8.6726   2.4776   4.1368   C.ar      1 RES1   0.0000
    41 N8      10.0400   2.3361   4.5311   N.2       1 RES1   0.0000
    42 N9      -1.8080   5.6313   5.1137   N.2       1 RES1   0.0000
    43 N10     -0.7381   5.7046   5.7375   N.2       1 RES1   0.0000
    44 C20      0.2948   2.6734   0.8945   C.ar      1 RES1   0.0000
    45 H12     -0.4594   2.7805   0.3272   H         1 RES1   0.0000
    46 C21     11.5941   2.0638   6.1271   C.ar      1 RES1   0.0000
    47 C22      8.4154   2.1861   2.8115   C.ar      1 RES1   0.0000
    48 H13      9.1297   1.9287   2.2404   H         1 RES1   0.0000
    49 C23      2.7790   5.2975   4.7493   C.ar      1 RES1   0.0000
    50 H14      3.6044   5.1236   5.1849   H         1 RES1   0.0000
    51 C24      0.2024   1.9162   2.0431   C.ar      1 RES1   0.0000
    52 H15     -0.6243   1.5214   2.2969   H         1 RES1   0.0000
    53 C25     12.6574   2.3395   5.2598   C.ar      1 RES1   0.0000
    54 H16     12.4899   2.6701   4.3844   H         1 RES1   0.0000
    55 C26      7.0878   4.8792   0.3541   C.ar      1 RES1   0.0000
    56 H17      7.0038   4.2933  -0.3886   H         1 RES1   0.0000
    57 C27     13.1532   1.3996   7.8198   C.ar      1 RES1   0.0000
    58 H18     13.3250   1.0826   8.6991   H         1 RES1   0.0000
    59 C28     13.9494   2.1269   5.6893   C.ar      1 RES1   0.0000
    60 H19     14.6755   2.3202   5.1085   H         1 RES1   0.0000
    61 C29     -2.9823   5.8248   5.9511   C.ar      1 RES1   0.0000
    62 C30     11.8463   1.6254   7.4031   C.ar      1 RES1   0.0000
    63 H20     11.1260   1.4756   8.0033   H         1 RES1   0.0000
    64 C31      8.2835   5.5386   0.5388   C.ar      1 RES1   0.0000
    65 H21      8.9986   5.4147  -0.0747   H         1 RES1   0.0000
    66 C32      7.3539   6.5770   2.4659   C.ar      1 RES1   0.0000
    67 H22      7.4221   7.1641   3.2103   H         1 RES1   0.0000
    68 C33     -5.3399   6.2428   7.3162   C.ar      1 RES1   0.0000
    69 H23     -6.1561   6.3855   7.7807   H         1 RES1   0.0000
    70 C34     -4.1785   5.6081   5.3183   C.ar      1 RES1   0.0000
    71 H24     -4.1957   5.3186   4.4143   H         1 RES1   0.0000
    72 C35     -5.3598   5.8145   6.0049   C.ar      1 RES1   0.0000
    73 H25     -6.1904   5.6599   5.5702   H         1 RES1   0.0000
    74 C36     -4.1330   6.4652   7.9568   C.ar      1 RES1   0.0000
    75 H26     -4.1207   6.7597   8.8602   H         1 RES1   0.0000
    76 C37     -2.9364   6.2566   7.2729   C.ar      1 RES1   0.0000
    77 H27     -2.1019   6.4070   7.7027   H         1 RES1   0.0000
    78 C38      8.4357   6.3789   1.6186   C.ar      1 RES1   0.0000
    79 H28      9.2642   6.8142   1.7803   H         1 RES1   0.0000
@<TRIPOS>BOND
     1     1     4    1
     2     2     8    2
     3     3    26    2
     4     4    16   ar
     5     5     1    1
     6     6     5    1
     7     7     9    1
     8     8    37    2
     9     9     1    1
    10    10     5    2
    11    11    10    1
    12    12     9    2
    13    13    12    1
    14    14     1    1
    15    15     1    1
    16    16    12    1
    17    17    18    1
    18    19     6   ar
    19    20    19    1
    20    21    17   ar
    21    22     4   ar
    22    23    22    1
    23    24     7   ar
    24    25    24    1
    25    26    15    2
    26    27    21   ar
    27    28    27    1
    28    29     7   ar
    29    30    29    1
    30    31    10    1
    31    32    29   ar
    32    33    32    1
    33    34    41    2
    34    35    36    1
    35    37     1    1
    36    38    16   ar
    37    39    38    1
    38    40    32   ar
    39    41    40    1
    40    42    43    2
    41    43    21    1
    42    44    22   ar
    43    45    44    1
    44    46    34    1
    45    47    24   ar
    46    48    47    1
    47    49     6   ar
    48    50    49    1
    49    51    38   ar
    50    52    51    1
    51    53    46   ar
    52    54    53    1
    53    55    14   ar
    54    56    55    1
    55    57    35   ar
    56    58    57    1
    57    59    35   ar
    58    60    59    1
    59    61    42    1
    60    62    46   ar
    61    63    62    1
    62    64    55   ar
    63    65    64    1
    64    66    31   ar
    65    67    66    1
    66    68    69    1
    67    70    61   ar
    68    71    70    1
    69    72    68   ar
    70    73    72    1
    71    74    68   ar
    72    75    74    1
    73    76    61   ar
    74    77    76    1
    75    78    64   ar
    76    79    78    1
    77    14    31   ar
    78    17    19   ar
    79    27    49   ar
    80    40    47   ar
    81    44    51   ar
    82    53    59   ar
    83    57    62   ar
    84    66    78   ar
    85    70    72   ar
    86    74    76   ar
@<TRIPOS>SUBSTRUCTURE
     1 RES1        1 GROUP             0 ****  ****    0  
@<TRIPOS>CRYSIN
   15.0064   14.3397   16.6293   90.0000   92.9180   90.0000    14     1
