@<TRIPOS>MOLECULE
XECNAU10
    79    86     1     0     0
SMALL
NO_CHARGES
****
Generated from the CSD

@<TRIPOS>ATOM
     1 Fe1      4.3131   4.0843   1.1374   Fe        1 RES1   0.0000
     2 S1       3.0486   7.0011  -2.3743   S.2       1 RES1   0.0000
     3 S2       6.4119   1.0665  -1.7963   S.2       1 RES1   0.0000
     4 N1       2.5973   3.1559   1.3341   N.ar      1 RES1   0.0000
     5 N2       3.9409   5.3756   2.5925   N.2       1 RES1   0.0000
     6 C1       2.7383   5.4679   3.3785   C.ar      1 RES1   0.0000
     7 C2       6.1039   2.6656   3.1435   C.ar      1 RES1   0.0000
     8 C3       3.4086   5.9855  -1.1302   C.1       1 RES1   0.0000
     9 N3       4.7925   2.8181   2.5770   N.2       1 RES1   0.0000
    10 C4       4.9591   6.0633   2.9803   C.2       1 RES1   0.0000
    11 H1       4.9146   6.6398   3.7335   H         1 RES1   0.0000
    12 C5       3.7965   2.1842   3.0894   C.2       1 RES1   0.0000
    13 H2       3.8939   1.6348   3.8583   H         1 RES1   0.0000
    14 N4       6.0428   5.0373   1.1769   N.ar      1 RES1   0.0000
    15 N5       4.9308   2.8404  -0.2165   N.2       1 RES1   0.0000
    16 C6       2.5143   2.3557   2.4279   C.ar      1 RES1   0.0000
    17 C7       0.3660   5.7730   3.4812   C.ar      1 RES1   0.0000
    18 H3      -0.4643   5.9359   3.0500   H         1 RES1   0.0000
    19 C8       1.5316   5.6984   2.7342   C.ar      1 RES1   0.0000
    20 H4       1.5044   5.8037   1.7911   H         1 RES1   0.0000
    21 C9       0.4128   5.6102   4.8566   C.ar      1 RES1   0.0000
    22 C10      1.4955   3.2801   0.5819   C.ar      1 RES1   0.0000
    23 H5       1.5441   3.8069  -0.2079   H         1 RES1   0.0000
    24 C11      7.1410   2.2617   2.3111   C.ar      1 RES1   0.0000
    25 H6       6.9698   2.0399   1.4036   H         1 RES1   0.0000
    26 C12      5.5276   2.0951  -0.8837   C.1       1 RES1   0.0000
    27 C13      1.6159   5.3900   5.4874   C.ar      1 RES1   0.0000
    28 H7       1.6450   5.2966   6.4326   H         1 RES1   0.0000
    29 C14      6.3493   2.9842   4.4709   C.ar      1 RES1   0.0000
    30 H8       5.6376   3.2653   5.0340   H         1 RES1   0.0000
    31 C15      6.1728   5.9118   2.2095   C.ar      1 RES1   0.0000
    32 C16      7.6404   2.8902   4.9717   C.ar      1 RES1   0.0000
    33 H9       7.8164   3.1059   5.8805   H         1 RES1   0.0000
    34 N6      10.2147   2.2158   5.7689   N.2       1 RES1   0.0000
    35 C17     14.1975   1.6414   6.9648   C.ar      1 RES1   0.0000
    36 H10     15.0900   1.4696   7.2409   H         1 RES1   0.0000
    37 N7       3.6551   5.2824  -0.2376   N.2       1 RES1   0.0000
    38 C18      1.3393   1.7460   2.8233   C.ar      1 RES1   0.0000
    39 H11      1.3084   1.2196   3.6138   H         1 RES1   0.0000
    40 C19      8.6749   2.4797   4.1401   C.ar      1 RES1   0.0000
    41 N8      10.0443   2.3364   4.5361   N.2       1 RES1   0.0000
    42 N9      -1.8027   5.6410   5.1182   N.2       1 RES1   0.0000
    43 N10     -0.7327   5.7151   5.7405   N.2       1 RES1   0.0000
    44 C20      0.2939   2.6804   0.8979   C.ar      1 RES1   0.0000
    45 H12     -0.4624   2.7913   0.3343   H         1 RES1   0.0000
    46 C21     11.6007   2.0659   6.1303   C.ar      1 RES1   0.0000
    47 C22      8.4212   2.1863   2.8157   C.ar      1 RES1   0.0000
    48 H13      9.1368   1.9293   2.2451   H         1 RES1   0.0000
    49 C23      2.7805   5.3053   4.7488   C.ar      1 RES1   0.0000
    50 H14      3.6087   5.1357   5.1837   H         1 RES1   0.0000
    51 C24      0.2073   1.9187   2.0422   C.ar      1 RES1   0.0000
    52 H15     -0.6171   1.5170   2.2917   H         1 RES1   0.0000
    53 C25     12.6574   2.3373   5.2703   C.ar      1 RES1   0.0000
    54 H16     12.4902   2.6648   4.3938   H         1 RES1   0.0000
    55 C26      7.0932   4.8845   0.3582   C.ar      1 RES1   0.0000
    56 H17      7.0123   4.2925  -0.3808   H         1 RES1   0.0000
    57 C27     13.1542   1.4045   7.8283   C.ar      1 RES1   0.0000
    58 H18     13.3255   1.0889   8.7077   H         1 RES1   0.0000
    59 C28     13.9525   2.1276   5.6992   C.ar      1 RES1   0.0000
    60 H19     14.6796   2.3201   5.1188   H         1 RES1   0.0000
    61 C29     -2.9763   5.8303   5.9608   C.ar      1 RES1   0.0000
    62 C30     11.8496   1.6288   7.4077   C.ar      1 RES1   0.0000
    63 H20     11.1275   1.4797   8.0059   H         1 RES1   0.0000
    64 C31      8.2857   5.5499   0.5435   C.ar      1 RES1   0.0000
    65 H21      9.0002   5.4302  -0.0698   H         1 RES1   0.0000
    66 C32      7.3519   6.5861   2.4681   C.ar      1 RES1   0.0000
    67 H22      7.4198   7.1742   3.2113   H         1 RES1   0.0000
    68 C33     -5.3318   6.2488   7.3275   C.ar      1 RES1   0.0000
    69 H23     -6.1485   6.3884   7.7930   H         1 RES1   0.0000
    70 C34     -4.1725   5.6174   5.3266   C.ar      1 RES1   0.0000
    71 H24     -4.1899   5.3311   4.4204   H         1 RES1   0.0000
    72 C35     -5.3498   5.8214   6.0151   C.ar      1 RES1   0.0000
    73 H25     -6.1808   5.6658   5.5828   H         1 RES1   0.0000
    74 C36     -4.1244   6.4730   7.9666   C.ar      1 RES1   0.0000
    75 H26     -4.1117   6.7706   8.8690   H         1 RES1   0.0000
    76 C37     -2.9302   6.2623   7.2838   C.ar      1 RES1   0.0000
    77 H27     -2.0956   6.4114   7.7132   H         1 RES1   0.0000
    78 C38      8.4329   6.3870   1.6231   C.ar      1 RES1   0.0000
    79 H28      9.2617   6.8223   1.7878   H         1 RES1   0.0000
@<TRIPOS>BOND
     1     1     4    1
     2     2     8    2
     3     3    26    2
     4     4    16   ar
     5     5     1    1
     6     6     5    1
     7     7     9    1
     8     8    37    2
     9     9     1    1
    10    10     5    2
    11    11    10    1
    12    12     9    2
    13    13    12    1
    14    14     1    1
    15    15     1    1
    16    16    12    1
    17    17    18    1
    18    19     6   ar
    19    20    19    1
    20    21    17   ar
    21    22     4   ar
    22    23    22    1
    23    24     7   ar
    24    25    24    1
    25    26    15    2
    26    27    21   ar
    27    28    27    1
    28    29     7   ar
    29    30    29    1
    30    31    10    1
    31    32    29   ar
    32    33    32    1
    33    34    41    2
    34    35    36    1
    35    37     1    1
    36    38    16   ar
    37    39    38    1
    38    40    32   ar
    39    41    40    1
    40    42    43    2
    41    43    21    1
    42    44    22   ar
    43    45    44    1
    44    46    34    1
    45    47    24   ar
    46    48    47    1
    47    49     6   ar
    48    50    49    1
    49    51    38   ar
    50    52    51    1
    51    53    46   ar
    52    54    53    1
    53    55    14   ar
    54    56    55    1
    55    57    35   ar
    56    58    57    1
    57    59    35   ar
    58    60    59    1
    59    61    42    1
    60    62    46   ar
    61    63    62    1
    62    64    55   ar
    63    65    64    1
    64    66    31   ar
    65    67    66    1
    66    68    69    1
    67    70    61   ar
    68    71    70    1
    69    72    68   ar
    70    73    72    1
    71    74    68   ar
    72    75    74    1
    73    76    61   ar
    74    77    76    1
    75    78    64   ar
    76    79    78    1
    77    14    31   ar
    78    17    19   ar
    79    27    49   ar
    80    40    47   ar
    81    44    51   ar
    82    53    59   ar
    83    57    62   ar
    84    66    78   ar
    85    70    72   ar
    86    74    76   ar
@<TRIPOS>SUBSTRUCTURE
     1 RES1        1 GROUP             0 ****  ****    0  
@<TRIPOS>CRYSIN
   15.0070   14.3657   16.6511   90.0000   92.8560   90.0000    14     1
