@<TRIPOS>MOLECULE
XECNAU01
    79    86     1     0     0
SMALL
NO_CHARGES
****
Generated from the CSD

@<TRIPOS>ATOM
     1 Fe1      4.3827   4.1997   0.9426   Fe        1 RES1   0.0000
     2 S1       2.9866   7.2442  -2.4903   S.2       1 RES1   0.0000
     3 S2       6.7058   1.0587  -1.8170   S.2       1 RES1   0.0000
     4 N1       2.5382   3.1527   1.3278   N.ar      1 RES1   0.0000
     5 N2       4.0087   5.5465   2.7307   N.2       1 RES1   0.0000
     6 C1       2.8149   5.6299   3.5165   C.ar      1 RES1   0.0000
     7 C2       6.1073   2.6424   3.2676   C.ar      1 RES1   0.0000
     8 C3       3.3049   6.2148  -1.2869   C.1       1 RES1   0.0000
     9 N3       4.8355   2.7842   2.6267   N.2       1 RES1   0.0000
    10 C4       5.0614   6.1387   3.1534   C.2       1 RES1   0.0000
    11 C5       3.8051   2.2315   3.1244   C.2       1 RES1   0.0000
    12 N4       6.2384   5.2774   1.2818   N.ar      1 RES1   0.0000
    13 N5       5.2339   2.9553  -0.4585   N.2       1 RES1   0.0000
    14 C6       2.5076   2.4069   2.4511   C.ar      1 RES1   0.0000
    15 C7       0.4366   5.8872   3.5846   C.ar      1 RES1   0.0000
    16 C8       1.6121   5.8346   2.8602   C.ar      1 RES1   0.0000
    17 C9       0.4650   5.7381   4.9466   C.ar      1 RES1   0.0000
    18 C10      1.4096   3.2916   0.6426   C.ar      1 RES1   0.0000
    19 C11      7.1831   2.3002   2.4784   C.ar      1 RES1   0.0000
    20 C12      5.8529   2.1686  -1.0295   C.1       1 RES1   0.0000
    21 C13      1.6554   5.5363   5.6079   C.ar      1 RES1   0.0000
    22 C14      6.3020   2.9290   4.6057   C.ar      1 RES1   0.0000
    23 C15      6.2977   6.0218   2.3966   C.ar      1 RES1   0.0000
    24 C16      7.5950   2.8529   5.1307   C.ar      1 RES1   0.0000
    25 N6      10.1622   2.2534   5.8363   N.2       1 RES1   0.0000
    26 C17     14.2074   1.7226   7.1250   C.ar      1 RES1   0.0000
    27 N7       3.5239   5.4865  -0.4193   N.2       1 RES1   0.0000
    28 C18      1.3466   1.8410   2.9250   C.ar      1 RES1   0.0000
    29 C19      8.6468   2.4918   4.3346   C.ar      1 RES1   0.0000
    30 N8      10.1751   2.3631   4.7045   N.2       1 RES1   0.0000
    31 N9      -1.5184   5.7849   5.3199   N.2       1 RES1   0.0000
    32 N10     -0.7436   5.8843   6.0767   N.2       1 RES1   0.0000
    33 C20      0.2033   2.7330   1.0551   C.ar      1 RES1   0.0000
    34 C21     11.6726   2.0940   6.2011   C.ar      1 RES1   0.0000
    35 C22      8.4482   2.2168   3.0136   C.ar      1 RES1   0.0000
    36 C23      2.8235   5.4705   4.8801   C.ar      1 RES1   0.0000
    37 C24      0.1727   2.0107   2.2074   C.ar      1 RES1   0.0000
    38 C25     12.7358   2.3558   5.3608   C.ar      1 RES1   0.0000
    39 C26      7.3403   5.1853   0.5437   C.ar      1 RES1   0.0000
    40 C27     13.1494   1.4930   7.9227   C.ar      1 RES1   0.0000
    41 C28     14.0409   2.1774   5.8568   C.ar      1 RES1   0.0000
    42 C29     -2.7661   5.9940   6.3869   C.ar      1 RES1   0.0000
    43 C30     11.8806   1.6787   7.4591   C.ar      1 RES1   0.0000
    44 C31      8.5189   5.8170   0.8778   C.ar      1 RES1   0.0000
    45 C32      7.4508   6.6652   2.8108   C.ar      1 RES1   0.0000
    46 C33     -5.1634   6.3873   7.6772   C.ar      1 RES1   0.0000
    47 C34     -3.9325   5.7103   5.7596   C.ar      1 RES1   0.0000
    48 C35     -5.1247   5.9018   6.3971   C.ar      1 RES1   0.0000
    49 C36     -4.0268   6.6988   8.3250   C.ar      1 RES1   0.0000
    50 C37     -2.7581   6.4868   7.6738   C.ar      1 RES1   0.0000
    51 C38      8.5705   6.5482   2.0233   C.ar      1 RES1   0.0000
    52 H1       5.0347   6.6403   3.9358   H         1 RES1   0.0000
    53 H2       3.8697   1.7241   3.9000   H         1 RES1   0.0000
    54 H3      -0.3744   6.0247   3.1483   H         1 RES1   0.0000
    55 H4       1.5961   5.9384   1.9364   H         1 RES1   0.0000
    56 H5       1.4262   3.7815  -0.1483   H         1 RES1   0.0000
    57 H6       7.0524   2.1247   1.5733   H         1 RES1   0.0000
    58 H7       1.6698   5.4441   6.5335   H         1 RES1   0.0000
    59 H8       5.5861   3.1673   5.1477   H         1 RES1   0.0000
    60 H9       7.7428   3.0489   6.0272   H         1 RES1   0.0000
    61 H10     15.0668   1.5676   7.4454   H         1 RES1   0.0000
    62 H11      1.3498   1.3512   3.7159   H         1 RES1   0.0000
    63 H12     -0.5694   2.8515   0.5506   H         1 RES1   0.0000
    64 H13      9.1655   1.9741   2.4750   H         1 RES1   0.0000
    65 H14      3.6283   5.3155   5.3199   H         1 RES1   0.0000
    66 H15     -0.6249   1.6363   2.5091   H         1 RES1   0.0000
    67 H16     12.5929   2.6438   4.4880   H         1 RES1   0.0000
    68 H17      7.3152   4.6735  -0.2335   H         1 RES1   0.0000
    69 H18     13.2847   1.2064   8.7971   H         1 RES1   0.0000
    70 H19     14.7791   2.3675   5.3233   H         1 RES1   0.0000
    71 H20     11.1545   1.5164   8.0199   H         1 RES1   0.0000
    72 H21      9.2670   5.7439   0.3290   H         1 RES1   0.0000
    73 H22      7.4679   7.1623   3.5966   H         1 RES1   0.0000
    74 H23     -5.9796   6.5072   8.1068   H         1 RES1   0.0000
    75 H24     -3.9225   5.3842   4.8886   H         1 RES1   0.0000
    76 H25     -5.9190   5.7000   5.9591   H         1 RES1   0.0000
    77 H26     -3.8530   7.0483   9.1875   H         1 RES1   0.0000
    78 H27     -1.9558   6.6739   8.1034   H         1 RES1   0.0000
    79 H28      9.3623   6.9679   2.2739   H         1 RES1   0.0000
@<TRIPOS>BOND
     1     1     4    1
     2     2     8    2
     3     3    20    2
     4     4    14   ar
     5     5     1    1
     6     6     5    1
     7     7     9    1
     8     8    27    2
     9     9     1    1
    10    10     5    2
    11    11     9    2
    12    12     1    1
    13    13     1    1
    14    14    11    1
    15    15    16   ar
    16    16     6   ar
    17    17    15   ar
    18    18     4   ar
    19    19     7   ar
    20    20    13    2
    21    21    17   ar
    22    22     7   ar
    23    23    10    1
    24    24    22   ar
    25    25    30    2
    26    26    40   ar
    27    27     1    1
    28    28    14   ar
    29    29    24   ar
    30    30    29    1
    31    31    32    2
    32    32    17    1
    33    33    18   ar
    34    34    25    1
    35    35    19   ar
    36    36     6   ar
    37    37    28   ar
    38    38    34   ar
    39    39    12   ar
    40    40    43   ar
    41    41    26   ar
    42    42    31    1
    43    43    34   ar
    44    44    39   ar
    45    45    23   ar
    46    46    48   ar
    47    47    42   ar
    48    48    47   ar
    49    49    46   ar
    50    50    42   ar
    51    51    44   ar
    52    52    10    1
    53    53    11    1
    54    54    15    1
    55    55    16    1
    56    56    18    1
    57    57    19    1
    58    58    21    1
    59    59    22    1
    60    60    24    1
    61    61    26    1
    62    62    28    1
    63    63    33    1
    64    64    35    1
    65    65    36    1
    66    66    37    1
    67    67    38    1
    68    68    39    1
    69    69    40    1
    70    70    41    1
    71    71    43    1
    72    72    44    1
    73    73    45    1
    74    74    46    1
    75    75    47    1
    76    76    48    1
    77    77    49    1
    78    78    50    1
    79    79    51    1
    80    12    23   ar
    81    21    36   ar
    82    29    35   ar
    83    33    37   ar
    84    38    41   ar
    85    45    51   ar
    86    49    50   ar
@<TRIPOS>SUBSTRUCTURE
     1 RES1        1 GROUP             0 ****  ****    0  
@<TRIPOS>CRYSIN
   15.1550   14.6230   17.0680   90.0000   92.9500   90.0000    14     1
