@<TRIPOS>MOLECULE
XECNAU29
    79    86     1     0     0
SMALL
NO_CHARGES
****
Generated from the CSD

@<TRIPOS>ATOM
     1 Fe1      4.3383   4.1394   0.9891   Fe        1 RES1   0.0000
     2 S1       3.0115   7.1646  -2.4697   S.2       1 RES1   0.0000
     3 S2       6.6464   1.0576  -1.8071   S.2       1 RES1   0.0000
     4 N1       2.5387   3.1249   1.3376   N.ar      1 RES1   0.0000
     5 N2       3.9725   5.4690   2.6901   N.2       1 RES1   0.0000
     6 C1       2.7806   5.5497   3.4772   C.ar      1 RES1   0.0000
     7 C2       6.0935   2.6286   3.2204   C.ar      1 RES1   0.0000
     8 C3       3.3219   6.1288  -1.2530   C.1       1 RES1   0.0000
     9 N3       4.8076   2.7695   2.6086   N.2       1 RES1   0.0000
    10 C4       5.0190   6.0754   3.1089   C.2       1 RES1   0.0000
    11 H1       4.9950   6.5892   3.8976   H         1 RES1   0.0000
    12 C5       3.7841   2.1940   3.1182   C.2       1 RES1   0.0000
    13 H2       3.8619   1.6700   3.8942   H         1 RES1   0.0000
    14 N4       6.1565   5.1752   1.2380   N.ar      1 RES1   0.0000
    15 N5       5.1266   2.9070  -0.4039   N.2       1 RES1   0.0000
    16 C6       2.4943   2.3730   2.4605   C.ar      1 RES1   0.0000
    17 C7       0.4084   5.8242   3.5716   C.ar      1 RES1   0.0000
    18 H3      -0.4153   5.9729   3.1427   H         1 RES1   0.0000
    19 C8       1.5796   5.7636   2.8337   C.ar      1 RES1   0.0000
    20 H4       1.5555   5.8689   1.8998   H         1 RES1   0.0000
    21 C9       0.4608   5.6611   4.9361   C.ar      1 RES1   0.0000
    22 C10      1.4038   3.2578   0.6417   C.ar      1 RES1   0.0000
    23 H5       1.4222   3.7572  -0.1537   H         1 RES1   0.0000
    24 C11      7.1530   2.2734   2.3980   C.ar      1 RES1   0.0000
    25 H6       7.0022   2.0800   1.4911   H         1 RES1   0.0000
    26 C12      5.7573   2.1363  -0.9963   C.1       1 RES1   0.0000
    27 C13      1.6504   5.4446   5.5761   C.ar      1 RES1   0.0000
    28 H7       1.6730   5.3407   6.5100   H         1 RES1   0.0000
    29 C14      6.3198   2.9244   4.5511   C.ar      1 RES1   0.0000
    30 H8       5.6079   3.1799   5.1084   H         1 RES1   0.0000
    31 C15      6.2488   5.9498   2.3321   C.ar      1 RES1   0.0000
    32 C16      7.6132   2.8392   5.0560   C.ar      1 RES1   0.0000
    33 H9       7.7761   3.0326   5.9612   H         1 RES1   0.0000
    34 N6      10.1872   2.2133   5.8261   N.2       1 RES1   0.0000
    35 C17     14.1881   1.6917   7.0605   C.ar      1 RES1   0.0000
    36 H10     15.0636   1.5430   7.3662   H         1 RES1   0.0000
    37 N7       3.5238   5.4013  -0.3715   N.2       1 RES1   0.0000
    38 C18      1.3348   1.7942   2.9249   C.ar      1 RES1   0.0000
    39 H11      1.3346   1.2904   3.7186   H         1 RES1   0.0000
    40 C19      8.6482   2.4769   4.2404   C.ar      1 RES1   0.0000
    41 N8      10.0818   2.3499   4.6355   N.2       1 RES1   0.0000
    42 N9      -1.6176   5.7030   5.2840   N.2       1 RES1   0.0000
    43 N10     -0.7267   5.7910   5.9797   N.2       1 RES1   0.0000
    44 C20      0.2070   2.6934   1.0402   C.ar      1 RES1   0.0000
    45 H12     -0.5697   2.8075   0.5235   H         1 RES1   0.0000
    46 C21     11.6221   2.0684   6.1976   C.ar      1 RES1   0.0000
    47 C22      8.4231   2.2070   2.9164   C.ar      1 RES1   0.0000
    48 H13      9.1425   1.9746   2.3591   H         1 RES1   0.0000
    49 C23      2.7999   5.3811   4.8483   C.ar      1 RES1   0.0000
    50 H14      3.6171   5.2194   5.2857   H         1 RES1   0.0000
    51 C24      0.1678   1.9688   2.1987   C.ar      1 RES1   0.0000
    52 H15     -0.6405   1.5950   2.4993   H         1 RES1   0.0000
    53 C25     12.6772   2.3441   5.3431   C.ar      1 RES1   0.0000
    54 H16     12.5186   2.6559   4.4700   H         1 RES1   0.0000
    55 C26      7.2335   5.0736   0.4661   C.ar      1 RES1   0.0000
    56 H17      7.1830   4.5497  -0.3124   H         1 RES1   0.0000
    57 C27     13.1348   1.4434   7.8812   C.ar      1 RES1   0.0000
    58 H18     13.2904   1.1331   8.7543   H         1 RES1   0.0000
    59 C28     13.9805   2.1521   5.8041   C.ar      1 RES1   0.0000
    60 H19     14.7121   2.3412   5.2451   H         1 RES1   0.0000
    61 C29     -2.8459   5.8906   6.2449   C.ar      1 RES1   0.0000
    62 C30     11.8521   1.6412   7.4574   C.ar      1 RES1   0.0000
    63 H20     11.1314   1.4795   8.0400   H         1 RES1   0.0000
    64 C31      8.4190   5.7001   0.7599   C.ar      1 RES1   0.0000
    65 H21      9.1589   5.6048   0.1858   H         1 RES1   0.0000
    66 C32      7.4142   6.5964   2.7070   C.ar      1 RES1   0.0000
    67 H22      7.4521   7.1088   3.4940   H         1 RES1   0.0000
    68 C33     -5.2004   6.3049   7.5806   C.ar      1 RES1   0.0000
    69 H23     -6.0233   6.4362   8.0146   H         1 RES1   0.0000
    70 C34     -4.0119   5.6293   5.6420   C.ar      1 RES1   0.0000
    71 H24     -4.0205   5.3089   4.7571   H         1 RES1   0.0000
    72 C35     -5.1757   5.8228   6.2989   C.ar      1 RES1   0.0000
    73 H25     -5.9857   5.6207   5.8683   H         1 RES1   0.0000
    74 C36     -4.0235   6.5964   8.2342   C.ar      1 RES1   0.0000
    75 H26     -4.0282   6.9327   9.1123   H         1 RES1   0.0000
    76 C37     -2.8052   6.3770   7.5452   C.ar      1 RES1   0.0000
    77 H27     -1.9808   6.5589   7.9606   H         1 RES1   0.0000
    78 C38      8.5203   6.4636   1.8863   C.ar      1 RES1   0.0000
    79 H28      9.3282   6.8909   2.1025   H         1 RES1   0.0000
@<TRIPOS>BOND
     1     1     4    1
     2     2     8    2
     3     3    26    2
     4     4    16   ar
     5     5     1    1
     6     6     5    1
     7     7     9    1
     8     8    37    2
     9     9     1    1
    10    10     5    2
    11    11    10    1
    12    12     9    2
    13    13    12    1
    14    14     1    1
    15    15     1    1
    16    16    12    1
    17    17    18    1
    18    19     6   ar
    19    20    19    1
    20    21    17   ar
    21    22     4   ar
    22    23    22    1
    23    24     7   ar
    24    25    24    1
    25    26    15    2
    26    27    21   ar
    27    28    27    1
    28    29     7   ar
    29    30    29    1
    30    31    10    1
    31    32    29   ar
    32    33    32    1
    33    34    41    2
    34    35    36    1
    35    37     1    1
    36    38    16   ar
    37    39    38    1
    38    40    32   ar
    39    41    40    1
    40    42    43    2
    41    43    21    1
    42    44    22   ar
    43    45    44    1
    44    46    34    1
    45    47    24   ar
    46    48    47    1
    47    49     6   ar
    48    50    49    1
    49    51    38   ar
    50    52    51    1
    51    53    46   ar
    52    54    53    1
    53    55    14   ar
    54    56    55    1
    55    57    35   ar
    56    58    57    1
    57    59    35   ar
    58    60    59    1
    59    61    42    1
    60    62    46   ar
    61    63    62    1
    62    64    55   ar
    63    65    64    1
    64    66    31   ar
    65    67    66    1
    66    68    69    1
    67    70    61   ar
    68    71    70    1
    69    72    68   ar
    70    73    72    1
    71    74    68   ar
    72    75    74    1
    73    76    61   ar
    74    77    76    1
    75    78    64   ar
    76    79    78    1
    77    14    31   ar
    78    17    19   ar
    79    27    49   ar
    80    40    47   ar
    81    44    51   ar
    82    53    59   ar
    83    57    62   ar
    84    66    78   ar
    85    70    72   ar
    86    74    76   ar
@<TRIPOS>SUBSTRUCTURE
     1 RES1        1 GROUP             0 ****  ****    0  
@<TRIPOS>CRYSIN
   15.0902   14.4342   16.9112   90.0000   93.0560   90.0000    14     1
