@<TRIPOS>MOLECULE
XECNAU40
    79    86     1     0     0
SMALL
NO_CHARGES
****
Generated from the CSD

@<TRIPOS>ATOM
     1 Fe1      4.3666   4.1836   0.9423   Fe        1 RES1   0.0000
     2 S1       2.9812   7.2248  -2.4941   S.2       1 RES1   0.0000
     3 S2       6.6965   1.0578  -1.8100   S.2       1 RES1   0.0000
     4 N1       2.5325   3.1409   1.3308   N.ar      1 RES1   0.0000
     5 N2       3.9909   5.5231   2.7267   N.2       1 RES1   0.0000
     6 C1       2.8056   5.6025   3.5139   C.ar      1 RES1   0.0000
     7 C2       6.0909   2.6282   3.2538   C.ar      1 RES1   0.0000
     8 C3       3.2975   6.1886  -1.2818   C.1       1 RES1   0.0000
     9 N3       4.8175   2.7690   2.6182   N.2       1 RES1   0.0000
    10 C4       5.0425   6.1057   3.1501   C.2       1 RES1   0.0000
    11 H1       5.0212   6.5959   3.9389   H         1 RES1   0.0000
    12 C5       3.7864   2.2137   3.1144   C.2       1 RES1   0.0000
    13 H2       3.8521   1.7017   3.8879   H         1 RES1   0.0000
    14 N4       6.2137   5.2491   1.2730   N.ar      1 RES1   0.0000
    15 N5       5.2130   2.9481  -0.4624   N.2       1 RES1   0.0000
    16 C6       2.4964   2.3940   2.4480   C.ar      1 RES1   0.0000
    17 C7       0.4337   5.8658   3.5938   C.ar      1 RES1   0.0000
    18 H3      -0.3803   6.0068   3.1671   H         1 RES1   0.0000
    19 C8       1.6055   5.8090   2.8645   C.ar      1 RES1   0.0000
    20 H4       1.5868   5.9108   1.9397   H         1 RES1   0.0000
    21 C9       0.4844   5.7101   4.9505   C.ar      1 RES1   0.0000
    22 C10      1.3984   3.2769   0.6443   C.ar      1 RES1   0.0000
    23 H5       1.4106   3.7670  -0.1445   H         1 RES1   0.0000
    24 C11      7.1591   2.2878   2.4514   C.ar      1 RES1   0.0000
    25 H6       7.0229   2.1089   1.5487   H         1 RES1   0.0000
    26 C12      5.8304   2.1598  -1.0268   C.1       1 RES1   0.0000
    27 C13      1.6665   5.4978   5.5965   C.ar      1 RES1   0.0000
    28 H7       1.6851   5.3945   6.5213   H         1 RES1   0.0000
    29 C14      6.3015   2.9176   4.5884   C.ar      1 RES1   0.0000
    30 H8       5.5913   3.1678   5.1341   H         1 RES1   0.0000
    31 C15      6.2857   5.9981   2.3834   C.ar      1 RES1   0.0000
    32 C16      7.5947   2.8303   5.1052   C.ar      1 RES1   0.0000
    33 H9       7.7507   3.0136   6.0045   H         1 RES1   0.0000
    34 N6      10.1489   2.2442   5.8243   N.2       1 RES1   0.0000
    35 C17     14.1786   1.7148   7.1027   C.ar      1 RES1   0.0000
    36 H10     15.0406   1.5650   7.4189   H         1 RES1   0.0000
    37 N7       3.5136   5.4672  -0.4046   N.2       1 RES1   0.0000
    38 C18      1.3392   1.8224   2.9257   C.ar      1 RES1   0.0000
    39 H11      1.3469   1.3264   3.7111   H         1 RES1   0.0000
    40 C19      8.6317   2.4755   4.2908   C.ar      1 RES1   0.0000
    41 N8      10.1382   2.3547   4.6887   N.2       1 RES1   0.0000
    42 N9      -1.5336   5.7523   5.3211   N.2       1 RES1   0.0000
    43 N10     -0.7371   5.8527   6.0555   N.2       1 RES1   0.0000
    44 C20      0.2038   2.7198   1.0574   C.ar      1 RES1   0.0000
    45 H12     -0.5668   2.8362   0.5508   H         1 RES1   0.0000
    46 C21     11.6487   2.0798   6.2051   C.ar      1 RES1   0.0000
    47 C22      8.4185   2.2151   2.9784   C.ar      1 RES1   0.0000
    48 H13      9.1347   1.9853   2.4327   H         1 RES1   0.0000
    49 C23      2.8151   5.4382   4.8774   C.ar      1 RES1   0.0000
    50 H14      3.6210   5.2854   5.3143   H         1 RES1   0.0000
    51 C24      0.1666   1.9999   2.2117   C.ar      1 RES1   0.0000
    52 H15     -0.6339   1.6348   2.5177   H         1 RES1   0.0000
    53 C25     12.6963   2.3402   5.3619   C.ar      1 RES1   0.0000
    54 H16     12.5480   2.6267   4.4898   H         1 RES1   0.0000
    55 C26      7.3067   5.1589   0.5372   C.ar      1 RES1   0.0000
    56 H17      7.2774   4.6498  -0.2397   H         1 RES1   0.0000
    57 C27     13.1411   1.4850   7.8949   C.ar      1 RES1   0.0000
    58 H18     13.2896   1.1926   8.7653   H         1 RES1   0.0000
    59 C28     13.9971   2.1628   5.8481   C.ar      1 RES1   0.0000
    60 H19     14.7297   2.3533   5.3075   H         1 RES1   0.0000
    61 C29     -2.7890   5.9487   6.3513   C.ar      1 RES1   0.0000
    62 C30     11.8722   1.6668   7.4648   C.ar      1 RES1   0.0000
    63 H20     11.1561   1.5083   8.0377   H         1 RES1   0.0000
    64 C31      8.4870   5.7872   0.8687   C.ar      1 RES1   0.0000
    65 H21      9.2309   5.7130   0.3145   H         1 RES1   0.0000
    66 C32      7.4432   6.6264   2.8050   C.ar      1 RES1   0.0000
    67 H22      7.4686   7.1093   3.5989   H         1 RES1   0.0000
    68 C33     -5.1461   6.3530   7.6637   C.ar      1 RES1   0.0000
    69 H23     -5.9619   6.4839   8.0887   H         1 RES1   0.0000
    70 C34     -3.9507   5.6781   5.7478   C.ar      1 RES1   0.0000
    71 H24     -3.9539   5.3582   4.8757   H         1 RES1   0.0000
    72 C35     -5.1150   5.8643   6.3921   C.ar      1 RES1   0.0000
    73 H25     -5.9138   5.6549   5.9637   H         1 RES1   0.0000
    74 C36     -3.9749   6.6541   8.3165   C.ar      1 RES1   0.0000
    75 H26     -3.9852   6.9871   9.1852   H         1 RES1   0.0000
    76 C37     -2.7603   6.4432   7.6348   C.ar      1 RES1   0.0000
    77 H27     -1.9501   6.6352   8.0479   H         1 RES1   0.0000
    78 C38      8.5550   6.5115   2.0077   C.ar      1 RES1   0.0000
    79 H28      9.3498   6.9290   2.2491   H         1 RES1   0.0000
@<TRIPOS>BOND
     1     1     4    1
     2     2     8    2
     3     3    26    2
     4     4    16   ar
     5     5     1    1
     6     6     5    1
     7     7     9    1
     8     8    37    2
     9     9     1    1
    10    10     5    2
    11    11    10    1
    12    12     9    2
    13    13    12    1
    14    14     1    1
    15    15     1    1
    16    16    12    1
    17    17    18    1
    18    19     6   ar
    19    20    19    1
    20    21    17   ar
    21    22     4   ar
    22    23    22    1
    23    24     7   ar
    24    25    24    1
    25    26    15    2
    26    27    21   ar
    27    28    27    1
    28    29     7   ar
    29    30    29    1
    30    31    10    1
    31    32    29   ar
    32    33    32    1
    33    34    41    2
    34    35    36    1
    35    37     1    1
    36    38    16   ar
    37    39    38    1
    38    40    32   ar
    39    41    40    1
    40    42    43    2
    41    43    21    1
    42    44    22   ar
    43    45    44    1
    44    46    34    1
    45    47    24   ar
    46    48    47    1
    47    49     6   ar
    48    50    49    1
    49    51    38   ar
    50    52    51    1
    51    53    46   ar
    52    54    53    1
    53    55    14   ar
    54    56    55    1
    55    57    35   ar
    56    58    57    1
    57    59    35   ar
    58    60    59    1
    59    61    42    1
    60    62    46   ar
    61    63    62    1
    62    64    55   ar
    63    65    64    1
    64    66    31   ar
    65    67    66    1
    66    68    69    1
    67    70    61   ar
    68    71    70    1
    69    72    68   ar
    70    73    72    1
    71    74    68   ar
    72    75    74    1
    73    76    61   ar
    74    77    76    1
    75    78    64   ar
    76    79    78    1
    77    14    31   ar
    78    17    19   ar
    79    27    49   ar
    80    40    47   ar
    81    44    51   ar
    82    53    59   ar
    83    57    62   ar
    84    66    78   ar
    85    70    72   ar
    86    74    76   ar
@<TRIPOS>SUBSTRUCTURE
     1 RES1        1 GROUP             0 ****  ****    0  
@<TRIPOS>CRYSIN
   15.1196   14.5444   17.0230   90.0000   92.9660   90.0000    14     1
