@<TRIPOS>MOLECULE
XECNAU25
    79    86     1     0     0
SMALL
NO_CHARGES
****
Generated from the CSD

@<TRIPOS>ATOM
     1 Fe1      4.3395   4.1462   0.9741   Fe        1 RES1   0.0000
     2 S1       3.0062   7.1810  -2.4798   S.2       1 RES1   0.0000
     3 S2       6.6665   1.0562  -1.8062   S.2       1 RES1   0.0000
     4 N1       2.5267   3.1252   1.3412   N.ar      1 RES1   0.0000
     5 N2       3.9720   5.4795   2.7035   N.2       1 RES1   0.0000
     6 C1       2.7863   5.5549   3.4895   C.ar      1 RES1   0.0000
     7 C2       6.0874   2.6247   3.2266   C.ar      1 RES1   0.0000
     8 C3       3.3082   6.1407  -1.2622   C.1       1 RES1   0.0000
     9 N3       4.8034   2.7616   2.6151   N.2       1 RES1   0.0000
    10 C4       5.0196   6.0742   3.1200   C.2       1 RES1   0.0000
    11 H1       4.9965   6.5798   3.9119   H         1 RES1   0.0000
    12 C5       3.7815   2.1957   3.1200   C.2       1 RES1   0.0000
    13 H2       3.8558   1.6742   3.8983   H         1 RES1   0.0000
    14 N4       6.1694   5.1932   1.2487   N.ar      1 RES1   0.0000
    15 N5       5.1457   2.9136  -0.4230   N.2       1 RES1   0.0000
    16 C6       2.4914   2.3733   2.4618   C.ar      1 RES1   0.0000
    17 C7       0.4168   5.8272   3.5836   C.ar      1 RES1   0.0000
    18 H3      -0.4072   5.9774   3.1555   H         1 RES1   0.0000
    19 C8       1.5842   5.7680   2.8493   C.ar      1 RES1   0.0000
    20 H4       1.5591   5.8734   1.9153   H         1 RES1   0.0000
    21 C9       0.4699   5.6640   4.9507   C.ar      1 RES1   0.0000
    22 C10      1.3935   3.2588   0.6463   C.ar      1 RES1   0.0000
    23 H5       1.4094   3.7529  -0.1540   H         1 RES1   0.0000
    24 C11      7.1505   2.2751   2.4111   C.ar      1 RES1   0.0000
    25 H6       7.0063   2.0873   1.5008   H         1 RES1   0.0000
    26 C12      5.7780   2.1364  -1.0050   C.1       1 RES1   0.0000
    27 C13      1.6600   5.4458   5.5886   C.ar      1 RES1   0.0000
    28 H7       1.6851   5.3404   6.5226   H         1 RES1   0.0000
    29 C14      6.3071   2.9150   4.5565   C.ar      1 RES1   0.0000
    30 H8       5.5917   3.1635   5.1115   H         1 RES1   0.0000
    31 C15      6.2568   5.9601   2.3519   C.ar      1 RES1   0.0000
    32 C16      7.6018   2.8356   5.0743   C.ar      1 RES1   0.0000
    33 H9       7.7613   3.0292   5.9795   H         1 RES1   0.0000
    34 N6      10.1744   2.2159   5.8323   N.2       1 RES1   0.0000
    35 C17     14.1811   1.6915   7.0725   C.ar      1 RES1   0.0000
    36 H10     15.0587   1.5370   7.3737   H         1 RES1   0.0000
    37 N7       3.5113   5.4126  -0.3807   N.2       1 RES1   0.0000
    38 C18      1.3276   1.8028   2.9322   C.ar      1 RES1   0.0000
    39 H11      1.3299   1.3030   3.7291   H         1 RES1   0.0000
    40 C19      8.6410   2.4745   4.2536   C.ar      1 RES1   0.0000
    41 N8      10.0856   2.3508   4.6513   N.2       1 RES1   0.0000
    42 N9      -1.6026   5.7073   5.3044   N.2       1 RES1   0.0000
    43 N10     -0.7251   5.7969   5.9998   N.2       1 RES1   0.0000
    44 C20      0.1966   2.6984   1.0575   C.ar      1 RES1   0.0000
    45 H12     -0.5820   2.8139   0.5448   H         1 RES1   0.0000
    46 C21     11.6230   2.0628   6.2130   C.ar      1 RES1   0.0000
    47 C22      8.4190   2.2072   2.9373   C.ar      1 RES1   0.0000
    48 H13      9.1405   1.9747   2.3823   H         1 RES1   0.0000
    49 C23      2.8045   5.3837   4.8594   C.ar      1 RES1   0.0000
    50 H14      3.6220   5.2219   5.2942   H         1 RES1   0.0000
    51 C24      0.1584   1.9761   2.2148   C.ar      1 RES1   0.0000
    52 H15     -0.6492   1.6034   2.5194   H         1 RES1   0.0000
    53 C25     12.6690   2.3430   5.3500   C.ar      1 RES1   0.0000
    54 H16     12.5047   2.6492   4.4770   H         1 RES1   0.0000
    55 C26      7.2502   5.0890   0.4771   C.ar      1 RES1   0.0000
    56 H17      7.2017   4.5676  -0.3029   H         1 RES1   0.0000
    57 C27     13.1373   1.4474   7.8948   C.ar      1 RES1   0.0000
    58 H18     13.2954   1.1412   8.7695   H         1 RES1   0.0000
    59 C28     13.9729   2.1581   5.8103   C.ar      1 RES1   0.0000
    60 H19     14.7034   2.3560   5.2536   H         1 RES1   0.0000
    61 C29     -2.8444   5.8980   6.2705   C.ar      1 RES1   0.0000
    62 C30     11.8540   1.6410   7.4735   C.ar      1 RES1   0.0000
    63 H20     11.1355   1.4821   8.0572   H         1 RES1   0.0000
    64 C31      8.4265   5.7160   0.7817   C.ar      1 RES1   0.0000
    65 H21      9.1658   5.6322   0.2047   H         1 RES1   0.0000
    66 C32      7.4246   6.5957   2.7309   C.ar      1 RES1   0.0000
    67 H22      7.4620   7.1041   3.5210   H         1 RES1   0.0000
    68 C33     -5.1906   6.3140   7.6139   C.ar      1 RES1   0.0000
    69 H23     -6.0115   6.4454   8.0521   H         1 RES1   0.0000
    70 C34     -4.0063   5.6322   5.6698   C.ar      1 RES1   0.0000
    71 H24     -4.0146   5.3072   4.7883   H         1 RES1   0.0000
    72 C35     -5.1637   5.8272   6.3297   C.ar      1 RES1   0.0000
    73 H25     -5.9755   5.6250   5.8999   H         1 RES1   0.0000
    74 C36     -4.0081   6.6072   8.2518   C.ar      1 RES1   0.0000
    75 H26     -4.0101   6.9481   9.1282   H         1 RES1   0.0000
    76 C37     -2.7952   6.3862   7.5699   C.ar      1 RES1   0.0000
    77 H27     -1.9706   6.5668   7.9862   H         1 RES1   0.0000
    78 C38      8.5328   6.4628   1.9204   C.ar      1 RES1   0.0000
    79 H28      9.3434   6.8788   2.1471   H         1 RES1   0.0000
@<TRIPOS>BOND
     1     1     4    1
     2     2     8    2
     3     3    26    2
     4     4    16   ar
     5     5     1    1
     6     6     5    1
     7     7     9    1
     8     8    37    2
     9     9     1    1
    10    10     5    2
    11    11    10    1
    12    12     9    2
    13    13    12    1
    14    14     1    1
    15    15     1    1
    16    16    12    1
    17    17    18    1
    18    19     6   ar
    19    20    19    1
    20    21    17   ar
    21    22     4   ar
    22    23    22    1
    23    24     7   ar
    24    25    24    1
    25    26    15    2
    26    27    21   ar
    27    28    27    1
    28    29     7   ar
    29    30    29    1
    30    31    10    1
    31    32    29   ar
    32    33    32    1
    33    34    41    2
    34    35    36    1
    35    37     1    1
    36    38    16   ar
    37    39    38    1
    38    40    32   ar
    39    41    40    1
    40    42    43    2
    41    43    21    1
    42    44    22   ar
    43    45    44    1
    44    46    34    1
    45    47    24   ar
    46    48    47    1
    47    49     6   ar
    48    50    49    1
    49    51    38   ar
    50    52    51    1
    51    53    46   ar
    52    54    53    1
    53    55    14   ar
    54    56    55    1
    55    57    35   ar
    56    58    57    1
    57    59    35   ar
    58    60    59    1
    59    61    42    1
    60    62    46   ar
    61    63    62    1
    62    64    55   ar
    63    65    64    1
    64    66    31   ar
    65    67    66    1
    66    68    69    1
    67    70    61   ar
    68    71    70    1
    69    72    68   ar
    70    73    72    1
    71    74    68   ar
    72    75    74    1
    73    76    61   ar
    74    77    76    1
    75    78    64   ar
    76    79    78    1
    77    14    31   ar
    78    17    19   ar
    79    27    49   ar
    80    40    47   ar
    81    44    51   ar
    82    53    59   ar
    83    57    62   ar
    84    66    78   ar
    85    70    72   ar
    86    74    76   ar
@<TRIPOS>SUBSTRUCTURE
     1 RES1        1 GROUP             0 ****  ****    0  
@<TRIPOS>CRYSIN
   15.0984   14.4452   16.9444   90.0000   93.0860   90.0000    14     1
