@<TRIPOS>MOLECULE
XECNAU02
    79    86     1     0     0
SMALL
NO_CHARGES
****
Generated from the CSD

@<TRIPOS>ATOM
     1 Fe1      4.3134  10.2043   1.1329   Fe        1 RES1   0.0000
     2 N1       3.6540   9.0071  -0.2457   N.2       1 RES1   0.0000
     3 C1       3.3999   8.3061  -1.1403   C.1       1 RES1   0.0000
     4 S1       3.0368   7.2895  -2.3807   S.2       1 RES1   0.0000
     5 N2       4.9281  11.4517  -0.2175   N.2       1 RES1   0.0000
     6 C2       5.5381  12.1872  -0.8802   C.1       1 RES1   0.0000
     7 S2       6.4338  13.2156  -1.7904   S.2       1 RES1   0.0000
     8 C3      -5.3314   8.0353   7.3140   C.ar      1 RES1   0.0000
     9 H1      -6.1295   7.8951   7.7714   H         1 RES1   0.0000
    10 C4      -5.3577   8.4760   5.9908   C.ar      1 RES1   0.0000
    11 H2      -6.1715   8.6311   5.5698   H         1 RES1   0.0000
    12 C5      -4.1690   8.6836   5.3016   C.ar      1 RES1   0.0000
    13 H3      -4.1844   8.9706   4.4166   H         1 RES1   0.0000
    14 C6      -2.9609   8.4603   5.9406   C.ar      1 RES1   0.0000
    15 C7      -2.9207   8.0159   7.2687   C.ar      1 RES1   0.0000
    16 H4      -2.1054   7.8637   7.6901   H         1 RES1   0.0000
    17 C8      -4.1168   7.8057   7.9518   C.ar      1 RES1   0.0000
    18 H5      -4.1026   7.5114   8.8333   H         1 RES1   0.0000
    19 N3      -0.7128   8.5735   5.7363   N.2       1 RES1   0.0000
    20 N4      -1.7991   8.6531   5.1168   N.2       1 RES1   0.0000
    21 C9       0.4200   8.6769   4.8611   C.ar      1 RES1   0.0000
    22 C10      1.6361   8.8862   5.4968   C.ar      1 RES1   0.0000
    23 H6       1.6687   8.9664   6.4226   H         1 RES1   0.0000
    24 C11      2.8044   8.9769   4.7531   C.ar      1 RES1   0.0000
    25 H7       3.6170   9.1389   5.1749   H         1 RES1   0.0000
    26 C12      2.7471   8.8233   3.3691   C.ar      1 RES1   0.0000
    27 C13      1.5312   8.5972   2.7222   C.ar      1 RES1   0.0000
    28 H8       1.5026   8.4985   1.7985   H         1 RES1   0.0000
    29 C14      0.3667   8.5207   3.4694   C.ar      1 RES1   0.0000
    30 H9      -0.4488   8.3658   3.0479   H         1 RES1   0.0000
    31 N5       3.9479   8.9113   2.5929   N.2       1 RES1   0.0000
    32 C15      4.9700   8.2298   2.9853   C.2       1 RES1   0.0000
    33 H10      4.9301   7.6683   3.7264   H         1 RES1   0.0000
    34 N6       6.0450   9.2522   1.1709   N.ar      1 RES1   0.0000
    35 C16      7.0868   9.4068   0.3340   C.ar      1 RES1   0.0000
    36 H11      6.9960   9.9748  -0.3965   H         1 RES1   0.0000
    37 C17      8.2934   8.7473   0.5235   C.ar      1 RES1   0.0000
    38 H12      8.9925   8.8694  -0.0780   H         1 RES1   0.0000
    39 C18      8.4519   7.9045   1.6140   C.ar      1 RES1   0.0000
    40 H13      9.2621   7.4758   1.7703   H         1 RES1   0.0000
    41 C19      7.3695   7.7135   2.4721   C.ar      1 RES1   0.0000
    42 H14      7.4395   7.1463   3.2055   H         1 RES1   0.0000
    43 C20      6.1853   8.3868   2.2070   C.ar      1 RES1   0.0000
    44 C21     14.2241  12.6375   6.9561   C.ar      1 RES1   0.0000
    45 H15     15.0983  12.8105   7.2223   H         1 RES1   0.0000
    46 C22     13.1742  12.8860   7.8275   C.ar      1 RES1   0.0000
    47 H16     13.3448  13.2042   8.6840   H         1 RES1   0.0000
    48 C23     11.8631  12.6582   7.4164   C.ar      1 RES1   0.0000
    49 H17     11.1578  12.8105   8.0037   H         1 RES1   0.0000
    50 C24     11.6109  12.2026   6.1296   C.ar      1 RES1   0.0000
    51 C25     12.6688  11.9154   5.2590   C.ar      1 RES1   0.0000
    52 H18     12.4998  11.5838   4.4067   H         1 RES1   0.0000
    53 C26     13.9746  12.1311   5.6846   C.ar      1 RES1   0.0000
    54 H19     14.6853  11.9361   5.1168   H         1 RES1   0.0000
    55 N7      10.0542  11.9294   4.5373   N.2       1 RES1   0.0000
    56 N8      10.2292  12.0586   5.7738   N.2       1 RES1   0.0000
    57 C27      8.6875  11.7891   4.1411   C.ar      1 RES1   0.0000
    58 C28      8.4342  12.0840   2.8021   C.ar      1 RES1   0.0000
    59 H20      9.1351  12.3312   2.2432   H         1 RES1   0.0000
    60 C29      7.1440  12.0104   2.2994   C.ar      1 RES1   0.0000
    61 H21      6.9736  12.2242   1.4103   H         1 RES1   0.0000
    62 C30      6.1023  11.6115   3.1406   C.ar      1 RES1   0.0000
    63 C31      6.3548  11.2920   4.4800   C.ar      1 RES1   0.0000
    64 H22      5.6589  11.0218   5.0339   H         1 RES1   0.0000
    65 C32      7.6491  11.3805   4.9804   C.ar      1 RES1   0.0000
    66 H23      7.8216  11.1687   5.8701   H         1 RES1   0.0000
    67 N9       4.7961  11.4650   2.5783   N.2       1 RES1   0.0000
    68 C33      3.7991  12.0952   3.1023   C.2       1 RES1   0.0000
    69 H24      3.8942  12.6293   3.8575   H         1 RES1   0.0000
    70 N10      2.5949  11.1302   1.3311   N.ar      1 RES1   0.0000
    71 C34      1.5001  11.0077   0.5688   C.ar      1 RES1   0.0000
    72 H25      1.5530  10.4997  -0.2091   H         1 RES1   0.0000
    73 C35      0.2879  11.6088   0.8910   C.ar      1 RES1   0.0000
    74 H26     -0.4487  11.5096   0.3318   H         1 RES1   0.0000
    75 C36      0.1913  12.3575   2.0562   C.ar      1 RES1   0.0000
    76 H27     -0.6177  12.7378   2.3112   H         1 RES1   0.0000
    77 C37      1.3335  12.5268   2.8368   C.ar      1 RES1   0.0000
    78 H28      1.3043  13.0387   3.6120   H         1 RES1   0.0000
    79 C38      2.5172  11.9183   2.4375   C.ar      1 RES1   0.0000
@<TRIPOS>BOND
     1     1     2    1
     2     2     3    2
     3     3     4    2
     4     5     1    1
     5     6     5    2
     6     7     6    2
     7     8     9    1
     8    10     8   ar
     9    11    10    1
    10    12    10   ar
    11    13    12    1
    12    14    12   ar
    13    15    14   ar
    14    16    15    1
    15    17     8   ar
    16    18    17    1
    17    19    20    2
    18    20    14    1
    19    21    19    1
    20    22    21   ar
    21    23    22    1
    22    24    22   ar
    23    25    24    1
    24    26    24   ar
    25    27    26   ar
    26    28    27    1
    27    29    21   ar
    28    30    29    1
    29    31     1    1
    30    32    31    2
    31    33    32    1
    32    34     1    1
    33    35    34   ar
    34    36    35    1
    35    37    35   ar
    36    38    37    1
    37    39    37   ar
    38    40    39    1
    39    41    39   ar
    40    42    41    1
    41    43    32    1
    42    44    45    1
    43    46    44   ar
    44    47    46    1
    45    48    46   ar
    46    49    48    1
    47    50    48   ar
    48    51    50   ar
    49    52    51    1
    50    53    44   ar
    51    54    53    1
    52    55    56    2
    53    56    50    1
    54    57    55    1
    55    58    57   ar
    56    59    58    1
    57    60    58   ar
    58    61    60    1
    59    62    60   ar
    60    63    62   ar
    61    64    63    1
    62    65    57   ar
    63    66    65    1
    64    67     1    1
    65    68    67    2
    66    69    68    1
    67    70     1    1
    68    71    70   ar
    69    72    71    1
    70    73    71   ar
    71    74    73    1
    72    75    73   ar
    73    76    75    1
    74    77    75   ar
    75    78    77    1
    76    79    68    1
    77    15    17   ar
    78    26    31    1
    79    27    29   ar
    80    34    43   ar
    81    41    43   ar
    82    51    53   ar
    83    62    67    1
    84    63    65   ar
    85    70    79   ar
    86    77    79   ar
@<TRIPOS>SUBSTRUCTURE
     1 RES1        1 GROUP             0 ****  ****    0  
@<TRIPOS>CRYSIN
   15.0060   14.2640   16.6120   90.0000   92.8490   90.0000    14     1
