@<TRIPOS>MOLECULE
XECNAU42
    79    86     1     0     0
SMALL
NO_CHARGES
****
Generated from the CSD

@<TRIPOS>ATOM
     1 Fe1      4.3549   4.1711   0.9485   Fe        1 RES1   0.0000
     2 S1       2.9891   7.2146  -2.4946   S.2       1 RES1   0.0000
     3 S2       6.6974   1.0563  -1.8065   S.2       1 RES1   0.0000
     4 N1       2.5233   3.1319   1.3319   N.ar      1 RES1   0.0000
     5 N2       3.9846   5.5121   2.7266   N.2       1 RES1   0.0000
     6 C1       2.7924   5.5881   3.5076   C.ar      1 RES1   0.0000
     7 C2       6.0895   2.6243   3.2460   C.ar      1 RES1   0.0000
     8 C3       3.2955   6.1785  -1.2808   C.1       1 RES1   0.0000
     9 N3       4.8102   2.7629   2.6220   N.2       1 RES1   0.0000
    10 C4       5.0382   6.0915   3.1458   C.2       1 RES1   0.0000
    11 H1       5.0188   6.5818   3.9357   H         1 RES1   0.0000
    12 C5       3.7744   2.2080   3.1203   C.2       1 RES1   0.0000
    13 H2       3.8390   1.6959   3.8932   H         1 RES1   0.0000
    14 N4       6.1974   5.2341   1.2700   N.ar      1 RES1   0.0000
    15 N5       5.1968   2.9377  -0.4534   N.2       1 RES1   0.0000
    16 C6       2.4887   2.3893   2.4562   C.ar      1 RES1   0.0000
    17 C7       0.4263   5.8492   3.6011   C.ar      1 RES1   0.0000
    18 H3      -0.3901   5.9899   3.1781   H         1 RES1   0.0000
    19 C8       1.5963   5.7955   2.8622   C.ar      1 RES1   0.0000
    20 H4       1.5715   5.9000   1.9381   H         1 RES1   0.0000
    21 C9       0.4852   5.6925   4.9633   C.ar      1 RES1   0.0000
    22 C10      1.3844   3.2670   0.6557   C.ar      1 RES1   0.0000
    23 H5       1.3947   3.7617  -0.1325   H         1 RES1   0.0000
    24 C11      7.1556   2.2834   2.4426   C.ar      1 RES1   0.0000
    25 H6       7.0193   2.1064   1.5406   H         1 RES1   0.0000
    26 C12      5.8243   2.1514  -1.0243   C.1       1 RES1   0.0000
    27 C13      1.6649   5.4749   5.6037   C.ar      1 RES1   0.0000
    28 H7       1.6867   5.3632   6.5261   H         1 RES1   0.0000
    29 C14      6.3011   2.9116   4.5794   C.ar      1 RES1   0.0000
    30 H8       5.5887   3.1582   5.1264   H         1 RES1   0.0000
    31 C15      6.2777   5.9812   2.3798   C.ar      1 RES1   0.0000
    32 C16      7.5914   2.8260   5.0992   C.ar      1 RES1   0.0000
    33 H9       7.7460   3.0059   5.9995   H         1 RES1   0.0000
    34 N6      10.1523   2.2326   5.8330   N.2       1 RES1   0.0000
    35 C17     14.1753   1.7089   7.0951   C.ar      1 RES1   0.0000
    36 H10     15.0386   1.5581   7.4042   H         1 RES1   0.0000
    37 N7       3.5014   5.4517  -0.4077   N.2       1 RES1   0.0000
    38 C18      1.3325   1.8192   2.9352   C.ar      1 RES1   0.0000
    39 H11      1.3386   1.3288   3.7267   H         1 RES1   0.0000
    40 C19      8.6267   2.4778   4.2805   C.ar      1 RES1   0.0000
    41 N8      10.1156   2.3545   4.6780   N.2       1 RES1   0.0000
    42 N9      -1.5552   5.7375   5.3268   N.2       1 RES1   0.0000
    43 N10     -0.7305   5.8333   6.0487   N.2       1 RES1   0.0000
    44 C20      0.1896   2.7085   1.0650   C.ar      1 RES1   0.0000
    45 H12     -0.5831   2.8216   0.5605   H         1 RES1   0.0000
    46 C21     11.6348   2.0745   6.2084   C.ar      1 RES1   0.0000
    47 C22      8.4154   2.2065   2.9692   C.ar      1 RES1   0.0000
    48 H13      9.1292   1.9657   2.4239   H         1 RES1   0.0000
    49 C23      2.8101   5.4213   4.8767   C.ar      1 RES1   0.0000
    50 H14      3.6200   5.2689   5.3082   H         1 RES1   0.0000
    51 C24      0.1626   1.9875   2.2252   C.ar      1 RES1   0.0000
    52 H15     -0.6322   1.6146   2.5309   H         1 RES1   0.0000
    53 C25     12.6820   2.3429   5.3625   C.ar      1 RES1   0.0000
    54 H16     12.5288   2.6359   4.4945   H         1 RES1   0.0000
    55 C26      7.2913   5.1442   0.5215   C.ar      1 RES1   0.0000
    56 H17      7.2573   4.6393  -0.2582   H         1 RES1   0.0000
    57 C27     13.1317   1.4710   7.9002   C.ar      1 RES1   0.0000
    58 H18     13.2805   1.1722   8.7682   H         1 RES1   0.0000
    59 C28     13.9883   2.1644   5.8398   C.ar      1 RES1   0.0000
    60 H19     14.7171   2.3588   5.2963   H         1 RES1   0.0000
    61 C29     -2.8118   5.9334   6.3290   C.ar      1 RES1   0.0000
    62 C30     11.8551   1.6596   7.4620   C.ar      1 RES1   0.0000
    63 H20     11.1385   1.5000   8.0327   H         1 RES1   0.0000
    64 C31      8.4710   5.7665   0.8493   C.ar      1 RES1   0.0000
    65 H21      9.2125   5.6867   0.2939   H         1 RES1   0.0000
    66 C32      7.4381   6.6123   2.7857   C.ar      1 RES1   0.0000
    67 H22      7.4641   7.1026   3.5756   H         1 RES1   0.0000
    68 C33     -5.1618   6.3381   7.6522   C.ar      1 RES1   0.0000
    69 H23     -5.9754   6.4672   8.0854   H         1 RES1   0.0000
    70 C34     -3.9756   5.6592   5.7311   C.ar      1 RES1   0.0000
    71 H24     -3.9790   5.3357   4.8597   H         1 RES1   0.0000
    72 C35     -5.1374   5.8463   6.3715   C.ar      1 RES1   0.0000
    73 H25     -5.9368   5.6389   5.9434   H         1 RES1   0.0000
    74 C36     -3.9870   6.6399   8.2994   C.ar      1 RES1   0.0000
    75 H26     -3.9954   6.9779   9.1657   H         1 RES1   0.0000
    76 C37     -2.7735   6.4252   7.6234   C.ar      1 RES1   0.0000
    77 H27     -1.9612   6.6108   8.0378   H         1 RES1   0.0000
    78 C38      8.5477   6.4948   1.9908   C.ar      1 RES1   0.0000
    79 H28      9.3436   6.9111   2.2303   H         1 RES1   0.0000
@<TRIPOS>BOND
     1     1     4    1
     2     2     8    2
     3     3    26    2
     4     4    16   ar
     5     5     1    1
     6     6     5    1
     7     7     9    1
     8     8    37    2
     9     9     1    1
    10    10     5    2
    11    11    10    1
    12    12     9    2
    13    13    12    1
    14    14     1    1
    15    15     1    1
    16    16    12    1
    17    17    18    1
    18    19     6   ar
    19    20    19    1
    20    21    17   ar
    21    22     4   ar
    22    23    22    1
    23    24     7   ar
    24    25    24    1
    25    26    15    2
    26    27    21   ar
    27    28    27    1
    28    29     7   ar
    29    30    29    1
    30    31    10    1
    31    32    29   ar
    32    33    32    1
    33    34    41    2
    34    35    36    1
    35    37     1    1
    36    38    16   ar
    37    39    38    1
    38    40    32   ar
    39    41    40    1
    40    42    43    2
    41    43    21    1
    42    44    22   ar
    43    45    44    1
    44    46    34    1
    45    47    24   ar
    46    48    47    1
    47    49     6   ar
    48    50    49    1
    49    51    38   ar
    50    52    51    1
    51    53    46   ar
    52    54    53    1
    53    55    14   ar
    54    56    55    1
    55    57    35   ar
    56    58    57    1
    57    59    35   ar
    58    60    59    1
    59    61    42    1
    60    62    46   ar
    61    63    62    1
    62    64    55   ar
    63    65    64    1
    64    66    31   ar
    65    67    66    1
    66    68    69    1
    67    70    61   ar
    68    71    70    1
    69    72    68   ar
    70    73    72    1
    71    74    68   ar
    72    75    74    1
    73    76    61   ar
    74    77    76    1
    75    78    64   ar
    76    79    78    1
    77    14    31   ar
    78    17    19   ar
    79    27    49   ar
    80    40    47   ar
    81    44    51   ar
    82    53    59   ar
    83    57    62   ar
    84    66    78   ar
    85    70    72   ar
    86    74    76   ar
@<TRIPOS>SUBSTRUCTURE
     1 RES1        1 GROUP             0 ****  ****    0  
@<TRIPOS>CRYSIN
   15.1158   14.5070   17.0102   90.0000   93.0510   90.0000    14     1
