@<TRIPOS>MOLECULE
XECNAU08
    79    86     1     0     0
SMALL
NO_CHARGES
****
Generated from the CSD

@<TRIPOS>ATOM
     1 Fe1      4.3205   4.0915   1.1328   Fe        1 RES1   0.0000
     2 S1       3.0491   7.0099  -2.3747   S.2       1 RES1   0.0000
     3 S2       6.4202   1.0720  -1.7998   S.2       1 RES1   0.0000
     4 N1       2.6005   3.1586   1.3374   N.ar      1 RES1   0.0000
     5 N2       3.9494   5.3872   2.5991   N.2       1 RES1   0.0000
     6 C1       2.7452   5.4789   3.3797   C.ar      1 RES1   0.0000
     7 C2       6.1092   2.6671   3.1436   C.ar      1 RES1   0.0000
     8 C3       3.4083   5.9976  -1.1346   C.1       1 RES1   0.0000
     9 N3       4.8019   2.8193   2.5768   N.2       1 RES1   0.0000
    10 C4       4.9665   6.0708   2.9835   C.2       1 RES1   0.0000
    11 H1       4.9245   6.6464   3.7387   H         1 RES1   0.0000
    12 C5       3.8047   2.1876   3.0874   C.2       1 RES1   0.0000
    13 H2       3.9024   1.6375   3.8552   H         1 RES1   0.0000
    14 N4       6.0535   5.0473   1.1830   N.ar      1 RES1   0.0000
    15 N5       4.9443   2.8479  -0.2241   N.2       1 RES1   0.0000
    16 C6       2.5210   2.3581   2.4278   C.ar      1 RES1   0.0000
    17 C7       0.3715   5.7844   3.4822   C.ar      1 RES1   0.0000
    18 H3      -0.4598   5.9471   3.0512   H         1 RES1   0.0000
    19 C8       1.5386   5.7111   2.7341   C.ar      1 RES1   0.0000
    20 H4       1.5120   5.8190   1.7911   H         1 RES1   0.0000
    21 C9       0.4177   5.6203   4.8558   C.ar      1 RES1   0.0000
    22 C10      1.5022   3.2829   0.5858   C.ar      1 RES1   0.0000
    23 H5       1.5519   3.8088  -0.2031   H         1 RES1   0.0000
    24 C11      7.1452   2.2675   2.3160   C.ar      1 RES1   0.0000
    25 H6       6.9748   2.0490   1.4066   H         1 RES1   0.0000
    26 C12      5.5423   2.1052  -0.8879   C.1       1 RES1   0.0000
    27 C13      1.6176   5.4016   5.4849   C.ar      1 RES1   0.0000
    28 H7       1.6479   5.3111   6.4304   H         1 RES1   0.0000
    29 C14      6.3549   2.9851   4.4720   C.ar      1 RES1   0.0000
    30 H8       5.6427   3.2649   5.0355   H         1 RES1   0.0000
    31 C15      6.1813   5.9208   2.2083   C.ar      1 RES1   0.0000
    32 C16      7.6435   2.8912   4.9730   C.ar      1 RES1   0.0000
    33 H9       7.8184   3.1052   5.8827   H         1 RES1   0.0000
    34 N6      10.2183   2.2194   5.7687   N.2       1 RES1   0.0000
    35 C17     14.2049   1.6484   6.9714   C.ar      1 RES1   0.0000
    36 H10     15.0970   1.4763   7.2494   H         1 RES1   0.0000
    37 N7       3.6578   5.2944  -0.2405   N.2       1 RES1   0.0000
    38 C18      1.3450   1.7496   2.8192   C.ar      1 RES1   0.0000
    39 H11      1.3159   1.2173   3.6056   H         1 RES1   0.0000
    40 C19      8.6790   2.4832   4.1426   C.ar      1 RES1   0.0000
    41 N8      10.0521   2.3421   4.5379   N.2       1 RES1   0.0000
    42 N9      -1.7880   5.6514   5.1258   N.2       1 RES1   0.0000
    43 N10     -0.7311   5.7246   5.7497   N.2       1 RES1   0.0000
    44 C20      0.2996   2.6830   0.9021   C.ar      1 RES1   0.0000
    45 H12     -0.4565   2.7901   0.3363   H         1 RES1   0.0000
    46 C21     11.6091   2.0702   6.1378   C.ar      1 RES1   0.0000
    47 C22      8.4264   2.1877   2.8197   C.ar      1 RES1   0.0000
    48 H13      9.1401   1.9267   2.2506   H         1 RES1   0.0000
    49 C23      2.7804   5.3125   4.7475   C.ar      1 RES1   0.0000
    50 H14      3.6056   5.1370   5.1836   H         1 RES1   0.0000
    51 C24      0.2119   1.9266   2.0486   C.ar      1 RES1   0.0000
    52 H15     -0.6137   1.5325   2.3055   H         1 RES1   0.0000
    53 C25     12.6650   2.3417   5.2687   C.ar      1 RES1   0.0000
    54 H16     12.4966   2.6635   4.3913   H         1 RES1   0.0000
    55 C26      7.1056   4.8998   0.3689   C.ar      1 RES1   0.0000
    56 H17      7.0265   4.3110  -0.3712   H         1 RES1   0.0000
    57 C27     13.1614   1.4135   7.8277   C.ar      1 RES1   0.0000
    58 H18     13.3315   1.0979   8.7076   H         1 RES1   0.0000
    59 C28     13.9593   2.1351   5.7040   C.ar      1 RES1   0.0000
    60 H19     14.6868   2.3296   5.1253   H         1 RES1   0.0000
    61 C29     -2.9685   5.8383   5.9710   C.ar      1 RES1   0.0000
    62 C30     11.8579   1.6349   7.4134   C.ar      1 RES1   0.0000
    63 H20     11.1363   1.4850   8.0135   H         1 RES1   0.0000
    64 C31      8.2953   5.5629   0.5576   C.ar      1 RES1   0.0000
    65 H21      9.0122   5.4420  -0.0549   H         1 RES1   0.0000
    66 C32      7.3565   6.5968   2.4774   C.ar      1 RES1   0.0000
    67 H22      7.4197   7.1831   3.2227   H         1 RES1   0.0000
    68 C33     -5.3226   6.2579   7.3410   C.ar      1 RES1   0.0000
    69 H23     -6.1411   6.3946   7.8020   H         1 RES1   0.0000
    70 C34     -4.1581   5.6264   5.3434   C.ar      1 RES1   0.0000
    71 H24     -4.1794   5.3399   4.4362   H         1 RES1   0.0000
    72 C35     -5.3331   5.8308   6.0326   C.ar      1 RES1   0.0000
    73 H25     -6.1630   5.6751   5.5998   H         1 RES1   0.0000
    74 C36     -4.1188   6.4867   7.9852   C.ar      1 RES1   0.0000
    75 H26     -4.1078   6.7860   8.8874   H         1 RES1   0.0000
    76 C37     -2.9148   6.2719   7.2960   C.ar      1 RES1   0.0000
    77 H27     -2.0791   6.4191   7.7238   H         1 RES1   0.0000
    78 C38      8.4410   6.4004   1.6347   C.ar      1 RES1   0.0000
    79 H28      9.2689   6.8378   1.8011   H         1 RES1   0.0000
@<TRIPOS>BOND
     1     1     4    1
     2     2     8    2
     3     3    26    2
     4     4    16   ar
     5     5     1    1
     6     6     5    1
     7     7     9    1
     8     8    37    2
     9     9     1    1
    10    10     5    2
    11    11    10    1
    12    12     9    2
    13    13    12    1
    14    14     1    1
    15    15     1    1
    16    16    12    1
    17    17    18    1
    18    19     6   ar
    19    20    19    1
    20    21    17   ar
    21    22     4   ar
    22    23    22    1
    23    24     7   ar
    24    25    24    1
    25    26    15    2
    26    27    21   ar
    27    28    27    1
    28    29     7   ar
    29    30    29    1
    30    31    10    1
    31    32    29   ar
    32    33    32    1
    33    34    41    2
    34    35    36    1
    35    37     1    1
    36    38    16   ar
    37    39    38    1
    38    40    32   ar
    39    41    40    1
    40    42    43    2
    41    43    21    1
    42    44    22   ar
    43    45    44    1
    44    46    34    1
    45    47    24   ar
    46    48    47    1
    47    49     6   ar
    48    50    49    1
    49    51    38   ar
    50    52    51    1
    51    53    46   ar
    52    54    53    1
    53    55    14   ar
    54    56    55    1
    55    57    35   ar
    56    58    57    1
    57    59    35   ar
    58    60    59    1
    59    61    42    1
    60    62    46   ar
    61    63    62    1
    62    64    55   ar
    63    65    64    1
    64    66    31   ar
    65    67    66    1
    66    68    69    1
    67    70    61   ar
    68    71    70    1
    69    72    68   ar
    70    73    72    1
    71    74    68   ar
    72    75    74    1
    73    76    61   ar
    74    77    76    1
    75    78    64   ar
    76    79    78    1
    77    14    31   ar
    78    17    19   ar
    79    27    49   ar
    80    40    47   ar
    81    44    51   ar
    82    53    59   ar
    83    57    62   ar
    84    66    78   ar
    85    70    72   ar
    86    74    76   ar
@<TRIPOS>SUBSTRUCTURE
     1 RES1        1 GROUP             0 ****  ****    0  
@<TRIPOS>CRYSIN
   15.0133   14.3893   16.6664   90.0000   92.8250   90.0000    14     1
