@<TRIPOS>MOLECULE
XECNAU38
    79    86     1     0     0
SMALL
NO_CHARGES
****
Generated from the CSD

@<TRIPOS>ATOM
     1 Fe1      4.3566   4.1734   0.9464   Fe        1 RES1   0.0000
     2 S1       2.9854   7.2141  -2.4917   S.2       1 RES1   0.0000
     3 S2       6.6953   1.0560  -1.8074   S.2       1 RES1   0.0000
     4 N1       2.5226   3.1337   1.3347   N.ar      1 RES1   0.0000
     5 N2       3.9909   5.5107   2.7256   N.2       1 RES1   0.0000
     6 C1       2.7999   5.5882   3.5146   C.ar      1 RES1   0.0000
     7 C2       6.0826   2.6257   3.2496   C.ar      1 RES1   0.0000
     8 C3       3.2974   6.1731  -1.2842   C.1       1 RES1   0.0000
     9 N3       4.8132   2.7651   2.6193   N.2       1 RES1   0.0000
    10 C4       5.0409   6.0948   3.1460   C.2       1 RES1   0.0000
    11 H1       5.0203   6.5883   3.9342   H         1 RES1   0.0000
    12 C5       3.7838   2.2135   3.1121   C.2       1 RES1   0.0000
    13 H2       3.8502   1.7011   3.8850   H         1 RES1   0.0000
    14 N4       6.2073   5.2413   1.2757   N.ar      1 RES1   0.0000
    15 N5       5.1983   2.9407  -0.4536   N.2       1 RES1   0.0000
    16 C6       2.4904   2.3920   2.4529   C.ar      1 RES1   0.0000
    17 C7       0.4297   5.8509   3.5843   C.ar      1 RES1   0.0000
    18 H3      -0.3815   5.9845   3.1511   H         1 RES1   0.0000
    19 C8       1.6024   5.8001   2.8708   C.ar      1 RES1   0.0000
    20 H4       1.5863   5.9075   1.9484   H         1 RES1   0.0000
    21 C9       0.4729   5.7014   4.9382   C.ar      1 RES1   0.0000
    22 C10      1.3874   3.2702   0.6540   C.ar      1 RES1   0.0000
    23 H5       1.3989   3.7637  -0.1342   H         1 RES1   0.0000
    24 C11      7.1614   2.2904   2.4546   C.ar      1 RES1   0.0000
    25 H6       7.0263   2.1134   1.5526   H         1 RES1   0.0000
    26 C12      5.8163   2.1598  -1.0226   C.1       1 RES1   0.0000
    27 C13      1.6605   5.4837   5.5973   C.ar      1 RES1   0.0000
    28 H7       1.6750   5.3792   6.5214   H         1 RES1   0.0000
    29 C14      6.2853   2.9088   4.5865   C.ar      1 RES1   0.0000
    30 H8       5.5733   3.1483   5.1335   H         1 RES1   0.0000
    31 C15      6.2766   5.9845   2.3833   C.ar      1 RES1   0.0000
    32 C16      7.5849   2.8304   5.0996   C.ar      1 RES1   0.0000
    33 H9       7.7414   3.0205   5.9965   H         1 RES1   0.0000
    34 N6      10.1560   2.2309   5.8300   N.2       1 RES1   0.0000
    35 C17     14.1713   1.7127   7.1125   C.ar      1 RES1   0.0000
    36 H10     15.0306   1.5705   7.4370   H         1 RES1   0.0000
    37 N7       3.5032   5.4547  -0.4060   N.2       1 RES1   0.0000
    38 C18      1.3289   1.8173   2.9269   C.ar      1 RES1   0.0000
    39 H11      1.3342   1.3208   3.7117   H         1 RES1   0.0000
    40 C19      8.6316   2.4733   4.2825   C.ar      1 RES1   0.0000
    41 N8      10.1173   2.3558   4.6783   N.2       1 RES1   0.0000
    42 N9      -1.5391   5.7377   5.3204   N.2       1 RES1   0.0000
    43 N10     -0.7256   5.8335   6.0525   N.2       1 RES1   0.0000
    44 C20      0.1928   2.7114   1.0668   C.ar      1 RES1   0.0000
    45 H12     -0.5814   2.8275   0.5623   H         1 RES1   0.0000
    46 C21     11.6336   2.0756   6.2088   C.ar      1 RES1   0.0000
    47 C22      8.4183   2.2150   2.9745   C.ar      1 RES1   0.0000
    48 H13      9.1336   1.9856   2.4241   H         1 RES1   0.0000
    49 C23      2.8125   5.4256   4.8753   C.ar      1 RES1   0.0000
    50 H14      3.6191   5.2732   5.3102   H         1 RES1   0.0000
    51 C24      0.1639   1.9914   2.2117   C.ar      1 RES1   0.0000
    52 H15     -0.6334   1.6199   2.5141   H         1 RES1   0.0000
    53 C25     12.6867   2.3412   5.3561   C.ar      1 RES1   0.0000
    54 H16     12.5379   2.6330   4.4846   H         1 RES1   0.0000
    55 C26      7.2967   5.1586   0.5266   C.ar      1 RES1   0.0000
    56 H17      7.2645   4.6665  -0.2633   H         1 RES1   0.0000
    57 C27     13.1172   1.4762   7.8973   C.ar      1 RES1   0.0000
    58 H18     13.2554   1.1801   8.7688   H         1 RES1   0.0000
    59 C28     13.9951   2.1569   5.8453   C.ar      1 RES1   0.0000
    60 H19     14.7295   2.3383   5.3051   H         1 RES1   0.0000
    61 C29     -2.7980   5.9409   6.3498   C.ar      1 RES1   0.0000
    62 C30     11.8546   1.6590   7.4557   C.ar      1 RES1   0.0000
    63 H20     11.1370   1.4921   8.0230   H         1 RES1   0.0000
    64 C31      8.4809   5.7812   0.8799   C.ar      1 RES1   0.0000
    65 H21      9.2305   5.7014   0.3363   H         1 RES1   0.0000
    66 C32      7.4342   6.6115   2.7825   C.ar      1 RES1   0.0000
    67 H22      7.4513   7.1035   3.5707   H         1 RES1   0.0000
    68 C33     -5.1670   6.3372   7.6527   C.ar      1 RES1   0.0000
    69 H23     -5.9831   6.4605   8.0808   H         1 RES1   0.0000
    70 C34     -3.9619   5.6695   5.7281   C.ar      1 RES1   0.0000
    71 H24     -3.9609   5.3531   4.8532   H         1 RES1   0.0000
    72 C35     -5.1299   5.8567   6.3804   C.ar      1 RES1   0.0000
    73 H25     -5.9291   5.6521   5.9489   H         1 RES1   0.0000
    74 C36     -4.0017   6.6405   8.3050   C.ar      1 RES1   0.0000
    75 H26     -4.0190   6.9758   9.1731   H         1 RES1   0.0000
    76 C37     -2.7741   6.4344   7.6391   C.ar      1 RES1   0.0000
    77 H27     -1.9668   6.6260   8.0604   H         1 RES1   0.0000
    78 C38      8.5430   6.5084   2.0198   C.ar      1 RES1   0.0000
    79 H28      9.3336   6.9265   2.2712   H         1 RES1   0.0000
@<TRIPOS>BOND
     1     1     4    1
     2     2     8    2
     3     3    26    2
     4     4    16   ar
     5     5     1    1
     6     6     5    1
     7     7     9    1
     8     8    37    2
     9     9     1    1
    10    10     5    2
    11    11    10    1
    12    12     9    2
    13    13    12    1
    14    14     1    1
    15    15     1    1
    16    16    12    1
    17    17    18    1
    18    19     6   ar
    19    20    19    1
    20    21    17   ar
    21    22     4   ar
    22    23    22    1
    23    24     7   ar
    24    25    24    1
    25    26    15    2
    26    27    21   ar
    27    28    27    1
    28    29     7   ar
    29    30    29    1
    30    31    10    1
    31    32    29   ar
    32    33    32    1
    33    34    41    2
    34    35    36    1
    35    37     1    1
    36    38    16   ar
    37    39    38    1
    38    40    32   ar
    39    41    40    1
    40    42    43    2
    41    43    21    1
    42    44    22   ar
    43    45    44    1
    44    46    34    1
    45    47    24   ar
    46    48    47    1
    47    49     6   ar
    48    50    49    1
    49    51    38   ar
    50    52    51    1
    51    53    46   ar
    52    54    53    1
    53    55    14   ar
    54    56    55    1
    55    57    35   ar
    56    58    57    1
    57    59    35   ar
    58    60    59    1
    59    61    42    1
    60    62    46   ar
    61    63    62    1
    62    64    55   ar
    63    65    64    1
    64    66    31   ar
    65    67    66    1
    66    68    69    1
    67    70    61   ar
    68    71    70    1
    69    72    68   ar
    70    73    72    1
    71    74    68   ar
    72    75    74    1
    73    76    61   ar
    74    77    76    1
    75    78    64   ar
    76    79    78    1
    77    14    31   ar
    78    17    19   ar
    79    27    49   ar
    80    40    47   ar
    81    44    51   ar
    82    53    59   ar
    83    57    62   ar
    84    66    78   ar
    85    70    72   ar
    86    74    76   ar
@<TRIPOS>SUBSTRUCTURE
     1 RES1        1 GROUP             0 ****  ****    0  
@<TRIPOS>CRYSIN
   15.1117   14.5148   17.0110   90.0000   93.0320   90.0000    14     1
