@<TRIPOS>MOLECULE
XECNAU41
    79    86     1     0     0
SMALL
NO_CHARGES
****
Generated from the CSD

@<TRIPOS>ATOM
     1 Fe1      4.3732   4.1903   0.9404   Fe        1 RES1   0.0000
     2 S1       2.9791   7.2295  -2.4952   S.2       1 RES1   0.0000
     3 S2       6.6992   1.0597  -1.8129   S.2       1 RES1   0.0000
     4 N1       2.5384   3.1426   1.3303   N.ar      1 RES1   0.0000
     5 N2       3.9999   5.5302   2.7302   N.2       1 RES1   0.0000
     6 C1       2.8054   5.6081   3.5183   C.ar      1 RES1   0.0000
     7 C2       6.0949   2.6336   3.2514   C.ar      1 RES1   0.0000
     8 C3       3.2992   6.2010  -1.2839   C.1       1 RES1   0.0000
     9 N3       4.8252   2.7746   2.6181   N.2       1 RES1   0.0000
    10 C4       5.0490   6.1165   3.1510   C.2       1 RES1   0.0000
    11 H1       5.0269   6.6117   3.9367   H         1 RES1   0.0000
    12 C5       3.7912   2.2199   3.1102   C.2       1 RES1   0.0000
    13 H2       3.8561   1.7057   3.8823   H         1 RES1   0.0000
    14 N4       6.2226   5.2585   1.2771   N.ar      1 RES1   0.0000
    15 N5       5.2265   2.9555  -0.4659   N.2       1 RES1   0.0000
    16 C6       2.5002   2.4006   2.4487   C.ar      1 RES1   0.0000
    17 C7       0.4363   5.8718   3.5915   C.ar      1 RES1   0.0000
    18 H3      -0.3781   6.0145   3.1629   H         1 RES1   0.0000
    19 C8       1.6142   5.8149   2.8585   C.ar      1 RES1   0.0000
    20 H4       1.5979   5.9155   1.9352   H         1 RES1   0.0000
    21 C9       0.4849   5.7174   4.9485   C.ar      1 RES1   0.0000
    22 C10      1.4004   3.2818   0.6513   C.ar      1 RES1   0.0000
    23 H5       1.4120   3.7786  -0.1360   H         1 RES1   0.0000
    24 C11      7.1681   2.2928   2.4657   C.ar      1 RES1   0.0000
    25 H6       7.0343   2.1107   1.5628   H         1 RES1   0.0000
    26 C12      5.8390   2.1617  -1.0288   C.1       1 RES1   0.0000
    27 C13      1.6630   5.5091   5.5981   C.ar      1 RES1   0.0000
    28 H7       1.6778   5.4085   6.5214   H         1 RES1   0.0000
    29 C14      6.3036   2.9177   4.5829   C.ar      1 RES1   0.0000
    30 H8       5.5920   3.1624   5.1304   H         1 RES1   0.0000
    31 C15      6.2890   6.0043   2.3858   C.ar      1 RES1   0.0000
    32 C16      7.5989   2.8332   5.1015   C.ar      1 RES1   0.0000
    33 H9       7.7527   3.0211   5.9977   H         1 RES1   0.0000
    34 N6      10.1482   2.2432   5.8225   N.2       1 RES1   0.0000
    35 C17     14.1795   1.7203   7.1081   C.ar      1 RES1   0.0000
    36 H10     15.0400   1.5790   7.4329   H         1 RES1   0.0000
    37 N7       3.5162   5.4799  -0.4115   N.2       1 RES1   0.0000
    38 C18      1.3445   1.8266   2.9266   C.ar      1 RES1   0.0000
    39 H11      1.3526   1.3314   3.7139   H         1 RES1   0.0000
    40 C19      8.6370   2.4763   4.2921   C.ar      1 RES1   0.0000
    41 N8      10.1472   2.3598   4.6883   N.2       1 RES1   0.0000
    42 N9      -1.5172   5.7625   5.3260   N.2       1 RES1   0.0000
    43 N10     -0.7369   5.8645   6.0674   N.2       1 RES1   0.0000
    44 C20      0.2043   2.7239   1.0611   C.ar      1 RES1   0.0000
    45 H12     -0.5685   2.8405   0.5578   H         1 RES1   0.0000
    46 C21     11.6612   2.0874   6.1949   C.ar      1 RES1   0.0000
    47 C22      8.4270   2.2156   2.9861   C.ar      1 RES1   0.0000
    48 H13      9.1416   1.9840   2.4385   H         1 RES1   0.0000
    49 C23      2.8173   5.4493   4.8822   C.ar      1 RES1   0.0000
    50 H14      3.6236   5.2978   5.3226   H         1 RES1   0.0000
    51 C24      0.1785   2.0000   2.2158   C.ar      1 RES1   0.0000
    52 H15     -0.6190   1.6271   2.5201   H         1 RES1   0.0000
    53 C25     12.7159   2.3423   5.3549   C.ar      1 RES1   0.0000
    54 H16     12.5746   2.6263   4.4808   H         1 RES1   0.0000
    55 C26      7.3152   5.1711   0.5374   C.ar      1 RES1   0.0000
    56 H17      7.2854   4.6656  -0.2415   H         1 RES1   0.0000
    57 C27     13.1319   1.4843   7.8954   C.ar      1 RES1   0.0000
    58 H18     13.2719   1.1857   8.7661   H         1 RES1   0.0000
    59 C28     14.0108   2.1617   5.8531   C.ar      1 RES1   0.0000
    60 H19     14.7490   2.3452   5.3175   H         1 RES1   0.0000
    61 C29     -2.7674   5.9679   6.3786   C.ar      1 RES1   0.0000
    62 C30     11.8646   1.6737   7.4499   C.ar      1 RES1   0.0000
    63 H20     11.1417   1.5164   8.0128   H         1 RES1   0.0000
    64 C31      8.4958   5.7960   0.8724   C.ar      1 RES1   0.0000
    65 H21      9.2410   5.7174   0.3197   H         1 RES1   0.0000
    66 C32      7.4475   6.6380   2.7990   C.ar      1 RES1   0.0000
    67 H22      7.4705   7.1259   3.5898   H         1 RES1   0.0000
    68 C33     -5.1394   6.3597   7.6625   C.ar      1 RES1   0.0000
    69 H23     -5.9567   6.4835   8.0876   H         1 RES1   0.0000
    70 C34     -3.9316   5.6868   5.7511   C.ar      1 RES1   0.0000
    71 H24     -3.9233   5.3619   4.8805   H         1 RES1   0.0000
    72 C35     -5.1060   5.8747   6.3888   C.ar      1 RES1   0.0000
    73 H25     -5.9020   5.6722   5.9535   H         1 RES1   0.0000
    74 C36     -3.9710   6.6671   8.3257   C.ar      1 RES1   0.0000
    75 H26     -3.9867   7.0050   9.1929   H         1 RES1   0.0000
    76 C37     -2.7616   6.4544   7.6557   C.ar      1 RES1   0.0000
    77 H27     -1.9544   6.6452   8.0774   H         1 RES1   0.0000
    78 C38      8.5620   6.5214   2.0032   C.ar      1 RES1   0.0000
    79 H28      9.3572   6.9395   2.2464   H         1 RES1   0.0000
@<TRIPOS>BOND
     1     1     4    1
     2     2     8    2
     3     3    26    2
     4     4    16   ar
     5     5     1    1
     6     6     5    1
     7     7     9    1
     8     8    37    2
     9     9     1    1
    10    10     5    2
    11    11    10    1
    12    12     9    2
    13    13    12    1
    14    14     1    1
    15    15     1    1
    16    16    12    1
    17    17    18    1
    18    19     6   ar
    19    20    19    1
    20    21    17   ar
    21    22     4   ar
    22    23    22    1
    23    24     7   ar
    24    25    24    1
    25    26    15    2
    26    27    21   ar
    27    28    27    1
    28    29     7   ar
    29    30    29    1
    30    31    10    1
    31    32    29   ar
    32    33    32    1
    33    34    41    2
    34    35    36    1
    35    37     1    1
    36    38    16   ar
    37    39    38    1
    38    40    32   ar
    39    41    40    1
    40    42    43    2
    41    43    21    1
    42    44    22   ar
    43    45    44    1
    44    46    34    1
    45    47    24   ar
    46    48    47    1
    47    49     6   ar
    48    50    49    1
    49    51    38   ar
    50    52    51    1
    51    53    46   ar
    52    54    53    1
    53    55    14   ar
    54    56    55    1
    55    57    35   ar
    56    58    57    1
    57    59    35   ar
    58    60    59    1
    59    61    42    1
    60    62    46   ar
    61    63    62    1
    62    64    55   ar
    63    65    64    1
    64    66    31   ar
    65    67    66    1
    66    68    69    1
    67    70    61   ar
    68    71    70    1
    69    72    68   ar
    70    73    72    1
    71    74    68   ar
    72    75    74    1
    73    76    61   ar
    74    77    76    1
    75    78    64   ar
    76    79    78    1
    77    14    31   ar
    78    17    19   ar
    79    27    49   ar
    80    40    47   ar
    81    44    51   ar
    82    53    59   ar
    83    57    62   ar
    84    66    78   ar
    85    70    72   ar
    86    74    76   ar
@<TRIPOS>SUBSTRUCTURE
     1 RES1        1 GROUP             0 ****  ****    0  
@<TRIPOS>CRYSIN
   15.1239   14.5665   17.0273   90.0000   92.9290   90.0000    14     1
