@<TRIPOS>MOLECULE
XECNAU39
    79    86     1     0     0
SMALL
NO_CHARGES
****
Generated from the CSD

@<TRIPOS>ATOM
     1 Fe1      4.3513   4.1669   0.9499   Fe        1 RES1   0.0000
     2 S1       2.9905   7.2080  -2.4916   S.2       1 RES1   0.0000
     3 S2       6.6959   1.0543  -1.8054   S.2       1 RES1   0.0000
     4 N1       2.5197   3.1263   1.3351   N.ar      1 RES1   0.0000
     5 N2       3.9858   5.5052   2.7247   N.2       1 RES1   0.0000
     6 C1       2.7902   5.5831   3.5143   C.ar      1 RES1   0.0000
     7 C2       6.0804   2.6234   3.2478   C.ar      1 RES1   0.0000
     8 C3       3.2945   6.1686  -1.2784   C.1       1 RES1   0.0000
     9 N3       4.8106   2.7638   2.6183   N.2       1 RES1   0.0000
    10 C4       5.0343   6.0860   3.1425   C.2       1 RES1   0.0000
    11 H1       5.0146   6.5759   3.9337   H         1 RES1   0.0000
    12 C5       3.7801   2.2089   3.1154   C.2       1 RES1   0.0000
    13 H2       3.8475   1.6987   3.8895   H         1 RES1   0.0000
    14 N4       6.1968   5.2265   1.2699   N.ar      1 RES1   0.0000
    15 N5       5.1875   2.9336  -0.4550   N.2       1 RES1   0.0000
    16 C6       2.4874   2.3828   2.4515   C.ar      1 RES1   0.0000
    17 C7       0.4278   5.8439   3.5822   C.ar      1 RES1   0.0000
    18 H3      -0.3846   5.9816   3.1493   H         1 RES1   0.0000
    19 C8       1.5962   5.7918   2.8692   C.ar      1 RES1   0.0000
    20 H4       1.5822   5.8976   1.9456   H         1 RES1   0.0000
    21 C9       0.4713   5.6889   4.9438   C.ar      1 RES1   0.0000
    22 C10      1.3822   3.2669   0.6570   C.ar      1 RES1   0.0000
    23 H5       1.3909   3.7655  -0.1273   H         1 RES1   0.0000
    24 C11      7.1567   2.2886   2.4481   C.ar      1 RES1   0.0000
    25 H6       7.0238   2.1161   1.5432   H         1 RES1   0.0000
    26 C12      5.8148   2.1494  -1.0237   C.1       1 RES1   0.0000
    27 C13      1.6542   5.4758   5.5975   C.ar      1 RES1   0.0000
    28 H7       1.6712   5.3729   6.5227   H         1 RES1   0.0000
    29 C14      6.2856   2.9031   4.5805   C.ar      1 RES1   0.0000
    30 H8       5.5717   3.1423   5.1289   H         1 RES1   0.0000
    31 C15      6.2734   5.9816   2.3785   C.ar      1 RES1   0.0000
    32 C16      7.5831   2.8234   5.0966   C.ar      1 RES1   0.0000
    33 H9       7.7344   3.0089   5.9964   H         1 RES1   0.0000
    34 N6      10.1596   2.2263   5.8283   N.2       1 RES1   0.0000
    35 C17     14.1726   1.7045   7.1033   C.ar      1 RES1   0.0000
    36 H10     15.0351   1.5595   7.4208   H         1 RES1   0.0000
    37 N7       3.5000   5.4454  -0.4041   N.2       1 RES1   0.0000
    38 C18      1.3270   1.8117   2.9303   C.ar      1 RES1   0.0000
    39 H11      1.3347   1.3175   3.7198   H         1 RES1   0.0000
    40 C19      8.6297   2.4712   4.2885   C.ar      1 RES1   0.0000
    41 N8      10.1036   2.3582   4.6722   N.2       1 RES1   0.0000
    42 N9      -1.5584   5.7265   5.3190   N.2       1 RES1   0.0000
    43 N10     -0.7175   5.8236   6.0389   N.2       1 RES1   0.0000
    44 C20      0.1891   2.7060   1.0696   C.ar      1 RES1   0.0000
    45 H12     -0.5833   2.8205   0.5653   H         1 RES1   0.0000
    46 C21     11.6258   2.0726   6.2137   C.ar      1 RES1   0.0000
    47 C22      8.4173   2.2118   2.9778   C.ar      1 RES1   0.0000
    48 H13      9.1340   1.9799   2.4312   H         1 RES1   0.0000
    49 C23      2.8051   5.4164   4.8742   C.ar      1 RES1   0.0000
    50 H14      3.6129   5.2598   5.3088   H         1 RES1   0.0000
    51 C24      0.1561   1.9828   2.2223   C.ar      1 RES1   0.0000
    52 H15     -0.6414   1.6132   2.5262   H         1 RES1   0.0000
    53 C25     12.6872   2.3422   5.3547   C.ar      1 RES1   0.0000
    54 H16     12.5357   2.6393   4.4871   H         1 RES1   0.0000
    55 C26      7.2928   5.1410   0.5263   C.ar      1 RES1   0.0000
    56 H17      7.2636   4.6395  -0.2564   H         1 RES1   0.0000
    57 C27     13.1208   1.4682   7.8962   C.ar      1 RES1   0.0000
    58 H18     13.2631   1.1711   8.7671   H         1 RES1   0.0000
    59 C28     13.9881   2.1581   5.8351   C.ar      1 RES1   0.0000
    60 H19     14.7184   2.3422   5.2902   H         1 RES1   0.0000
    61 C29     -2.8169   5.9295   6.3309   C.ar      1 RES1   0.0000
    62 C30     11.8540   1.6538   7.4548   C.ar      1 RES1   0.0000
    63 H20     11.1390   1.4856   8.0252   H         1 RES1   0.0000
    64 C31      8.4727   5.7715   0.8692   C.ar      1 RES1   0.0000
    65 H21      9.2170   5.6976   0.3158   H         1 RES1   0.0000
    66 C32      7.4323   6.6049   2.7758   C.ar      1 RES1   0.0000
    67 H22      7.4521   7.0991   3.5636   H         1 RES1   0.0000
    68 C33     -5.1691   6.3338   7.6500   C.ar      1 RES1   0.0000
    69 H23     -5.9825   6.4599   8.0829   H         1 RES1   0.0000
    70 C34     -3.9806   5.6570   5.7146   C.ar      1 RES1   0.0000
    71 H24     -3.9852   5.3396   4.8403   H         1 RES1   0.0000
    72 C35     -5.1403   5.8468   6.3767   C.ar      1 RES1   0.0000
    73 H25     -5.9411   5.6410   5.9523   H         1 RES1   0.0000
    74 C36     -3.9946   6.6353   8.2918   C.ar      1 RES1   0.0000
    75 H26     -4.0031   6.9774   9.1559   H         1 RES1   0.0000
    76 C37     -2.7757   6.4193   7.6229   C.ar      1 RES1   0.0000
    77 H27     -1.9653   6.6020   8.0371   H         1 RES1   0.0000
    78 C38      8.5478   6.4947   2.0067   C.ar      1 RES1   0.0000
    79 H28      9.3428   6.9063   2.2580   H         1 RES1   0.0000
@<TRIPOS>BOND
     1     1     4    1
     2     2     8    2
     3     3    26    2
     4     4    16   ar
     5     5     1    1
     6     6     5    1
     7     7     9    1
     8     8    37    2
     9     9     1    1
    10    10     5    2
    11    11    10    1
    12    12     9    2
    13    13    12    1
    14    14     1    1
    15    15     1    1
    16    16    12    1
    17    17    18    1
    18    19     6   ar
    19    20    19    1
    20    21    17   ar
    21    22     4   ar
    22    23    22    1
    23    24     7   ar
    24    25    24    1
    25    26    15    2
    26    27    21   ar
    27    28    27    1
    28    29     7   ar
    29    30    29    1
    30    31    10    1
    31    32    29   ar
    32    33    32    1
    33    34    41    2
    34    35    36    1
    35    37     1    1
    36    38    16   ar
    37    39    38    1
    38    40    32   ar
    39    41    40    1
    40    42    43    2
    41    43    21    1
    42    44    22   ar
    43    45    44    1
    44    46    34    1
    45    47    24   ar
    46    48    47    1
    47    49     6   ar
    48    50    49    1
    49    51    38   ar
    50    52    51    1
    51    53    46   ar
    52    54    53    1
    53    55    14   ar
    54    56    55    1
    55    57    35   ar
    56    58    57    1
    57    59    35   ar
    58    60    59    1
    59    61    42    1
    60    62    46   ar
    61    63    62    1
    62    64    55   ar
    63    65    64    1
    64    66    31   ar
    65    67    66    1
    66    68    69    1
    67    70    61   ar
    68    71    70    1
    69    72    68   ar
    70    73    72    1
    71    74    68   ar
    72    75    74    1
    73    76    61   ar
    74    77    76    1
    75    78    64   ar
    76    79    78    1
    77    14    31   ar
    78    17    19   ar
    79    27    49   ar
    80    40    47   ar
    81    44    51   ar
    82    53    59   ar
    83    57    62   ar
    84    66    78   ar
    85    70    72   ar
    86    74    76   ar
@<TRIPOS>SUBSTRUCTURE
     1 RES1        1 GROUP             0 ****  ****    0  
@<TRIPOS>CRYSIN
   15.1103   14.4939   17.0017   90.0000   93.0630   90.0000    14     1
