@<TRIPOS>MOLECULE
XECNAU04
    79    86     1     0     0
SMALL
NO_CHARGES
****
Generated from the CSD

@<TRIPOS>ATOM
     1 Fe1      4.3510   4.1395   0.9750   Fe        1 RES1   0.0000
     2 S1       2.9964   7.1603  -2.4687   S.2       1 RES1   0.0000
     3 N1       6.1784   5.1814   1.2404   N.ar      1 RES1   0.0000
     4 N2       3.9862   5.4753   2.6950   N.2       1 RES1   0.0000
     5 N3      -0.7190   5.7913   5.9914   N.2       1 RES1   0.0000
     6 N4      -1.5691   5.7006   5.2765   N.2       1 RES1   0.0000
     7 N5       3.5250   5.3990  -0.3815   N.2       1 RES1   0.0000
     8 C1       7.2570   5.0842   0.4745   C.ar      1 RES1   0.0000
     9 H1       7.2058   4.5637  -0.3073   H         1 RES1   0.0000
    10 C2       8.4369   5.7057   0.7683   C.ar      1 RES1   0.0000
    11 H2       9.1761   5.6134   0.1959   H         1 RES1   0.0000
    12 C3       8.5333   6.4612   1.8997   C.ar      1 RES1   0.0000
    13 H3       9.3425   6.8852   2.1242   H         1 RES1   0.0000
    14 C4       7.4223   6.5925   2.7119   C.ar      1 RES1   0.0000
    15 H4       7.4598   7.1058   3.4971   H         1 RES1   0.0000
    16 C5       6.2603   5.9522   2.3407   C.ar      1 RES1   0.0000
    17 C6       5.0338   6.0718   3.1043   C.2       1 RES1   0.0000
    18 H5       5.0124   6.5838   3.8922   H         1 RES1   0.0000
    19 C7       2.7920   5.5497   3.4743   C.ar      1 RES1   0.0000
    20 C8       2.8174   5.3807   4.8427   C.ar      1 RES1   0.0000
    21 H6       3.6345   5.2212   5.2785   H         1 RES1   0.0000
    22 C9       1.6543   5.4447   5.5706   C.ar      1 RES1   0.0000
    23 H7       1.6734   5.3409   6.5044   H         1 RES1   0.0000
    24 C10      0.4672   5.6624   4.9222   C.ar      1 RES1   0.0000
    25 C11      0.4191   5.8207   3.5665   C.ar      1 RES1   0.0000
    26 H8      -0.4023   5.9695   3.1357   H         1 RES1   0.0000
    27 C12      1.5912   5.7603   2.8329   C.ar      1 RES1   0.0000
    28 H9       1.5684   5.8628   1.8997   H         1 RES1   0.0000
    29 C13     -2.8157   5.8946   6.2596   C.ar      1 RES1   0.0000
    30 C14     -2.7824   6.3718   7.5581   C.ar      1 RES1   0.0000
    31 H10     -1.9625   6.5492   7.9819   H         1 RES1   0.0000
    32 C15     -4.0056   6.5896   8.2369   C.ar      1 RES1   0.0000
    33 H11     -4.0108   6.9241   9.1150   H         1 RES1   0.0000
    34 C16     -5.1838   6.3055   7.5919   C.ar      1 RES1   0.0000
    35 H12     -6.0036   6.4425   8.0309   H         1 RES1   0.0000
    36 C17     -5.1695   5.8210   6.3069   C.ar      1 RES1   0.0000
    37 H13     -5.9784   5.6192   5.8746   H         1 RES1   0.0000
    38 C18     -3.9824   5.6321   5.6551   C.ar      1 RES1   0.0000
    39 H14     -3.9860   5.3135   4.7703   H         1 RES1   0.0000
    40 C19      3.3076   6.1267  -1.2545   C.1       1 RES1   0.0000
    41 S2       6.6570   1.0507  -1.8092   S.2       1 RES1   0.0000
    42 N6       2.5382   3.1206   1.3330   N.ar      1 RES1   0.0000
    43 N7       4.8155   2.7620   2.6084   N.2       1 RES1   0.0000
    44 N8      10.1013   2.3473   4.6401   N.2       1 RES1   0.0000
    45 N9      10.1822   2.2185   5.8138   N.2       1 RES1   0.0000
    46 N10      5.1512   2.9121  -0.4227   N.2       1 RES1   0.0000
    47 C20      1.4092   3.2616   0.6432   C.ar      1 RES1   0.0000
    48 H15      1.4279   3.7692  -0.1486   H         1 RES1   0.0000
    49 C21      0.2098   2.6964   1.0402   C.ar      1 RES1   0.0000
    50 H16     -0.5660   2.8089   0.5218   H         1 RES1   0.0000
    51 C22      0.1752   1.9769   2.1918   C.ar      1 RES1   0.0000
    52 H17     -0.6329   1.6020   2.4940   H         1 RES1   0.0000
    53 C23      1.3374   1.8014   2.9120   C.ar      1 RES1   0.0000
    54 H18      1.3351   1.2992   3.7064   H         1 RES1   0.0000
    55 C24      2.5056   2.3761   2.4481   C.ar      1 RES1   0.0000
    56 C25      3.7894   2.1972   3.1014   C.2       1 RES1   0.0000
    57 H19      3.8601   1.6712   3.8770   H         1 RES1   0.0000
    58 C26      6.0931   2.6278   3.2075   C.ar      1 RES1   0.0000
    59 C27      7.1581   2.2715   2.4113   C.ar      1 RES1   0.0000
    60 H20      7.0161   2.0735   1.5028   H         1 RES1   0.0000
    61 C28      8.4265   2.2033   2.9317   C.ar      1 RES1   0.0000
    62 H21      9.1454   1.9725   2.3725   H         1 RES1   0.0000
    63 C29      8.6531   2.4673   4.2475   C.ar      1 RES1   0.0000
    64 C30      7.6135   2.8377   5.0597   C.ar      1 RES1   0.0000
    65 H22      7.7731   3.0410   5.9641   H         1 RES1   0.0000
    66 C31      6.3214   2.9125   4.5482   C.ar      1 RES1   0.0000
    67 H23      5.6053   3.1549   5.1080   H         1 RES1   0.0000
    68 C32     11.6335   2.0677   6.1920   C.ar      1 RES1   0.0000
    69 C33     12.6827   2.3460   5.3241   C.ar      1 RES1   0.0000
    70 H24     12.5185   2.6546   4.4511   H         1 RES1   0.0000
    71 C34     13.9866   2.1528   5.7868   C.ar      1 RES1   0.0000
    72 H25     14.7191   2.3388   5.2262   H         1 RES1   0.0000
    73 C35     14.1918   1.6943   7.0583   C.ar      1 RES1   0.0000
    74 H26     15.0661   1.5443   7.3656   H         1 RES1   0.0000
    75 C36     13.1316   1.4506   7.8806   C.ar      1 RES1   0.0000
    76 H27     13.2836   1.1406   8.7553   H         1 RES1   0.0000
    77 C37     11.8593   1.6496   7.4484   C.ar      1 RES1   0.0000
    78 H28     11.1364   1.4953   8.0275   H         1 RES1   0.0000
    79 C38      5.7705   2.1340  -0.9998   C.1       1 RES1   0.0000
@<TRIPOS>BOND
     1     1     3    1
     2     2    40    2
     3     3     8   ar
     4     4     1    1
     5     5     6    2
     6     6    29    1
     7     7     1    1
     8     8     9    1
     9    10     8   ar
    10    11    10    1
    11    12    10   ar
    12    13    12    1
    13    14    12   ar
    14    15    14    1
    15    16     3   ar
    16    17     4    2
    17    18    17    1
    18    19     4    1
    19    20    19   ar
    20    21    20    1
    21    22    20   ar
    22    23    22    1
    23    24     5    1
    24    25    24   ar
    25    26    25    1
    26    27    19   ar
    27    28    27    1
    28    29    30   ar
    29    30    31    1
    30    32    30   ar
    31    33    32    1
    32    34    32   ar
    33    35    34    1
    34    36    34   ar
    35    37    36    1
    36    38    29   ar
    37    39    38    1
    38    40     7    2
    39    41    79    2
    40    42     1    1
    41    43     1    1
    42    44    45    2
    43    45    68    1
    44    46     1    1
    45    47    42   ar
    46    48    47    1
    47    49    47   ar
    48    50    49    1
    49    51    49   ar
    50    52    51    1
    51    53    51   ar
    52    54    53    1
    53    55    42   ar
    54    56    43    2
    55    57    56    1
    56    58    43    1
    57    59    58   ar
    58    60    59    1
    59    61    59   ar
    60    62    61    1
    61    63    44    1
    62    64    63   ar
    63    65    64    1
    64    66    58   ar
    65    67    66    1
    66    68    69   ar
    67    69    70    1
    68    71    69   ar
    69    72    71    1
    70    73    71   ar
    71    74    73    1
    72    75    73   ar
    73    76    75    1
    74    77    68   ar
    75    78    77    1
    76    79    46    2
    77    14    16   ar
    78    16    17    1
    79    22    24   ar
    80    25    27   ar
    81    36    38   ar
    82    53    55   ar
    83    55    56    1
    84    61    63   ar
    85    64    66   ar
    86    75    77   ar
@<TRIPOS>SUBSTRUCTURE
     1 RES1        1 GROUP             0 ****  ****    0  
@<TRIPOS>CRYSIN
   15.0918   14.4192   16.9089   90.0000   92.9910   90.0000    14     1
