@<TRIPOS>MOLECULE
XECNAU05
    79    86     1     0     0
SMALL
NO_CHARGES
****
Generated from the CSD

@<TRIPOS>ATOM
     1 Fe1      4.3191   4.0709   1.1286   Fe        1 RES1   0.0000
     2 S1       3.0364   6.9816  -2.3749   S.2       1 RES1   0.0000
     3 N1       6.0478   5.0222   1.1713   N.ar      1 RES1   0.0000
     4 N2       3.9497   5.3603   2.5878   N.2       1 RES1   0.0000
     5 N3      -0.7205   5.7011   5.7360   N.2       1 RES1   0.0000
     6 N4      -1.7858   5.6186   5.1131   N.2       1 RES1   0.0000
     7 N5       3.6589   5.2659  -0.2471   N.2       1 RES1   0.0000
     8 C1       7.0911   4.8716   0.3493   C.ar      1 RES1   0.0000
     9 H1       7.0047   4.2875  -0.3949   H         1 RES1   0.0000
    10 C2       8.2874   5.5287   0.5368   C.ar      1 RES1   0.0000
    11 H2       9.0020   5.4030  -0.0763   H         1 RES1   0.0000
    12 C3       8.4448   6.3685   1.6159   C.ar      1 RES1   0.0000
    13 H3       9.2737   6.8031   1.7787   H         1 RES1   0.0000
    14 C4       7.3592   6.5659   2.4640   C.ar      1 RES1   0.0000
    15 H4       7.4259   7.1521   3.2090   H         1 RES1   0.0000
    16 C5       6.1807   5.8916   2.2013   C.ar      1 RES1   0.0000
    17 C6       4.9685   6.0463   2.9744   C.2       1 RES1   0.0000
    18 H5       4.9254   6.6229   3.7283   H         1 RES1   0.0000
    19 C7       2.7443   5.4491   3.3620   C.ar      1 RES1   0.0000
    20 C8       2.7917   5.2909   4.7408   C.ar      1 RES1   0.0000
    21 H6       3.6197   5.1227   5.1752   H         1 RES1   0.0000
    22 C9       1.6255   5.3793   5.4745   C.ar      1 RES1   0.0000
    23 H7       1.6551   5.2901   6.4196   H         1 RES1   0.0000
    24 C10      0.4210   5.5961   4.8471   C.ar      1 RES1   0.0000
    25 C11      0.3713   5.7558   3.4638   C.ar      1 RES1   0.0000
    26 H8      -0.4582   5.9179   3.0314   H         1 RES1   0.0000
    27 C12      1.5373   5.6770   2.7261   C.ar      1 RES1   0.0000
    28 H9       1.5098   5.7792   1.7820   H         1 RES1   0.0000
    29 C13     -2.9647   5.8106   5.9505   C.ar      1 RES1   0.0000
    30 C14     -2.9193   6.2441   7.2691   C.ar      1 RES1   0.0000
    31 H10     -2.0842   6.3941   7.6972   H         1 RES1   0.0000
    32 C15     -4.1129   6.4563   7.9561   C.ar      1 RES1   0.0000
    33 H11     -4.0988   6.7545   8.8587   H         1 RES1   0.0000
    34 C16     -5.3161   6.2315   7.3202   C.ar      1 RES1   0.0000
    35 H12     -6.1310   6.3727   7.7868   H         1 RES1   0.0000
    36 C17     -5.3426   5.7989   6.0010   C.ar      1 RES1   0.0000
    37 H13     -6.1733   5.6433   5.5668   H         1 RES1   0.0000
    38 C18     -4.1556   5.5944   5.3189   C.ar      1 RES1   0.0000
    39 H14     -4.1696   5.3044   4.4136   H         1 RES1   0.0000
    40 C19      3.4012   5.9695  -1.1346   C.1       1 RES1   0.0000
    41 S2       6.4219   1.0560  -1.7980   S.2       1 RES1   0.0000
    42 N6       2.6011   3.1411   1.3261   N.ar      1 RES1   0.0000
    43 N7       4.7973   2.8071   2.5665   N.2       1 RES1   0.0000
    44 N8      10.0539   2.3374   4.5246   N.2       1 RES1   0.0000
    45 N9      10.2191   2.2116   5.7584   N.2       1 RES1   0.0000
    46 N10      4.9358   2.8267  -0.2223   N.2       1 RES1   0.0000
    47 C20      1.5058   3.2688   0.5709   C.ar      1 RES1   0.0000
    48 H15      1.5557   3.7956  -0.2174   H         1 RES1   0.0000
    49 C21      0.3016   2.6666   0.8889   C.ar      1 RES1   0.0000
    50 H16     -0.4522   2.7702   0.3202   H         1 RES1   0.0000
    51 C22      0.2078   1.9132   2.0405   C.ar      1 RES1   0.0000
    52 H17     -0.6185   1.5188   2.2964   H         1 RES1   0.0000
    53 C23      1.3410   1.7445   2.8154   C.ar      1 RES1   0.0000
    54 H18      1.3090   1.2199   3.6072   H         1 RES1   0.0000
    55 C24      2.5216   2.3491   2.4227   C.ar      1 RES1   0.0000
    56 C25      3.8033   2.1727   3.0822   C.2       1 RES1   0.0000
    57 H19      3.9025   1.6218   3.8494   H         1 RES1   0.0000
    58 C26      6.1062   2.6603   3.1280   C.ar      1 RES1   0.0000
    59 C27      7.1452   2.2616   2.3022   C.ar      1 RES1   0.0000
    60 H20      6.9722   2.0437   1.3938   H         1 RES1   0.0000
    61 C28      8.4281   2.1814   2.7988   C.ar      1 RES1   0.0000
    62 H21      9.1422   1.9235   2.2267   H         1 RES1   0.0000
    63 C29      8.6806   2.4768   4.1322   C.ar      1 RES1   0.0000
    64 C30      7.6440   2.8830   4.9595   C.ar      1 RES1   0.0000
    65 H22      7.8201   3.1020   5.8671   H         1 RES1   0.0000
    66 C31      6.3571   2.9704   4.4659   C.ar      1 RES1   0.0000
    67 H23      5.6456   3.2407   5.0341   H         1 RES1   0.0000
    68 C32     11.6046   2.0631   6.1175   C.ar      1 RES1   0.0000
    69 C33     12.6627   2.3408   5.2485   C.ar      1 RES1   0.0000
    70 H24     12.4924   2.6715   4.3738   H         1 RES1   0.0000
    71 C34     13.9614   2.1277   5.6768   C.ar      1 RES1   0.0000
    72 H25     14.6874   2.3211   5.0955   H         1 RES1   0.0000
    73 C35     14.2087   1.6369   6.9426   C.ar      1 RES1   0.0000
    74 H26     15.1004   1.4602   7.2177   H         1 RES1   0.0000
    75 C36     13.1545   1.4015   7.8160   C.ar      1 RES1   0.0000
    76 H27     13.3252   1.0883   8.6961   H         1 RES1   0.0000
    77 C37     11.8572   1.6241   7.3989   C.ar      1 RES1   0.0000
    78 H28     11.1352   1.4745   7.9975   H         1 RES1   0.0000
    79 C38      5.5360   2.0904  -0.8821   C.1       1 RES1   0.0000
@<TRIPOS>BOND
     1     1     3    1
     2     2    40    2
     3     3     8   ar
     4     4     1    1
     5     5     6    2
     6     6    29    1
     7     7     1    1
     8     8     9    1
     9    10     8   ar
    10    11    10    1
    11    12    10   ar
    12    13    12    1
    13    14    12   ar
    14    15    14    1
    15    16     3   ar
    16    17     4    2
    17    18    17    1
    18    19     4    1
    19    20    19   ar
    20    21    20    1
    21    22    20   ar
    22    23    22    1
    23    24     5    1
    24    25    24   ar
    25    26    25    1
    26    27    19   ar
    27    28    27    1
    28    29    30   ar
    29    30    31    1
    30    32    30   ar
    31    33    32    1
    32    34    32   ar
    33    35    34    1
    34    36    34   ar
    35    37    36    1
    36    38    29   ar
    37    39    38    1
    38    40     7    2
    39    41    79    2
    40    42     1    1
    41    43     1    1
    42    44    45    2
    43    45    68    1
    44    46     1    1
    45    47    42   ar
    46    48    47    1
    47    49    47   ar
    48    50    49    1
    49    51    49   ar
    50    52    51    1
    51    53    51   ar
    52    54    53    1
    53    55    42   ar
    54    56    43    2
    55    57    56    1
    56    58    43    1
    57    59    58   ar
    58    60    59    1
    59    61    59   ar
    60    62    61    1
    61    63    44    1
    62    64    63   ar
    63    65    64    1
    64    66    58   ar
    65    67    66    1
    66    68    69   ar
    67    69    70    1
    68    71    69   ar
    69    72    71    1
    70    73    71   ar
    71    74    73    1
    72    75    73   ar
    73    76    75    1
    74    77    68   ar
    75    78    77    1
    76    79    46    2
    77    14    16   ar
    78    16    17    1
    79    22    24   ar
    80    25    27   ar
    81    36    38   ar
    82    53    55   ar
    83    55    56    1
    84    61    63   ar
    85    64    66   ar
    86    75    77   ar
@<TRIPOS>SUBSTRUCTURE
     1 RES1        1 GROUP             0 ****  ****    0  
@<TRIPOS>CRYSIN
   14.9996   14.3013   16.6125   90.0000   92.8170   90.0000    14     1
