@<TRIPOS>MOLECULE
XECNAU15
    79    86     1     0     0
SMALL
NO_CHARGES
****
Generated from the CSD

@<TRIPOS>ATOM
     1 Fe1      4.3280   4.0973   1.1198   Fe        1 RES1   0.0000
     2 S1       3.0452   7.0221  -2.3785   S.2       1 RES1   0.0000
     3 S2       6.4396   1.0742  -1.8027   S.2       1 RES1   0.0000
     4 N1       2.6017   3.1585   1.3331   N.ar      1 RES1   0.0000
     5 N2       3.9525   5.3918   2.6043   N.2       1 RES1   0.0000
     6 C1       2.7491   5.4834   3.3864   C.ar      1 RES1   0.0000
     7 C2       6.1141   2.6662   3.1496   C.ar      1 RES1   0.0000
     8 C3       3.3994   6.0048  -1.1383   C.1       1 RES1   0.0000
     9 N3       4.8073   2.8168   2.5776   N.2       1 RES1   0.0000
    10 C4       4.9747   6.0725   2.9908   C.2       1 RES1   0.0000
    11 H1       4.9307   6.6471   3.7471   H         1 RES1   0.0000
    12 C5       3.8084   2.1859   3.0898   C.2       1 RES1   0.0000
    13 H2       3.9041   1.6344   3.8570   H         1 RES1   0.0000
    14 N4       6.0678   5.0655   1.1906   N.ar      1 RES1   0.0000
    15 N5       4.9616   2.8593  -0.2366   N.2       1 RES1   0.0000
    16 C6       2.5285   2.3631   2.4310   C.ar      1 RES1   0.0000
    17 C7       0.3813   5.7888   3.4738   C.ar      1 RES1   0.0000
    18 H3      -0.4487   5.9487   3.0406   H         1 RES1   0.0000
    19 C8       1.5457   5.7174   2.7436   C.ar      1 RES1   0.0000
    20 H4       1.5235   5.8277   1.8011   H         1 RES1   0.0000
    21 C9       0.4309   5.6276   4.8467   C.ar      1 RES1   0.0000
    22 C10      1.5038   3.2832   0.5903   C.ar      1 RES1   0.0000
    23 H5       1.5461   3.8088  -0.1999   H         1 RES1   0.0000
    24 C11      7.1511   2.2695   2.3219   C.ar      1 RES1   0.0000
    25 H6       6.9834   2.0520   1.4129   H         1 RES1   0.0000
    26 C12      5.5615   2.1139  -0.8977   C.1       1 RES1   0.0000
    27 C13      1.6245   5.4101   5.4853   C.ar      1 RES1   0.0000
    28 H7       1.6520   5.3180   6.4312   H         1 RES1   0.0000
    29 C14      6.3562   2.9794   4.4762   C.ar      1 RES1   0.0000
    30 H8       5.6440   3.2559   5.0400   H         1 RES1   0.0000
    31 C15      6.1927   5.9271   2.2236   C.ar      1 RES1   0.0000
    32 C16      7.6516   2.8858   4.9792   C.ar      1 RES1   0.0000
    33 H9       7.8267   3.0946   5.8897   H         1 RES1   0.0000
    34 N6      10.2205   2.2218   5.7722   N.2       1 RES1   0.0000
    35 C17     14.2041   1.6560   6.9743   C.ar      1 RES1   0.0000
    36 H10     15.0962   1.4861   7.2559   H         1 RES1   0.0000
    37 N7       3.6570   5.3049  -0.2487   N.2       1 RES1   0.0000
    38 C18      1.3545   1.7568   2.8267   C.ar      1 RES1   0.0000
    39 H11      1.3268   1.2298   3.6171   H         1 RES1   0.0000
    40 C19      8.6800   2.4869   4.1499   C.ar      1 RES1   0.0000
    41 N8      10.0604   2.3451   4.5415   N.2       1 RES1   0.0000
    42 N9      -1.7583   5.6605   5.1331   N.2       1 RES1   0.0000
    43 N10     -0.7240   5.7366   5.7732   N.2       1 RES1   0.0000
    44 C20      0.3096   2.6813   0.9180   C.ar      1 RES1   0.0000
    45 H12     -0.4499   2.7907   0.3565   H         1 RES1   0.0000
    46 C21     11.6169   2.0707   6.1391   C.ar      1 RES1   0.0000
    47 C22      8.4319   2.1946   2.8334   C.ar      1 RES1   0.0000
    48 H13      9.1494   1.9383   2.2659   H         1 RES1   0.0000
    49 C23      2.7807   5.3237   4.7534   C.ar      1 RES1   0.0000
    50 H14      3.6062   5.1552   5.1916   H         1 RES1   0.0000
    51 C24      0.2180   1.9253   2.0593   C.ar      1 RES1   0.0000
    52 H15     -0.6056   1.5279   2.3159   H         1 RES1   0.0000
    53 C25     12.6691   2.3443   5.2702   C.ar      1 RES1   0.0000
    54 H16     12.5012   2.6655   4.3919   H         1 RES1   0.0000
    55 C26      7.1166   4.9191   0.3760   C.ar      1 RES1   0.0000
    56 H17      7.0389   4.3359  -0.3699   H         1 RES1   0.0000
    57 C27     13.1640   1.4198   7.8280   C.ar      1 RES1   0.0000
    58 H18     13.3328   1.1045   8.7087   H         1 RES1   0.0000
    59 C28     13.9641   2.1384   5.7114   C.ar      1 RES1   0.0000
    60 H19     14.6936   2.3314   5.1349   H         1 RES1   0.0000
    61 C29     -2.9625   5.8421   5.9897   C.ar      1 RES1   0.0000
    62 C30     11.8617   1.6387   7.4097   C.ar      1 RES1   0.0000
    63 H20     11.1384   1.4890   8.0073   H         1 RES1   0.0000
    64 C31      8.3022   5.5786   0.5781   C.ar      1 RES1   0.0000
    65 H21      9.0226   5.4576  -0.0283   H         1 RES1   0.0000
    66 C32      7.3656   6.5996   2.4942   C.ar      1 RES1   0.0000
    67 H22      7.4303   7.1799   3.2422   H         1 RES1   0.0000
    68 C33     -5.2972   6.2669   7.3625   C.ar      1 RES1   0.0000
    69 H23     -6.1185   6.4052   7.8207   H         1 RES1   0.0000
    70 C34     -4.1395   5.6304   5.3665   C.ar      1 RES1   0.0000
    71 H24     -4.1598   5.3453   4.4602   H         1 RES1   0.0000
    72 C35     -5.3042   5.8335   6.0596   C.ar      1 RES1   0.0000
    73 H25     -6.1346   5.6708   5.6281   H         1 RES1   0.0000
    74 C36     -4.1031   6.4988   8.0056   C.ar      1 RES1   0.0000
    75 H26     -4.0929   6.8040   8.9053   H         1 RES1   0.0000
    76 C37     -2.8963   6.2770   7.3109   C.ar      1 RES1   0.0000
    77 H27     -2.0579   6.4224   7.7324   H         1 RES1   0.0000
    78 C38      8.4465   6.4109   1.6511   C.ar      1 RES1   0.0000
    79 H28      9.2720   6.8516   1.8161   H         1 RES1   0.0000
@<TRIPOS>BOND
     1     1     4    1
     2     2     8    2
     3     3    26    2
     4     4    16   ar
     5     5     1    1
     6     6     5    1
     7     7     9    1
     8     8    37    2
     9     9     1    1
    10    10     5    2
    11    11    10    1
    12    12     9    2
    13    13    12    1
    14    14     1    1
    15    15     1    1
    16    16    12    1
    17    17    18    1
    18    19     6   ar
    19    20    19    1
    20    21    17   ar
    21    22     4   ar
    22    23    22    1
    23    24     7   ar
    24    25    24    1
    25    26    15    2
    26    27    21   ar
    27    28    27    1
    28    29     7   ar
    29    30    29    1
    30    31    10    1
    31    32    29   ar
    32    33    32    1
    33    34    41    2
    34    35    36    1
    35    37     1    1
    36    38    16   ar
    37    39    38    1
    38    40    32   ar
    39    41    40    1
    40    42    43    2
    41    43    21    1
    42    44    22   ar
    43    45    44    1
    44    46    34    1
    45    47    24   ar
    46    48    47    1
    47    49     6   ar
    48    50    49    1
    49    51    38   ar
    50    52    51    1
    51    53    46   ar
    52    54    53    1
    53    55    14   ar
    54    56    55    1
    55    57    35   ar
    56    58    57    1
    57    59    35   ar
    58    60    59    1
    59    61    42    1
    60    62    46   ar
    61    63    62    1
    62    64    55   ar
    63    65    64    1
    64    66    31   ar
    65    67    66    1
    66    68    69    1
    67    70    61   ar
    68    71    70    1
    69    72    68   ar
    70    73    72    1
    71    74    68   ar
    72    75    74    1
    73    76    61   ar
    74    77    76    1
    75    78    64   ar
    76    79    78    1
    77    14    31   ar
    78    17    19   ar
    79    27    49   ar
    80    40    47   ar
    81    44    51   ar
    82    53    59   ar
    83    57    62   ar
    84    66    78   ar
    85    70    72   ar
    86    74    76   ar
@<TRIPOS>SUBSTRUCTURE
     1 RES1        1 GROUP             0 ****  ****    0  
@<TRIPOS>CRYSIN
   15.0178   14.4001   16.6809   90.0000   92.7940   90.0000    14     1
