@<TRIPOS>MOLECULE
XECNAU09
    79    86     1     0     0
SMALL
NO_CHARGES
****
Generated from the CSD

@<TRIPOS>ATOM
     1 Fe1      4.3132   4.0809   1.1368   Fe        1 RES1   0.0000
     2 S1       3.0484   6.9961  -2.3745   S.2       1 RES1   0.0000
     3 S2       6.4147   1.0652  -1.7943   S.2       1 RES1   0.0000
     4 N1       2.5978   3.1538   1.3357   N.ar      1 RES1   0.0000
     5 N2       3.9403   5.3728   2.5909   N.2       1 RES1   0.0000
     6 C1       2.7397   5.4640   3.3756   C.ar      1 RES1   0.0000
     7 C2       6.1015   2.6624   3.1432   C.ar      1 RES1   0.0000
     8 C3       3.4083   5.9796  -1.1287   C.1       1 RES1   0.0000
     9 N3       4.7941   2.8155   2.5738   N.2       1 RES1   0.0000
    10 C4       4.9633   6.0573   2.9769   C.2       1 RES1   0.0000
    11 H1       4.9220   6.6340   3.7302   H         1 RES1   0.0000
    12 C5       3.8007   2.1805   3.0910   C.2       1 RES1   0.0000
    13 H2       3.8996   1.6316   3.8598   H         1 RES1   0.0000
    14 N4       6.0430   5.0304   1.1727   N.ar      1 RES1   0.0000
    15 N5       4.9305   2.8374  -0.2163   N.2       1 RES1   0.0000
    16 C6       2.5162   2.3540   2.4277   C.ar      1 RES1   0.0000
    17 C7       0.3661   5.7727   3.4790   C.ar      1 RES1   0.0000
    18 H3      -0.4628   5.9395   3.0473   H         1 RES1   0.0000
    19 C8       1.5309   5.6945   2.7329   C.ar      1 RES1   0.0000
    20 H4       1.5029   5.7974   1.7895   H         1 RES1   0.0000
    21 C9       0.4101   5.6071   4.8536   C.ar      1 RES1   0.0000
    22 C10      1.4984   3.2775   0.5807   C.ar      1 RES1   0.0000
    23 H5       1.5472   3.8028  -0.2094   H         1 RES1   0.0000
    24 C11      7.1420   2.2610   2.3051   C.ar      1 RES1   0.0000
    25 H6       6.9699   2.0420   1.3974   H         1 RES1   0.0000
    26 C12      5.5313   2.0932  -0.8820   C.1       1 RES1   0.0000
    27 C13      1.6160   5.3912   5.4825   C.ar      1 RES1   0.0000
    28 H7       1.6463   5.3052   6.4286   H         1 RES1   0.0000
    29 C14      6.3525   2.9819   4.4666   C.ar      1 RES1   0.0000
    30 H8       5.6434   3.2646   5.0312   H         1 RES1   0.0000
    31 C15      6.1746   5.9020   2.2052   C.ar      1 RES1   0.0000
    32 C16      7.6408   2.8877   4.9654   C.ar      1 RES1   0.0000
    33 H9       7.8148   3.1025   5.8736   H         1 RES1   0.0000
    34 N6      10.2179   2.2141   5.7656   N.2       1 RES1   0.0000
    35 C17     14.2039   1.6421   6.9577   C.ar      1 RES1   0.0000
    36 H10     15.0972   1.4737   7.2345   H         1 RES1   0.0000
    37 N7       3.6585   5.2758  -0.2371   N.2       1 RES1   0.0000
    38 C18      1.3382   1.7461   2.8208   C.ar      1 RES1   0.0000
    39 H11      1.3068   1.2212   3.6123   H         1 RES1   0.0000
    40 C19      8.6784   2.4797   4.1380   C.ar      1 RES1   0.0000
    41 N8      10.0448   2.3362   4.5309   N.2       1 RES1   0.0000
    42 N9      -1.8023   5.6345   5.1146   N.2       1 RES1   0.0000
    43 N10     -0.7329   5.7104   5.7389   N.2       1 RES1   0.0000
    44 C20      0.2950   2.6753   0.8986   C.ar      1 RES1   0.0000
    45 H12     -0.4609   2.7839   0.3340   H         1 RES1   0.0000
    46 C21     11.5992   2.0670   6.1265   C.ar      1 RES1   0.0000
    47 C22      8.4206   2.1859   2.8107   C.ar      1 RES1   0.0000
    48 H13      9.1353   1.9286   2.2398   H         1 RES1   0.0000
    49 C23      2.7815   5.2986   4.7471   C.ar      1 RES1   0.0000
    50 H14      3.6069   5.1230   5.1824   H         1 RES1   0.0000
    51 C24      0.2065   1.9154   2.0436   C.ar      1 RES1   0.0000
    52 H15     -0.6173   1.5154   2.2946   H         1 RES1   0.0000
    53 C25     12.6580   2.3373   5.2635   C.ar      1 RES1   0.0000
    54 H16     12.4887   2.6634   4.3865   H         1 RES1   0.0000
    55 C26      7.0914   4.8816   0.3557   C.ar      1 RES1   0.0000
    56 H17      7.0079   4.2935  -0.3855   H         1 RES1   0.0000
    57 C27     13.1584   1.3994   7.8192   C.ar      1 RES1   0.0000
    58 H18     13.3300   1.0748   8.6950   H         1 RES1   0.0000
    59 C28     13.9549   2.1295   5.6895   C.ar      1 RES1   0.0000
    60 H19     14.6797   2.3233   5.1077   H         1 RES1   0.0000
    61 C29     -2.9741   5.8267   5.9531   C.ar      1 RES1   0.0000
    62 C30     11.8517   1.6282   7.4064   C.ar      1 RES1   0.0000
    63 H20     11.1313   1.4809   8.0088   H         1 RES1   0.0000
    64 C31      8.2864   5.5420   0.5383   C.ar      1 RES1   0.0000
    65 H21      9.0004   5.4186  -0.0764   H         1 RES1   0.0000
    66 C32      7.3539   6.5808   2.4653   C.ar      1 RES1   0.0000
    67 H22      7.4198   7.1707   3.2068   H         1 RES1   0.0000
    68 C33     -5.3315   6.2448   7.3242   C.ar      1 RES1   0.0000
    69 H23     -6.1471   6.3843   7.7894   H         1 RES1   0.0000
    70 C34     -4.1713   5.6117   5.3212   C.ar      1 RES1   0.0000
    71 H24     -4.1884   5.3224   4.4165   H         1 RES1   0.0000
    72 C35     -5.3501   5.8186   6.0066   C.ar      1 RES1   0.0000
    73 H25     -6.1804   5.6683   5.5712   H         1 RES1   0.0000
    74 C36     -4.1253   6.4671   7.9622   C.ar      1 RES1   0.0000
    75 H26     -4.1119   6.7632   8.8661   H         1 RES1   0.0000
    76 C37     -2.9272   6.2557   7.2768   C.ar      1 RES1   0.0000
    77 H27     -2.0926   6.4030   7.7064   H         1 RES1   0.0000
    78 C38      8.4385   6.3814   1.6200   C.ar      1 RES1   0.0000
    79 H28      9.2676   6.8163   1.7845   H         1 RES1   0.0000
@<TRIPOS>BOND
     1     1     4    1
     2     2     8    2
     3     3    26    2
     4     4    16   ar
     5     5     1    1
     6     6     5    1
     7     7     9    1
     8     8    37    2
     9     9     1    1
    10    10     5    2
    11    11    10    1
    12    12     9    2
    13    13    12    1
    14    14     1    1
    15    15     1    1
    16    16    12    1
    17    17    18    1
    18    19     6   ar
    19    20    19    1
    20    21    17   ar
    21    22     4   ar
    22    23    22    1
    23    24     7   ar
    24    25    24    1
    25    26    15    2
    26    27    21   ar
    27    28    27    1
    28    29     7   ar
    29    30    29    1
    30    31    10    1
    31    32    29   ar
    32    33    32    1
    33    34    41    2
    34    35    36    1
    35    37     1    1
    36    38    16   ar
    37    39    38    1
    38    40    32   ar
    39    41    40    1
    40    42    43    2
    41    43    21    1
    42    44    22   ar
    43    45    44    1
    44    46    34    1
    45    47    24   ar
    46    48    47    1
    47    49     6   ar
    48    50    49    1
    49    51    38   ar
    50    52    51    1
    51    53    46   ar
    52    54    53    1
    53    55    14   ar
    54    56    55    1
    55    57    35   ar
    56    58    57    1
    57    59    35   ar
    58    60    59    1
    59    61    42    1
    60    62    46   ar
    61    63    62    1
    62    64    55   ar
    63    65    64    1
    64    66    31   ar
    65    67    66    1
    66    68    69    1
    67    70    61   ar
    68    71    70    1
    69    72    68   ar
    70    73    72    1
    71    74    68   ar
    72    75    74    1
    73    76    61   ar
    74    77    76    1
    75    78    64   ar
    76    79    78    1
    77    14    31   ar
    78    17    19   ar
    79    27    49   ar
    80    40    47   ar
    81    44    51   ar
    82    53    59   ar
    83    57    62   ar
    84    66    78   ar
    85    70    72   ar
    86    74    76   ar
@<TRIPOS>SUBSTRUCTURE
     1 RES1        1 GROUP             0 ****  ****    0  
@<TRIPOS>CRYSIN
   15.0068   14.3500   16.6364   90.0000   92.8590   90.0000    14     1
