@<TRIPOS>MOLECULE
XECNAU23
    79    86     1     0     0
SMALL
NO_CHARGES
****
Generated from the CSD

@<TRIPOS>ATOM
     1 Fe1      4.3385   4.1111   1.0808   Fe        1 RES1   0.0000
     2 S1       3.0370   7.0620  -2.3995   S.2       1 RES1   0.0000
     3 S2       6.5040   1.0716  -1.8092   S.2       1 RES1   0.0000
     4 N1       2.5928   3.1474   1.3358   N.ar      1 RES1   0.0000
     5 N2       3.9654   5.4169   2.6250   N.2       1 RES1   0.0000
     6 C1       2.7620   5.5044   3.4098   C.ar      1 RES1   0.0000
     7 C2       6.1185   2.6549   3.1644   C.ar      1 RES1   0.0000
     8 C3       3.3772   6.0290  -1.1606   C.1       1 RES1   0.0000
     9 N3       4.8162   2.8048   2.5798   N.2       1 RES1   0.0000
    10 C4       4.9884   6.0723   3.0208   C.2       1 RES1   0.0000
    11 H1       4.9503   6.6286   3.7910   H         1 RES1   0.0000
    12 C5       3.8138   2.1908   3.0925   C.2       1 RES1   0.0000
    13 H2       3.9075   1.6431   3.8630   H         1 RES1   0.0000
    14 N4       6.0969   5.0991   1.2035   N.ar      1 RES1   0.0000
    15 N5       5.0178   2.8740  -0.2880   N.2       1 RES1   0.0000
    16 C6       2.5257   2.3710   2.4362   C.ar      1 RES1   0.0000
    17 C7       0.3930   5.8013   3.4867   C.ar      1 RES1   0.0000
    18 H3      -0.4352   5.9584   3.0502   H         1 RES1   0.0000
    19 C8       1.5600   5.7307   2.7634   C.ar      1 RES1   0.0000
    20 H4       1.5404   5.8388   1.8194   H         1 RES1   0.0000
    21 C9       0.4458   5.6399   4.8529   C.ar      1 RES1   0.0000
    22 C10      1.4862   3.2790   0.6047   C.ar      1 RES1   0.0000
    23 H5       1.5239   3.8008  -0.1890   H         1 RES1   0.0000
    24 C11      7.1639   2.2715   2.3403   C.ar      1 RES1   0.0000
    25 H6       7.0014   2.0568   1.4298   H         1 RES1   0.0000
    26 C12      5.6245   2.1245  -0.9281   C.1       1 RES1   0.0000
    27 C13      1.6335   5.4251   5.5018   C.ar      1 RES1   0.0000
    28 H7       1.6529   5.3300   6.4466   H         1 RES1   0.0000
    29 C14      6.3546   2.9648   4.4919   C.ar      1 RES1   0.0000
    30 H8       5.6398   3.2372   5.0553   H         1 RES1   0.0000
    31 C15      6.2110   5.9382   2.2509   C.ar      1 RES1   0.0000
    32 C16      7.6463   2.8740   4.9942   C.ar      1 RES1   0.0000
    33 H9       7.8163   3.0830   5.9048   H         1 RES1   0.0000
    34 N6      10.2229   2.2188   5.7864   N.2       1 RES1   0.0000
    35 C17     14.2101   1.6705   6.9985   C.ar      1 RES1   0.0000
    36 H10     15.0981   1.5076   7.2911   H         1 RES1   0.0000
    37 N7       3.6294   5.3314  -0.2766   N.2       1 RES1   0.0000
    38 C18      1.3568   1.7671   2.8554   C.ar      1 RES1   0.0000
    39 H11      1.3401   1.2453   3.6489   H         1 RES1   0.0000
    40 C19      8.6821   2.4820   4.1740   C.ar      1 RES1   0.0000
    41 N8      10.0736   2.3512   4.5643   N.2       1 RES1   0.0000
    42 N9      -1.7001   5.6745   5.1792   N.2       1 RES1   0.0000
    43 N10     -0.7158   5.7581   5.8346   N.2       1 RES1   0.0000
    44 C20      0.2898   2.6895   0.9515   C.ar      1 RES1   0.0000
    45 H12     -0.4771   2.8005   0.4013   H         1 RES1   0.0000
    46 C21     11.6261   2.0712   6.1556   C.ar      1 RES1   0.0000
    47 C22      8.4401   2.2023   2.8546   C.ar      1 RES1   0.0000
    48 H13      9.1610   1.9573   2.2860   H         1 RES1   0.0000
    49 C23      2.7899   5.3487   4.7760   C.ar      1 RES1   0.0000
    50 H14      3.6149   5.1859   5.2175   H         1 RES1   0.0000
    51 C24      0.2150   1.9371   2.1004   C.ar      1 RES1   0.0000
    52 H15     -0.6060   1.5422   2.3696   H         1 RES1   0.0000
    53 C25     12.6793   2.3450   5.2894   C.ar      1 RES1   0.0000
    54 H16     12.5107   2.6636   4.4098   H         1 RES1   0.0000
    55 C26      7.1576   4.9653   0.3997   C.ar      1 RES1   0.0000
    56 H17      7.0882   4.3931  -0.3562   H         1 RES1   0.0000
    57 C27     13.1608   1.4298   7.8380   C.ar      1 RES1   0.0000
    58 H18     13.3248   1.1156   8.7192   H         1 RES1   0.0000
    59 C28     13.9793   2.1461   5.7342   C.ar      1 RES1   0.0000
    60 H19     14.7116   2.3393   5.1606   H         1 RES1   0.0000
    61 C29     -2.9325   5.8546   6.0720   C.ar      1 RES1   0.0000
    62 C30     11.8686   1.6373   7.4182   C.ar      1 RES1   0.0000
    63 H20     11.1442   1.4774   8.0135   H         1 RES1   0.0000
    64 C31      8.3319   5.6197   0.6204   C.ar      1 RES1   0.0000
    65 H21      9.0567   5.5130   0.0151   H         1 RES1   0.0000
    66 C32      7.3804   6.6041   2.5536   C.ar      1 RES1   0.0000
    67 H22      7.4389   7.1662   3.3178   H         1 RES1   0.0000
    68 C33     -5.2607   6.2827   7.4383   C.ar      1 RES1   0.0000
    69 H23     -6.0846   6.4225   7.8881   H         1 RES1   0.0000
    70 C34     -4.0989   5.6211   5.4483   C.ar      1 RES1   0.0000
    71 H24     -4.1160   5.3185   4.5486   H         1 RES1   0.0000
    72 C35     -5.2581   5.8316   6.1406   C.ar      1 RES1   0.0000
    73 H25     -6.0882   5.6586   5.7108   H         1 RES1   0.0000
    74 C36     -4.0758   6.5321   8.0838   C.ar      1 RES1   0.0000
    75 H26     -4.0705   6.8463   8.9801   H         1 RES1   0.0000
    76 C37     -2.8607   6.3101   7.3881   C.ar      1 RES1   0.0000
    77 H27     -2.0226   6.4658   7.8062   H         1 RES1   0.0000
    78 C38      8.4688   6.4297   1.7141   C.ar      1 RES1   0.0000
    79 H28      9.2931   6.8650   1.8947   H         1 RES1   0.0000
@<TRIPOS>BOND
     1     1     4    1
     2     2     8    2
     3     3    26    2
     4     4    16   ar
     5     5     1    1
     6     6     5    1
     7     7     9    1
     8     8    37    2
     9     9     1    1
    10    10     5    2
    11    11    10    1
    12    12     9    2
    13    13    12    1
    14    14     1    1
    15    15     1    1
    16    16    12    1
    17    17    18    1
    18    19     6   ar
    19    20    19    1
    20    21    17   ar
    21    22     4   ar
    22    23    22    1
    23    24     7   ar
    24    25    24    1
    25    26    15    2
    26    27    21   ar
    27    28    27    1
    28    29     7   ar
    29    30    29    1
    30    31    10    1
    31    32    29   ar
    32    33    32    1
    33    34    41    2
    34    35    36    1
    35    37     1    1
    36    38    16   ar
    37    39    38    1
    38    40    32   ar
    39    41    40    1
    40    42    43    2
    41    43    21    1
    42    44    22   ar
    43    45    44    1
    44    46    34    1
    45    47    24   ar
    46    48    47    1
    47    49     6   ar
    48    50    49    1
    49    51    38   ar
    50    52    51    1
    51    53    46   ar
    52    54    53    1
    53    55    14   ar
    54    56    55    1
    55    57    35   ar
    56    58    57    1
    57    59    35   ar
    58    60    59    1
    59    61    42    1
    60    62    46   ar
    61    63    62    1
    62    64    55   ar
    63    65    64    1
    64    66    31   ar
    65    67    66    1
    66    68    69    1
    67    70    61   ar
    68    71    70    1
    69    72    68   ar
    70    73    72    1
    71    74    68   ar
    72    75    74    1
    73    76    61   ar
    74    77    76    1
    75    78    64   ar
    76    79    78    1
    77    14    31   ar
    78    17    19   ar
    79    27    49   ar
    80    40    47   ar
    81    44    51   ar
    82    53    59   ar
    83    57    62   ar
    84    66    78   ar
    85    70    72   ar
    86    74    76   ar
@<TRIPOS>SUBSTRUCTURE
     1 RES1        1 GROUP             0 ****  ****    0  
@<TRIPOS>CRYSIN
   15.0406   14.4132   16.7432   90.0000   92.8320   90.0000    14     1
