@<TRIPOS>MOLECULE
XECNAU24
    79    86     1     0     0
SMALL
NO_CHARGES
****
Generated from the CSD

@<TRIPOS>ATOM
     1 Fe1      4.3425   4.1548   0.9602   Fe        1 RES1   0.0000
     2 S1       2.9985   7.1958  -2.4866   S.2       1 RES1   0.0000
     3 S2       6.6847   1.0545  -1.8037   S.2       1 RES1   0.0000
     4 N1       2.5181   3.1242   1.3379   N.ar      1 RES1   0.0000
     5 N2       3.9751   5.4892   2.7156   N.2       1 RES1   0.0000
     6 C1       2.7884   5.5683   3.5088   C.ar      1 RES1   0.0000
     7 C2       6.0793   2.6207   3.2375   C.ar      1 RES1   0.0000
     8 C3       3.2954   6.1584  -1.2747   C.1       1 RES1   0.0000
     9 N3       4.8046   2.7617   2.6192   N.2       1 RES1   0.0000
    10 C4       5.0309   6.0745   3.1291   C.2       1 RES1   0.0000
    11 H1       5.0119   6.5735   3.9257   H         1 RES1   0.0000
    12 C5       3.7778   2.1984   3.1172   C.2       1 RES1   0.0000
    13 H2       3.8506   1.6734   3.8935   H         1 RES1   0.0000
    14 N4       6.1839   5.2139   1.2579   N.ar      1 RES1   0.0000
    15 N5       5.1686   2.9201  -0.4424   N.2       1 RES1   0.0000
    16 C6       2.4826   2.3777   2.4629   C.ar      1 RES1   0.0000
    17 C7       0.4221   5.8330   3.5816   C.ar      1 RES1   0.0000
    18 H3      -0.3986   5.9776   3.1460   H         1 RES1   0.0000
    19 C8       1.5923   5.7780   2.8646   C.ar      1 RES1   0.0000
    20 H4       1.5750   5.8821   1.9307   H         1 RES1   0.0000
    21 C9       0.4706   5.6739   4.9445   C.ar      1 RES1   0.0000
    22 C10      1.3811   3.2571   0.6594   C.ar      1 RES1   0.0000
    23 H5       1.3926   3.7532  -0.1390   H         1 RES1   0.0000
    24 C11      7.1514   2.2794   2.4358   C.ar      1 RES1   0.0000
    25 H6       7.0104   2.0943   1.5255   H         1 RES1   0.0000
    26 C12      5.7992   2.1420  -1.0136   C.1       1 RES1   0.0000
    27 C13      1.6603   5.4598   5.5954   C.ar      1 RES1   0.0000
    28 H7       1.6791   5.3557   6.5293   H         1 RES1   0.0000
    29 C14      6.2910   2.9085   4.5716   C.ar      1 RES1   0.0000
    30 H8       5.5736   3.1530   5.1258   H         1 RES1   0.0000
    31 C15      6.2670   5.9675   2.3663   C.ar      1 RES1   0.0000
    32 C16      7.5895   2.8304   5.0818   C.ar      1 RES1   0.0000
    33 H9       7.7473   3.0228   5.9869   H         1 RES1   0.0000
    34 N6      10.1710   2.2201   5.8310   N.2       1 RES1   0.0000
    35 C17     14.1748   1.6980   7.0938   C.ar      1 RES1   0.0000
    36 H10     15.0472   1.5519   7.4108   H         1 RES1   0.0000
    37 N7       3.5001   5.4266  -0.3966   N.2       1 RES1   0.0000
    38 C18      1.3244   1.8079   2.9307   C.ar      1 RES1   0.0000
    39 H11      1.3294   1.3104   3.7291   H         1 RES1   0.0000
    40 C19      8.6365   2.4732   4.2681   C.ar      1 RES1   0.0000
    41 N8      10.0911   2.3517   4.6580   N.2       1 RES1   0.0000
    42 N9      -1.5778   5.7158   5.3106   N.2       1 RES1   0.0000
    43 N10     -0.7207   5.8055   6.0225   N.2       1 RES1   0.0000
    44 C20      0.1838   2.7017   1.0679   C.ar      1 RES1   0.0000
    45 H12     -0.5983   2.8246   0.5611   H         1 RES1   0.0000
    46 C21     11.6246   2.0668   6.2107   C.ar      1 RES1   0.0000
    47 C22      8.4223   2.2100   2.9545   C.ar      1 RES1   0.0000
    48 H13      9.1442   1.9800   2.3985   H         1 RES1   0.0000
    49 C23      2.8051   5.3991   4.8733   C.ar      1 RES1   0.0000
    50 H14      3.6211   5.2400   5.3123   H         1 RES1   0.0000
    51 C24      0.1561   1.9728   2.2188   C.ar      1 RES1   0.0000
    52 H15     -0.6473   1.5880   2.5222   H         1 RES1   0.0000
    53 C25     12.6772   2.3459   5.3513   C.ar      1 RES1   0.0000
    54 H16     12.5191   2.6540   4.4783   H         1 RES1   0.0000
    55 C26      7.2772   5.1257   0.5051   C.ar      1 RES1   0.0000
    56 H17      7.2414   4.6152  -0.2831   H         1 RES1   0.0000
    57 C27     13.1239   1.4579   7.8939   C.ar      1 RES1   0.0000
    58 H18     13.2712   1.1570   8.7719   H         1 RES1   0.0000
    59 C28     13.9809   2.1536   5.8225   C.ar      1 RES1   0.0000
    60 H19     14.7163   2.3387   5.2682   H         1 RES1   0.0000
    61 C29     -2.8283   5.9096   6.3107   C.ar      1 RES1   0.0000
    62 C30     11.8530   1.6416   7.4599   C.ar      1 RES1   0.0000
    63 H20     11.1314   1.4709   8.0379   H         1 RES1   0.0000
    64 C31      8.4571   5.7491   0.8357   C.ar      1 RES1   0.0000
    65 H21      9.2079   5.6652   0.2763   H         1 RES1   0.0000
    66 C32      7.4240   6.5937   2.7562   C.ar      1 RES1   0.0000
    67 H22      7.4517   7.0898   3.5545   H         1 RES1   0.0000
    68 C33     -5.1850   6.3233   7.6277   C.ar      1 RES1   0.0000
    69 H23     -6.0076   6.4592   8.0617   H         1 RES1   0.0000
    70 C34     -3.9911   5.6421   5.6920   C.ar      1 RES1   0.0000
    71 H24     -3.9961   5.3210   4.8089   H         1 RES1   0.0000
    72 C35     -5.1552   5.8373   6.3531   C.ar      1 RES1   0.0000
    73 H25     -5.9657   5.6334   5.9225   H         1 RES1   0.0000
    74 C36     -4.0132   6.6125   8.2735   C.ar      1 RES1   0.0000
    75 H26     -4.0246   6.9452   9.1533   H         1 RES1   0.0000
    76 C37     -2.7928   6.4057   7.6057   C.ar      1 RES1   0.0000
    77 H27     -1.9743   6.5981   8.0261   H         1 RES1   0.0000
    78 C38      8.5359   6.4867   1.9730   C.ar      1 RES1   0.0000
    79 H28      9.3369   6.9134   2.2154   H         1 RES1   0.0000
@<TRIPOS>BOND
     1     1     4    1
     2     2     8    2
     3     3    26    2
     4     4    16   ar
     5     5     1    1
     6     6     5    1
     7     7     9    1
     8     8    37    2
     9     9     1    1
    10    10     5    2
    11    11    10    1
    12    12     9    2
    13    13    12    1
    14    14     1    1
    15    15     1    1
    16    16    12    1
    17    17    18    1
    18    19     6   ar
    19    20    19    1
    20    21    17   ar
    21    22     4   ar
    22    23    22    1
    23    24     7   ar
    24    25    24    1
    25    26    15    2
    26    27    21   ar
    27    28    27    1
    28    29     7   ar
    29    30    29    1
    30    31    10    1
    31    32    29   ar
    32    33    32    1
    33    34    41    2
    34    35    36    1
    35    37     1    1
    36    38    16   ar
    37    39    38    1
    38    40    32   ar
    39    41    40    1
    40    42    43    2
    41    43    21    1
    42    44    22   ar
    43    45    44    1
    44    46    34    1
    45    47    24   ar
    46    48    47    1
    47    49     6   ar
    48    50    49    1
    49    51    38   ar
    50    52    51    1
    51    53    46   ar
    52    54    53    1
    53    55    14   ar
    54    56    55    1
    55    57    35   ar
    56    58    57    1
    57    59    35   ar
    58    60    59    1
    59    61    42    1
    60    62    46   ar
    61    63    62    1
    62    64    55   ar
    63    65    64    1
    64    66    31   ar
    65    67    66    1
    66    68    69    1
    67    70    61   ar
    68    71    70    1
    69    72    68   ar
    70    73    72    1
    71    74    68   ar
    72    75    74    1
    73    76    61   ar
    74    77    76    1
    75    78    64   ar
    76    79    78    1
    77    14    31   ar
    78    17    19   ar
    79    27    49   ar
    80    40    47   ar
    81    44    51   ar
    82    53    59   ar
    83    57    62   ar
    84    66    78   ar
    85    70    72   ar
    86    74    76   ar
@<TRIPOS>SUBSTRUCTURE
     1 RES1        1 GROUP             0 ****  ****    0  
@<TRIPOS>CRYSIN
   15.1046   14.4631   16.9754   90.0000   93.1030   90.0000    14     1
