@<TRIPOS>MOLECULE
XECNAU21
    79    86     1     0     0
SMALL
NO_CHARGES
****
Generated from the CSD

@<TRIPOS>ATOM
     1 Fe1      4.3307   4.1007   1.1163   Fe        1 RES1   0.0000
     2 S1       3.0461   7.0288  -2.3828   S.2       1 RES1   0.0000
     3 S2       6.4497   1.0748  -1.8043   S.2       1 RES1   0.0000
     4 N1       2.6013   3.1562   1.3358   N.ar      1 RES1   0.0000
     5 N2       3.9531   5.3985   2.6082   N.2       1 RES1   0.0000
     6 C1       2.7501   5.4904   3.3877   C.ar      1 RES1   0.0000
     7 C2       6.1148   2.6660   3.1499   C.ar      1 RES1   0.0000
     8 C3       3.4030   6.0111  -1.1478   C.1       1 RES1   0.0000
     9 N3       4.8079   2.8174   2.5808   N.2       1 RES1   0.0000
    10 C4       4.9736   6.0727   2.9979   C.2       1 RES1   0.0000
    11 H1       4.9318   6.6406   3.7593   H         1 RES1   0.0000
    12 C5       3.8117   2.1907   3.0908   C.2       1 RES1   0.0000
    13 H2       3.9081   1.6410   3.8594   H         1 RES1   0.0000
    14 N4       6.0724   5.0700   1.1895   N.ar      1 RES1   0.0000
    15 N5       4.9753   2.8579  -0.2443   N.2       1 RES1   0.0000
    16 C6       2.5286   2.3633   2.4320   C.ar      1 RES1   0.0000
    17 C7       0.3822   5.7947   3.4824   C.ar      1 RES1   0.0000
    18 H3      -0.4473   5.9547   3.0488   H         1 RES1   0.0000
    19 C8       1.5509   5.7235   2.7398   C.ar      1 RES1   0.0000
    20 H4       1.5286   5.8337   1.7963   H         1 RES1   0.0000
    21 C9       0.4239   5.6322   4.8601   C.ar      1 RES1   0.0000
    22 C10      1.4992   3.2828   0.5909   C.ar      1 RES1   0.0000
    23 H5       1.5440   3.8094  -0.1985   H         1 RES1   0.0000
    24 C11      7.1554   2.2691   2.3243   C.ar      1 RES1   0.0000
    25 H6       6.9885   2.0517   1.4143   H         1 RES1   0.0000
    26 C12      5.5728   2.1165  -0.9033   C.1       1 RES1   0.0000
    27 C13      1.6221   5.4116   5.4909   C.ar      1 RES1   0.0000
    28 H7       1.6492   5.3136   6.4362   H         1 RES1   0.0000
    29 C14      6.3591   2.9778   4.4748   C.ar      1 RES1   0.0000
    30 H8       5.6459   3.2518   5.0385   H         1 RES1   0.0000
    31 C15      6.1948   5.9297   2.2251   C.ar      1 RES1   0.0000
    32 C16      7.6500   2.8893   4.9802   C.ar      1 RES1   0.0000
    33 H9       7.8220   3.1049   5.8891   H         1 RES1   0.0000
    34 N6      10.2264   2.2225   5.7751   N.2       1 RES1   0.0000
    35 C17     14.2096   1.6596   6.9816   C.ar      1 RES1   0.0000
    36 H10     15.1008   1.4941   7.2668   H         1 RES1   0.0000
    37 N7       3.6529   5.3101  -0.2528   N.2       1 RES1   0.0000
    38 C18      1.3537   1.7573   2.8337   C.ar      1 RES1   0.0000
    39 H11      1.3277   1.2290   3.6225   H         1 RES1   0.0000
    40 C19      8.6852   2.4862   4.1536   C.ar      1 RES1   0.0000
    41 N8      10.0627   2.3446   4.5509   N.2       1 RES1   0.0000
    42 N9      -1.7511   5.6640   5.1473   N.2       1 RES1   0.0000
    43 N10     -0.7243   5.7419   5.7804   N.2       1 RES1   0.0000
    44 C20      0.3022   2.6871   0.9140   C.ar      1 RES1   0.0000
    45 H12     -0.4561   2.7922   0.3519   H         1 RES1   0.0000
    46 C21     11.6179   2.0737   6.1396   C.ar      1 RES1   0.0000
    47 C22      8.4335   2.1927   2.8320   C.ar      1 RES1   0.0000
    48 H13      9.1497   1.9350   2.2633   H         1 RES1   0.0000
    49 C23      2.7850   5.3294   4.7587   C.ar      1 RES1   0.0000
    50 H14      3.6110   5.1638   5.1970   H         1 RES1   0.0000
    51 C24      0.2156   1.9350   2.0648   C.ar      1 RES1   0.0000
    52 H15     -0.6102   1.5460   2.3266   H         1 RES1   0.0000
    53 C25     12.6725   2.3441   5.2787   C.ar      1 RES1   0.0000
    54 H16     12.5038   2.6640   4.3998   H         1 RES1   0.0000
    55 C26      7.1280   4.9303   0.3803   C.ar      1 RES1   0.0000
    56 H17      7.0490   4.3483  -0.3669   H         1 RES1   0.0000
    57 C27     13.1663   1.4192   7.8288   C.ar      1 RES1   0.0000
    58 H18     13.3365   1.1008   8.7078   H         1 RES1   0.0000
    59 C28     13.9719   2.1424   5.7157   C.ar      1 RES1   0.0000
    60 H19     14.7005   2.3369   5.1386   H         1 RES1   0.0000
    61 C29     -2.9547   5.8467   6.0042   C.ar      1 RES1   0.0000
    62 C30     11.8614   1.6367   7.4135   C.ar      1 RES1   0.0000
    63 H20     11.1378   1.4840   8.0106   H         1 RES1   0.0000
    64 C31      8.3176   5.5830   0.5737   C.ar      1 RES1   0.0000
    65 H21      9.0372   5.4620  -0.0350   H         1 RES1   0.0000
    66 C32      7.3693   6.6089   2.5034   C.ar      1 RES1   0.0000
    67 H22      7.4316   7.1895   3.2523   H         1 RES1   0.0000
    68 C33     -5.2959   6.2746   7.3802   C.ar      1 RES1   0.0000
    69 H23     -6.1162   6.4158   7.8372   H         1 RES1   0.0000
    70 C34     -4.1353   5.6306   5.3821   C.ar      1 RES1   0.0000
    71 H24     -4.1556   5.3381   4.4798   H         1 RES1   0.0000
    72 C35     -5.3037   5.8366   6.0709   C.ar      1 RES1   0.0000
    73 H25     -6.1344   5.6752   5.6390   H         1 RES1   0.0000
    74 C36     -4.0985   6.5066   8.0273   C.ar      1 RES1   0.0000
    75 H26     -4.0871   6.8077   8.9279   H         1 RES1   0.0000
    76 C37     -2.8905   6.2861   7.3268   C.ar      1 RES1   0.0000
    77 H27     -2.0517   6.4360   7.7488   H         1 RES1   0.0000
    78 C38      8.4553   6.4144   1.6545   C.ar      1 RES1   0.0000
    79 H28      9.2825   6.8523   1.8229   H         1 RES1   0.0000
@<TRIPOS>BOND
     1     1     4    1
     2     2     8    2
     3     3    26    2
     4     4    16   ar
     5     5     1    1
     6     6     5    1
     7     7     9    1
     8     8    37    2
     9     9     1    1
    10    10     5    2
    11    11    10    1
    12    12     9    2
    13    13    12    1
    14    14     1    1
    15    15     1    1
    16    16    12    1
    17    17    18    1
    18    19     6   ar
    19    20    19    1
    20    21    17   ar
    21    22     4   ar
    22    23    22    1
    23    24     7   ar
    24    25    24    1
    25    26    15    2
    26    27    21   ar
    27    28    27    1
    28    29     7   ar
    29    30    29    1
    30    31    10    1
    31    32    29   ar
    32    33    32    1
    33    34    41    2
    34    35    36    1
    35    37     1    1
    36    38    16   ar
    37    39    38    1
    38    40    32   ar
    39    41    40    1
    40    42    43    2
    41    43    21    1
    42    44    22   ar
    43    45    44    1
    44    46    34    1
    45    47    24   ar
    46    48    47    1
    47    49     6   ar
    48    50    49    1
    49    51    38   ar
    50    52    51    1
    51    53    46   ar
    52    54    53    1
    53    55    14   ar
    54    56    55    1
    55    57    35   ar
    56    58    57    1
    57    59    35   ar
    58    60    59    1
    59    61    42    1
    60    62    46   ar
    61    63    62    1
    62    64    55   ar
    63    65    64    1
    64    66    31   ar
    65    67    66    1
    66    68    69    1
    67    70    61   ar
    68    71    70    1
    69    72    68   ar
    70    73    72    1
    71    74    68   ar
    72    75    74    1
    73    76    61   ar
    74    77    76    1
    75    78    64   ar
    76    79    78    1
    77    14    31   ar
    78    17    19   ar
    79    27    49   ar
    80    40    47   ar
    81    44    51   ar
    82    53    59   ar
    83    57    62   ar
    84    66    78   ar
    85    70    72   ar
    86    74    76   ar
@<TRIPOS>SUBSTRUCTURE
     1 RES1        1 GROUP             0 ****  ****    0  
@<TRIPOS>CRYSIN
   15.0266   14.4078   16.6985   90.0000   92.8130   90.0000    14     1
