@<TRIPOS>MOLECULE
XECNAU33
    79    86     1     0     0
SMALL
NO_CHARGES
****
Generated from the CSD

@<TRIPOS>ATOM
     1 Fe1      4.3408   4.1280   1.0200   Fe        1 RES1   0.0000
     2 S1       3.0208   7.1292  -2.4428   S.2       1 RES1   0.0000
     3 S2       6.5977   1.0625  -1.8100   S.2       1 RES1   0.0000
     4 N1       2.5556   3.1321   1.3369   N.ar      1 RES1   0.0000
     5 N2       3.9719   5.4500   2.6657   N.2       1 RES1   0.0000
     6 C1       2.7749   5.5324   3.4604   C.ar      1 RES1   0.0000
     7 C2       6.1029   2.6378   3.1946   C.ar      1 RES1   0.0000
     8 C3       3.3379   6.0905  -1.2163   C.1       1 RES1   0.0000
     9 N3       4.8101   2.7818   2.5964   N.2       1 RES1   0.0000
    10 C4       5.0103   6.0732   3.0762   C.2       1 RES1   0.0000
    11 H1       4.9845   6.6011   3.8659   H         1 RES1   0.0000
    12 C5       3.7970   2.1951   3.1068   C.2       1 RES1   0.0000
    13 H2       3.8816   1.6643   3.8894   H         1 RES1   0.0000
    14 N4       6.1377   5.1473   1.2257   N.ar      1 RES1   0.0000
    15 N5       5.0920   2.8960  -0.3671   N.2       1 RES1   0.0000
    16 C6       2.5092   2.3653   2.4497   C.ar      1 RES1   0.0000
    17 C7       0.4066   5.8107   3.5311   C.ar      1 RES1   0.0000
    18 H3      -0.4237   5.9593   3.0920   H         1 RES1   0.0000
    19 C8       1.5787   5.7516   2.8109   C.ar      1 RES1   0.0000
    20 H4       1.5642   5.8598   1.8673   H         1 RES1   0.0000
    21 C9       0.4598   5.6550   4.8904   C.ar      1 RES1   0.0000
    22 C10      1.4367   3.2623   0.6325   C.ar      1 RES1   0.0000
    23 H5       1.4616   3.7743  -0.1682   H         1 RES1   0.0000
    24 C11      7.1639   2.2802   2.3787   C.ar      1 RES1   0.0000
    25 H6       7.0124   2.0855   1.4619   H         1 RES1   0.0000
    26 C12      5.7096   2.1302  -0.9724   C.1       1 RES1   0.0000
    27 C13      1.6483   5.4386   5.5448   C.ar      1 RES1   0.0000
    28 H7       1.6641   5.3406   6.4902   H         1 RES1   0.0000
    29 C14      6.3293   2.9364   4.5270   C.ar      1 RES1   0.0000
    30 H8       5.6084   3.1931   5.0906   H         1 RES1   0.0000
    31 C15      6.2327   5.9506   2.2997   C.ar      1 RES1   0.0000
    32 C16      7.6250   2.8571   5.0317   C.ar      1 RES1   0.0000
    33 H9       7.7888   3.0647   5.9435   H         1 RES1   0.0000
    34 N6      10.2043   2.2153   5.8089   N.2       1 RES1   0.0000
    35 C17     14.2009   1.6831   7.0353   C.ar      1 RES1   0.0000
    36 H10     15.0881   1.5288   7.3364   H         1 RES1   0.0000
    37 N7       3.5667   5.3752  -0.3365   N.2       1 RES1   0.0000
    38 C18      1.3438   1.7884   2.8935   C.ar      1 RES1   0.0000
    39 H11      1.3355   1.2793   3.6960   H         1 RES1   0.0000
    40 C19      8.6692   2.4792   4.2192   C.ar      1 RES1   0.0000
    41 N8      10.0806   2.3537   4.6010   N.2       1 RES1   0.0000
    42 N9      -1.6339   5.6910   5.2455   N.2       1 RES1   0.0000
    43 N10     -0.7184   5.7805   5.9317   N.2       1 RES1   0.0000
    44 C20      0.2386   2.6898   1.0094   C.ar      1 RES1   0.0000
    45 H12     -0.5386   2.8037   0.4761   H         1 RES1   0.0000
    46 C21     11.6227   2.0682   6.1807   C.ar      1 RES1   0.0000
    47 C22      8.4331   2.2066   2.8986   C.ar      1 RES1   0.0000
    48 H13      9.1572   1.9643   2.3333   H         1 RES1   0.0000
    49 C23      2.8006   5.3680   4.8281   C.ar      1 RES1   0.0000
    50 H14      3.6247   5.2036   5.2706   H         1 RES1   0.0000
    51 C24      0.1866   1.9571   2.1617   C.ar      1 RES1   0.0000
    52 H15     -0.6318   1.5720   2.4528   H         1 RES1   0.0000
    53 C25     12.6832   2.3523   5.3177   C.ar      1 RES1   0.0000
    54 H16     12.5192   2.6739   4.4379   H         1 RES1   0.0000
    55 C26      7.2099   5.0392   0.4408   C.ar      1 RES1   0.0000
    56 H17      7.1508   4.4983  -0.3398   H         1 RES1   0.0000
    57 C27     13.1498   1.4393   7.8630   C.ar      1 RES1   0.0000
    58 H18     13.3106   1.1249   8.7462   H         1 RES1   0.0000
    59 C28     13.9831   2.1532   5.7685   C.ar      1 RES1   0.0000
    60 H19     14.7179   2.3436   5.1982   H         1 RES1   0.0000
    61 C29     -2.8779   5.8785   6.1908   C.ar      1 RES1   0.0000
    62 C30     11.8605   1.6398   7.4390   C.ar      1 RES1   0.0000
    63 H20     11.1352   1.4783   8.0295   H         1 RES1   0.0000
    64 C31      8.3880   5.6723   0.7116   C.ar      1 RES1   0.0000
    65 H21      9.1269   5.5685   0.1228   H         1 RES1   0.0000
    66 C32      7.3987   6.5982   2.6462   C.ar      1 RES1   0.0000
    67 H22      7.4426   7.1333   3.4302   H         1 RES1   0.0000
    68 C33     -5.2217   6.2982   7.5349   C.ar      1 RES1   0.0000
    69 H23     -6.0495   6.4323   7.9791   H         1 RES1   0.0000
    70 C34     -4.0412   5.6233   5.5751   C.ar      1 RES1   0.0000
    71 H24     -4.0537   5.3060   4.6801   H         1 RES1   0.0000
    72 C35     -5.1944   5.8266   6.2497   C.ar      1 RES1   0.0000
    73 H25     -6.0175   5.6348   5.8156   H         1 RES1   0.0000
    74 C36     -4.0387   6.5737   8.1776   C.ar      1 RES1   0.0000
    75 H26     -4.0411   6.9083   9.0675   H         1 RES1   0.0000
    76 C37     -2.8206   6.3545   7.5013   C.ar      1 RES1   0.0000
    77 H27     -1.9880   6.5246   7.9252   H         1 RES1   0.0000
    78 C38      8.5052   6.4525   1.8253   C.ar      1 RES1   0.0000
    79 H28      9.3250   6.8866   2.0322   H         1 RES1   0.0000
@<TRIPOS>BOND
     1     1     4    1
     2     2     8    2
     3     3    26    2
     4     4    16   ar
     5     5     1    1
     6     6     5    1
     7     7     9    1
     8     8    37    2
     9     9     1    1
    10    10     5    2
    11    11    10    1
    12    12     9    2
    13    13    12    1
    14    14     1    1
    15    15     1    1
    16    16    12    1
    17    17    18    1
    18    19     6   ar
    19    20    19    1
    20    21    17   ar
    21    22     4   ar
    22    23    22    1
    23    24     7   ar
    24    25    24    1
    25    26    15    2
    26    27    21   ar
    27    28    27    1
    28    29     7   ar
    29    30    29    1
    30    31    10    1
    31    32    29   ar
    32    33    32    1
    33    34    41    2
    34    35    36    1
    35    37     1    1
    36    38    16   ar
    37    39    38    1
    38    40    32   ar
    39    41    40    1
    40    42    43    2
    41    43    21    1
    42    44    22   ar
    43    45    44    1
    44    46    34    1
    45    47    24   ar
    46    48    47    1
    47    49     6   ar
    48    50    49    1
    49    51    38   ar
    50    52    51    1
    51    53    46   ar
    52    54    53    1
    53    55    14   ar
    54    56    55    1
    55    57    35   ar
    56    58    57    1
    57    59    35   ar
    58    60    59    1
    59    61    42    1
    60    62    46   ar
    61    63    62    1
    62    64    55   ar
    63    65    64    1
    64    66    31   ar
    65    67    66    1
    66    68    69    1
    67    70    61   ar
    68    71    70    1
    69    72    68   ar
    70    73    72    1
    71    74    68   ar
    72    75    74    1
    73    76    61   ar
    74    77    76    1
    75    78    64   ar
    76    79    78    1
    77    14    31   ar
    78    17    19   ar
    79    27    49   ar
    80    40    47   ar
    81    44    51   ar
    82    53    59   ar
    83    57    62   ar
    84    66    78   ar
    85    70    72   ar
    86    74    76   ar
@<TRIPOS>SUBSTRUCTURE
     1 RES1        1 GROUP             0 ****  ****    0  
@<TRIPOS>CRYSIN
   15.0713   14.4223   16.8453   90.0000   92.9620   90.0000    14     1
