@<TRIPOS>MOLECULE
XECNAU43
    79    86     1     0     0
SMALL
NO_CHARGES
****
Generated from the CSD

@<TRIPOS>ATOM
     1 Fe1      4.3702   4.1865   0.9409   Fe        1 RES1   0.0000
     2 S1       2.9791   7.2264  -2.4942   S.2       1 RES1   0.0000
     3 S2       6.6973   1.0586  -1.8118   S.2       1 RES1   0.0000
     4 N1       2.5366   3.1434   1.3276   N.ar      1 RES1   0.0000
     5 N2       3.9984   5.5266   2.7296   N.2       1 RES1   0.0000
     6 C1       2.8088   5.6009   3.5117   C.ar      1 RES1   0.0000
     7 C2       6.0913   2.6272   3.2532   C.ar      1 RES1   0.0000
     8 C3       3.2987   6.1933  -1.2788   C.1       1 RES1   0.0000
     9 N3       4.8237   2.7726   2.6167   N.2       1 RES1   0.0000
    10 C4       5.0472   6.1103   3.1512   C.2       1 RES1   0.0000
    11 H1       5.0247   6.6037   3.9402   H         1 RES1   0.0000
    12 C5       3.7926   2.2197   3.1120   C.2       1 RES1   0.0000
    13 H2       3.8587   1.7073   3.8858   H         1 RES1   0.0000
    14 N4       6.2168   5.2559   1.2764   N.ar      1 RES1   0.0000
    15 N5       5.2150   2.9518  -0.4634   N.2       1 RES1   0.0000
    16 C6       2.4976   2.3987   2.4488   C.ar      1 RES1   0.0000
    17 C7       0.4319   5.8672   3.5967   C.ar      1 RES1   0.0000
    18 H3      -0.3822   6.0084   3.1682   H         1 RES1   0.0000
    19 C8       1.6109   5.8119   2.8706   C.ar      1 RES1   0.0000
    20 H4       1.5935   5.9196   1.9455   H         1 RES1   0.0000
    21 C9       0.4864   5.7130   4.9487   C.ar      1 RES1   0.0000
    22 C10      1.4003   3.2793   0.6462   C.ar      1 RES1   0.0000
    23 H5       1.4122   3.7684  -0.1445   H         1 RES1   0.0000
    24 C11      7.1591   2.2925   2.4556   C.ar      1 RES1   0.0000
    25 H6       7.0256   2.1178   1.5526   H         1 RES1   0.0000
    26 C12      5.8351   2.1600  -1.0254   C.1       1 RES1   0.0000
    27 C13      1.6644   5.5004   5.5932   C.ar      1 RES1   0.0000
    28 H7       1.6804   5.3956   6.5166   H         1 RES1   0.0000
    29 C14      6.2994   2.9154   4.5881   C.ar      1 RES1   0.0000
    30 H8       5.5892   3.1629   5.1357   H         1 RES1   0.0000
    31 C15      6.2873   5.9968   2.3842   C.ar      1 RES1   0.0000
    32 C16      7.5975   2.8296   5.1034   C.ar      1 RES1   0.0000
    33 H9       7.7509   3.0144   6.0013   H         1 RES1   0.0000
    34 N6      10.1430   2.2444   5.8262   N.2       1 RES1   0.0000
    35 C17     14.1760   1.7146   7.1169   C.ar      1 RES1   0.0000
    36 H10     15.0363   1.5676   7.4417   H         1 RES1   0.0000
    37 N7       3.5139   5.4699  -0.4064   N.2       1 RES1   0.0000
    38 C18      1.3407   1.8267   2.9216   C.ar      1 RES1   0.0000
    39 H11      1.3470   1.3304   3.7089   H         1 RES1   0.0000
    40 C19      8.6386   2.4773   4.2956   C.ar      1 RES1   0.0000
    41 N8      10.1516   2.3536   4.6902   N.2       1 RES1   0.0000
    42 N9      -1.5305   5.7552   5.3245   N.2       1 RES1   0.0000
    43 N10     -0.7350   5.8541   6.0574   N.2       1 RES1   0.0000
    44 C20      0.1994   2.7233   1.0629   C.ar      1 RES1   0.0000
    45 H12     -0.5748   2.8456   0.5629   H         1 RES1   0.0000
    46 C21     11.6585   2.0814   6.2020   C.ar      1 RES1   0.0000
    47 C22      8.4232   2.2139   2.9862   C.ar      1 RES1   0.0000
    48 H13      9.1378   1.9766   2.4403   H         1 RES1   0.0000
    49 C23      2.8171   5.4437   4.8789   C.ar      1 RES1   0.0000
    50 H14      3.6231   5.2952   5.3194   H         1 RES1   0.0000
    51 C24      0.1720   2.0014   2.2124   C.ar      1 RES1   0.0000
    52 H15     -0.6239   1.6273   2.5151   H         1 RES1   0.0000
    53 C25     12.7061   2.3434   5.3551   C.ar      1 RES1   0.0000
    54 H16     12.5620   2.6316   4.4827   H         1 RES1   0.0000
    55 C26      7.3122   5.1657   0.5374   C.ar      1 RES1   0.0000
    56 H17      7.2857   4.6562  -0.2398   H         1 RES1   0.0000
    57 C27     13.1361   1.4861   7.9026   C.ar      1 RES1   0.0000
    58 H18     13.2788   1.1950   8.7732   H         1 RES1   0.0000
    59 C28     14.0080   2.1556   5.8568   C.ar      1 RES1   0.0000
    60 H19     14.7477   2.3361   5.3228   H         1 RES1   0.0000
    61 C29     -2.7886   5.9531   6.3533   C.ar      1 RES1   0.0000
    62 C30     11.8688   1.6695   7.4638   C.ar      1 RES1   0.0000
    63 H20     11.1485   1.5108   8.0318   H         1 RES1   0.0000
    64 C31      8.4910   5.7959   0.8741   C.ar      1 RES1   0.0000
    65 H21      9.2318   5.7275   0.3180   H         1 RES1   0.0000
    66 C32      7.4454   6.6299   2.7991   C.ar      1 RES1   0.0000
    67 H22      7.4638   7.1219   3.5882   H         1 RES1   0.0000
    68 C33     -5.1395   6.3563   7.6679   C.ar      1 RES1   0.0000
    69 H23     -5.9555   6.4873   8.0964   H         1 RES1   0.0000
    70 C34     -3.9489   5.6809   5.7462   C.ar      1 RES1   0.0000
    71 H24     -3.9523   5.3607   4.8721   H         1 RES1   0.0000
    72 C35     -5.1120   5.8702   6.3975   C.ar      1 RES1   0.0000
    73 H25     -5.9111   5.6635   5.9707   H         1 RES1   0.0000
    74 C36     -3.9678   6.6561   8.3175   C.ar      1 RES1   0.0000
    75 H26     -3.9746   6.9895   9.1848   H         1 RES1   0.0000
    76 C37     -2.7563   6.4465   7.6356   C.ar      1 RES1   0.0000
    77 H27     -1.9457   6.6401   8.0454   H         1 RES1   0.0000
    78 C38      8.5639   6.5150   2.0152   C.ar      1 RES1   0.0000
    79 H28      9.3601   6.9254   2.2635   H         1 RES1   0.0000
@<TRIPOS>BOND
     1     1     4    1
     2     2     8    2
     3     3    26    2
     4     4    16   ar
     5     5     1    1
     6     6     5    1
     7     7     9    1
     8     8    37    2
     9     9     1    1
    10    10     5    2
    11    11    10    1
    12    12     9    2
    13    13    12    1
    14    14     1    1
    15    15     1    1
    16    16    12    1
    17    17    18    1
    18    19     6   ar
    19    20    19    1
    20    21    17   ar
    21    22     4   ar
    22    23    22    1
    23    24     7   ar
    24    25    24    1
    25    26    15    2
    26    27    21   ar
    27    28    27    1
    28    29     7   ar
    29    30    29    1
    30    31    10    1
    31    32    29   ar
    32    33    32    1
    33    34    41    2
    34    35    36    1
    35    37     1    1
    36    38    16   ar
    37    39    38    1
    38    40    32   ar
    39    41    40    1
    40    42    43    2
    41    43    21    1
    42    44    22   ar
    43    45    44    1
    44    46    34    1
    45    47    24   ar
    46    48    47    1
    47    49     6   ar
    48    50    49    1
    49    51    38   ar
    50    52    51    1
    51    53    46   ar
    52    54    53    1
    53    55    14   ar
    54    56    55    1
    55    57    35   ar
    56    58    57    1
    57    59    35   ar
    58    60    59    1
    59    61    42    1
    60    62    46   ar
    61    63    62    1
    62    64    55   ar
    63    65    64    1
    64    66    31   ar
    65    67    66    1
    66    68    69    1
    67    70    61   ar
    68    71    70    1
    69    72    68   ar
    70    73    72    1
    71    74    68   ar
    72    75    74    1
    73    76    61   ar
    74    77    76    1
    75    78    64   ar
    76    79    78    1
    77    14    31   ar
    78    17    19   ar
    79    27    49   ar
    80    40    47   ar
    81    44    51   ar
    82    53    59   ar
    83    57    62   ar
    84    66    78   ar
    85    70    72   ar
    86    74    76   ar
@<TRIPOS>SUBSTRUCTURE
     1 RES1        1 GROUP             0 ****  ****    0  
@<TRIPOS>CRYSIN
   15.1213   14.5553   17.0282   90.0000   92.9450   90.0000    14     1
