@<TRIPOS>MOLECULE
XECNAU03
    79    86     1     0     0
SMALL
NO_CHARGES
****
Generated from the CSD

@<TRIPOS>ATOM
     1 Fe1      3.7907   4.0597   9.4720   Fe        1 RES1   0.0000
     2 S1       2.5318   7.0928   5.9662   S.2       1 RES1   0.0000
     3 S2       6.0832   1.0247   6.6604   S.2       1 RES1   0.0000
     4 N1       5.5725   5.0888   9.6463   N.ar      1 RES1   0.0000
     5 N2       3.4611   5.3777  11.1499   N.2       1 RES1   0.0000
     6 N3      -1.2070   5.6666  14.3783   N.2       1 RES1   0.0000
     7 N4      -2.2338   5.5916  13.7481   N.2       1 RES1   0.0000
     8 N5       2.0229   3.0550   9.7899   N.ar      1 RES1   0.0000
     9 N6       4.2640   2.7080  11.0806   N.2       1 RES1   0.0000
    10 N7       9.5066   2.3142  13.0842   N.2       1 RES1   0.0000
    11 N8       9.6707   2.1443  14.3225   N.2       1 RES1   0.0000
    12 N9       4.4975   2.8241   8.0820   N.2       1 RES1   0.0000
    13 N10      3.0451   5.3140   8.0854   N.2       1 RES1   0.0000
    14 C1       6.6204   4.9712   8.8202   C.ar      1 RES1   0.0000
    15 H1       6.5268   4.4613   8.0245   H         1 RES1   0.0000
    16 C2       7.8359   5.5746   9.0973   C.ar      1 RES1   0.0000
    17 H2       8.5646   5.4867   8.4942   H         1 RES1   0.0000
    18 C3       7.9763   6.3167  10.2782   C.ar      1 RES1   0.0000
    19 H3       8.8152   6.7048  10.4978   H         1 RES1   0.0000
    20 C4       6.8972   6.4838  11.1245   C.ar      1 RES1   0.0000
    21 H4       6.9612   7.0093  11.9135   H         1 RES1   0.0000
    22 C5       5.7087   5.8465  10.7698   C.ar      1 RES1   0.0000
    23 C6       4.4784   5.9740  11.5553   C.2       1 RES1   0.0000
    24 H5       4.4565   6.4966  12.3493   H         1 RES1   0.0000
    25 C7       2.2432   5.4712  11.9270   C.ar      1 RES1   0.0000
    26 C8       2.3240   5.2729  13.3343   C.ar      1 RES1   0.0000
    27 H6       3.1620   5.1072  13.7498   H         1 RES1   0.0000
    28 C9       1.1475   5.3253  14.0979   C.ar      1 RES1   0.0000
    29 H7       1.1757   5.1964  15.0388   H         1 RES1   0.0000
    30 C10     -0.0675   5.5689  13.4491   C.ar      1 RES1   0.0000
    31 C11     -0.1169   5.7417  12.0706   C.ar      1 RES1   0.0000
    32 H8      -0.9531   5.9088  11.6499   H         1 RES1   0.0000
    33 C12      1.0439   5.6723  11.2935   C.ar      1 RES1   0.0000
    34 H9       1.0039   5.7615  10.3491   H         1 RES1   0.0000
    35 C13     -3.4244   5.7842  14.6503   C.ar      1 RES1   0.0000
    36 C14     -3.3959   6.2940  15.9494   C.ar      1 RES1   0.0000
    37 H10     -2.5667   6.5008  16.3616   H         1 RES1   0.0000
    38 C15     -4.5797   6.4952  16.6319   C.ar      1 RES1   0.0000
    39 H11     -4.5743   6.8209  17.5239   H         1 RES1   0.0000
    40 C16     -5.7888   6.2091  15.9849   C.ar      1 RES1   0.0000
    41 H12     -6.6137   6.3564  16.4326   H         1 RES1   0.0000
    42 C17     -5.7854   5.7176  14.7060   C.ar      1 RES1   0.0000
    43 H13     -6.6145   5.5122  14.2921   H         1 RES1   0.0000
    44 C18     -4.6070   5.5080  13.9880   C.ar      1 RES1   0.0000
    45 H14     -4.6168   5.1922  13.0927   H         1 RES1   0.0000
    46 C19      2.8372   6.0334   7.1883   C.1       1 RES1   0.0000
    47 C20      0.9257   3.2023   9.1041   C.ar      1 RES1   0.0000
    48 H15      0.9507   3.7206   8.3084   H         1 RES1   0.0000
    49 C21     -0.2616   2.6400   9.4825   C.ar      1 RES1   0.0000
    50 H16     -1.0319   2.7405   8.9351   H         1 RES1   0.0000
    51 C22     -0.3403   1.9290  10.6617   C.ar      1 RES1   0.0000
    52 H17     -1.1668   1.5622  10.9556   H         1 RES1   0.0000
    53 C23      0.8020   1.7633  11.3982   C.ar      1 RES1   0.0000
    54 H18      0.7823   1.2662  12.2074   H         1 RES1   0.0000
    55 C24      1.9977   2.3298  10.9522   C.ar      1 RES1   0.0000
    56 C25      3.2689   2.1556  11.5908   C.2       1 RES1   0.0000
    57 H19      3.3524   1.6330  12.3798   H         1 RES1   0.0000
    58 C26      5.5652   2.5663  11.6415   C.ar      1 RES1   0.0000
    59 C27      5.7883   2.8609  13.0031   C.ar      1 RES1   0.0000
    60 H20      5.0607   3.1074  13.5606   H         1 RES1   0.0000
    61 C28      7.0750   2.7929  13.5285   C.ar      1 RES1   0.0000
    62 H21      7.2308   2.9884  14.4442   H         1 RES1   0.0000
    63 C29      8.1422   2.4304  12.6822   C.ar      1 RES1   0.0000
    64 C30      7.8855   2.1740  11.3290   C.ar      1 RES1   0.0000
    65 H22      8.6083   1.9573  10.7512   H         1 RES1   0.0000
    66 C31      6.6041   2.2307  10.8171   C.ar      1 RES1   0.0000
    67 H23      6.4454   2.0395   9.8997   H         1 RES1   0.0000
    68 C32     11.0769   2.0366  14.6773   C.ar      1 RES1   0.0000
    69 C33     12.1161   2.3256  13.7955   C.ar      1 RES1   0.0000
    70 H24     11.9310   2.6442  12.9204   H         1 RES1   0.0000
    71 C34     13.4196   2.1414  14.2127   C.ar      1 RES1   0.0000
    72 H25     14.1439   2.3496  13.6333   H         1 RES1   0.0000
    73 C35     13.6643   1.6472  15.4865   C.ar      1 RES1   0.0000
    74 H26     14.5584   1.4899  15.7636   H         1 RES1   0.0000
    75 C36     12.6081   1.3752  16.3768   C.ar      1 RES1   0.0000
    76 H27     12.7919   1.0509  17.2502   H         1 RES1   0.0000
    77 C37     11.2876   1.5820  15.9680   C.ar      1 RES1   0.0000
    78 H28     10.5598   1.4163  16.5559   H         1 RES1   0.0000
    79 C38      5.1521   2.0720   7.4890   C.1       1 RES1   0.0000
@<TRIPOS>BOND
     1     1     4    1
     2     2    46    2
     3     3    79    2
     4     4    14   ar
     5     5     1    1
     6     6     7    2
     7     7    35    1
     8     8     1    1
     9     9     1    1
    10    10    11    2
    11    11    68    1
    12    12     1    1
    13    13     1    1
    14    14    15    1
    15    16    14   ar
    16    17    16    1
    17    18    16   ar
    18    19    18    1
    19    20    18   ar
    20    21    20    1
    21    22     4   ar
    22    23     5    2
    23    24    23    1
    24    25     5    1
    25    26    25   ar
    26    27    26    1
    27    28    26   ar
    28    29    28    1
    29    30     6    1
    30    31    30   ar
    31    32    31    1
    32    33    25   ar
    33    34    33    1
    34    35    36   ar
    35    36    37    1
    36    38    36   ar
    37    39    38    1
    38    40    38   ar
    39    41    40    1
    40    42    40   ar
    41    43    42    1
    42    44    35   ar
    43    45    44    1
    44    46    13    2
    45    47     8   ar
    46    48    47    1
    47    49    47   ar
    48    50    49    1
    49    51    49   ar
    50    52    51    1
    51    53    51   ar
    52    54    53    1
    53    55     8   ar
    54    56     9    2
    55    57    56    1
    56    58     9    1
    57    59    58   ar
    58    60    59    1
    59    61    59   ar
    60    62    61    1
    61    63    10    1
    62    64    63   ar
    63    65    64    1
    64    66    58   ar
    65    67    66    1
    66    68    69   ar
    67    69    70    1
    68    71    69   ar
    69    72    71    1
    70    73    71   ar
    71    74    73    1
    72    75    73   ar
    73    76    75    1
    74    77    68   ar
    75    78    77    1
    76    79    12    2
    77    20    22   ar
    78    22    23    1
    79    28    30   ar
    80    31    33   ar
    81    42    44   ar
    82    53    55   ar
    83    55    56    1
    84    61    63   ar
    85    64    66   ar
    86    75    77   ar
@<TRIPOS>SUBSTRUCTURE
     1 RES1        1 GROUP             0 ****  ****    0  
@<TRIPOS>CRYSIN
   15.0180   14.1630   16.9220   90.0000   93.3100   90.0000    14     1
