@<TRIPOS>MOLECULE
XECNAU17
    79    86     1     0     0
SMALL
NO_CHARGES
****
Generated from the CSD

@<TRIPOS>ATOM
     1 Fe1      4.3406   4.1318   1.0091   Fe        1 RES1   0.0000
     2 S1       3.0181   7.1415  -2.4535   S.2       1 RES1   0.0000
     3 S2       6.6156   1.0611  -1.8103   S.2       1 RES1   0.0000
     4 N1       2.5504   3.1307   1.3420   N.ar      1 RES1   0.0000
     5 N2       3.9697   5.4564   2.6747   N.2       1 RES1   0.0000
     6 C1       2.7776   5.5386   3.4568   C.ar      1 RES1   0.0000
     7 C2       6.0983   2.6351   3.2021   C.ar      1 RES1   0.0000
     8 C3       3.3337   6.1048  -1.2296   C.1       1 RES1   0.0000
     9 N3       4.8117   2.7769   2.6016   N.2       1 RES1   0.0000
    10 C4       5.0110   6.0731   3.0872   C.2       1 RES1   0.0000
    11 H1       4.9852   6.5967   3.8674   H         1 RES1   0.0000
    12 C5       3.7973   2.1941   3.1103   C.2       1 RES1   0.0000
    13 H2       3.8805   1.6676   3.8843   H         1 RES1   0.0000
    14 N4       6.1427   5.1583   1.2278   N.ar      1 RES1   0.0000
    15 N5       5.1079   2.8966  -0.3807   N.2       1 RES1   0.0000
    16 C6       2.5061   2.3701   2.4545   C.ar      1 RES1   0.0000
    17 C7       0.4083   5.8163   3.5525   C.ar      1 RES1   0.0000
    18 H3      -0.4169   5.9620   3.1280   H         1 RES1   0.0000
    19 C8       1.5779   5.7557   2.8147   C.ar      1 RES1   0.0000
    20 H4       1.5529   5.8639   1.8798   H         1 RES1   0.0000
    21 C9       0.4696   5.6562   4.9185   C.ar      1 RES1   0.0000
    22 C10      1.4267   3.2630   0.6317   C.ar      1 RES1   0.0000
    23 H5       1.4531   3.7650  -0.1617   H         1 RES1   0.0000
    24 C11      7.1560   2.2778   2.3835   C.ar      1 RES1   0.0000
    25 H6       7.0043   2.0816   1.4772   H         1 RES1   0.0000
    26 C12      5.7307   2.1335  -0.9854   C.1       1 RES1   0.0000
    27 C13      1.6547   5.4355   5.5569   C.ar      1 RES1   0.0000
    28 H7       1.6783   5.3301   6.4901   H         1 RES1   0.0000
    29 C14      6.3335   2.9312   4.5294   C.ar      1 RES1   0.0000
    30 H8       5.6226   3.1894   5.0887   H         1 RES1   0.0000
    31 C15      6.2376   5.9447   2.3144   C.ar      1 RES1   0.0000
    32 C16      7.6233   2.8476   5.0381   C.ar      1 RES1   0.0000
    33 H9       7.7856   3.0452   5.9427   H         1 RES1   0.0000
    34 N6      10.1948   2.2150   5.8113   N.2       1 RES1   0.0000
    35 C17     14.1928   1.6849   7.0443   C.ar      1 RES1   0.0000
    36 H10     15.0700   1.5291   7.3407   H         1 RES1   0.0000
    37 N7       3.5485   5.3821  -0.3487   N.2       1 RES1   0.0000
    38 C18      1.3424   1.7887   2.9073   C.ar      1 RES1   0.0000
    39 H11      1.3372   1.2810   3.6990   H         1 RES1   0.0000
    40 C19      8.6629   2.4754   4.2195   C.ar      1 RES1   0.0000
    41 N8      10.0791   2.3523   4.6136   N.2       1 RES1   0.0000
    42 N9      -1.6203   5.6951   5.2605   N.2       1 RES1   0.0000
    43 N10     -0.7197   5.7831   5.9460   N.2       1 RES1   0.0000
    44 C20      0.2319   2.6961   1.0157   C.ar      1 RES1   0.0000
    45 H12     -0.5383   2.8072   0.4885   H         1 RES1   0.0000
    46 C21     11.6230   2.0686   6.1818   C.ar      1 RES1   0.0000
    47 C22      8.4319   2.2071   2.8989   C.ar      1 RES1   0.0000
    48 H13      9.1489   1.9734   2.3380   H         1 RES1   0.0000
    49 C23      2.7997   5.3705   4.8276   C.ar      1 RES1   0.0000
    50 H14      3.6169   5.2090   5.2622   H         1 RES1   0.0000
    51 C24      0.1773   1.9662   2.1746   C.ar      1 RES1   0.0000
    52 H15     -0.6342   1.5940   2.4677   H         1 RES1   0.0000
    53 C25     12.6766   2.3470   5.3278   C.ar      1 RES1   0.0000
    54 H16     12.5155   2.6600   4.4570   H         1 RES1   0.0000
    55 C26      7.2149   5.0503   0.4497   C.ar      1 RES1   0.0000
    56 H17      7.1541   4.5151  -0.3200   H         1 RES1   0.0000
    57 C27     13.1467   1.4411   7.8713   C.ar      1 RES1   0.0000
    58 H18     13.3062   1.1309   8.7439   H         1 RES1   0.0000
    59 C28     13.9767   2.1551   5.7843   C.ar      1 RES1   0.0000
    60 H19     14.7057   2.3513   5.2251   H         1 RES1   0.0000
    61 C29     -2.8714   5.8826   6.2021   C.ar      1 RES1   0.0000
    62 C30     11.8570   1.6402   7.4469   C.ar      1 RES1   0.0000
    63 H20     11.1388   1.4800   8.0314   H         1 RES1   0.0000
    64 C31      8.3955   5.6778   0.7125   C.ar      1 RES1   0.0000
    65 H21      9.1243   5.5811   0.1263   H         1 RES1   0.0000
    66 C32      7.4051   6.5967   2.6664   C.ar      1 RES1   0.0000
    67 H22      7.4519   7.1232   3.4430   H         1 RES1   0.0000
    68 C33     -5.2070   6.2995   7.5513   C.ar      1 RES1   0.0000
    69 H23     -6.0261   6.4337   7.9892   H         1 RES1   0.0000
    70 C34     -4.0327   5.6273   5.5990   C.ar      1 RES1   0.0000
    71 H24     -4.0452   5.3114   4.7130   H         1 RES1   0.0000
    72 C35     -5.1925   5.8206   6.2644   C.ar      1 RES1   0.0000
    73 H25     -6.0070   5.6244   5.8365   H         1 RES1   0.0000
    74 C36     -4.0286   6.5808   8.2032   C.ar      1 RES1   0.0000
    75 H26     -4.0294   6.9097   9.0824   H         1 RES1   0.0000
    76 C37     -2.8114   6.3587   7.5058   C.ar      1 RES1   0.0000
    77 H27     -1.9839   6.5289   7.9168   H         1 RES1   0.0000
    78 C38      8.5118   6.4481   1.8327   C.ar      1 RES1   0.0000
    79 H28      9.3259   6.8722   2.0398   H         1 RES1   0.0000
@<TRIPOS>BOND
     1     1     4    1
     2     2     8    2
     3     3    26    2
     4     4    16   ar
     5     5     1    1
     6     6     5    1
     7     7     9    1
     8     8    37    2
     9     9     1    1
    10    10     5    2
    11    11    10    1
    12    12     9    2
    13    13    12    1
    14    14     1    1
    15    15     1    1
    16    16    12    1
    17    17    18    1
    18    19     6   ar
    19    20    19    1
    20    21    17   ar
    21    22     4   ar
    22    23    22    1
    23    24     7   ar
    24    25    24    1
    25    26    15    2
    26    27    21   ar
    27    28    27    1
    28    29     7   ar
    29    30    29    1
    30    31    10    1
    31    32    29   ar
    32    33    32    1
    33    34    41    2
    34    35    36    1
    35    37     1    1
    36    38    16   ar
    37    39    38    1
    38    40    32   ar
    39    41    40    1
    40    42    43    2
    41    43    21    1
    42    44    22   ar
    43    45    44    1
    44    46    34    1
    45    47    24   ar
    46    48    47    1
    47    49     6   ar
    48    50    49    1
    49    51    38   ar
    50    52    51    1
    51    53    46   ar
    52    54    53    1
    53    55    14   ar
    54    56    55    1
    55    57    35   ar
    56    58    57    1
    57    59    35   ar
    58    60    59    1
    59    61    42    1
    60    62    46   ar
    61    63    62    1
    62    64    55   ar
    63    65    64    1
    64    66    31   ar
    65    67    66    1
    66    68    69    1
    67    70    61   ar
    68    71    70    1
    69    72    68   ar
    70    73    72    1
    71    74    68   ar
    72    75    74    1
    73    76    61   ar
    74    77    76    1
    75    78    64   ar
    76    79    78    1
    77    14    31   ar
    78    17    19   ar
    79    27    49   ar
    80    40    47   ar
    81    44    51   ar
    82    53    59   ar
    83    57    62   ar
    84    66    78   ar
    85    70    72   ar
    86    74    76   ar
@<TRIPOS>SUBSTRUCTURE
     1 RES1        1 GROUP             0 ****  ****    0  
@<TRIPOS>CRYSIN
   15.0800   14.4253   16.8673   90.0000   92.9940   90.0000    14     1
