@<TRIPOS>MOLECULE
XECNAU11
    79    86     1     0     0
SMALL
NO_CHARGES
****
Generated from the CSD

@<TRIPOS>ATOM
     1 Fe1      4.3163   4.0862   1.1361   Fe        1 RES1   0.0000
     2 S1       3.0487   7.0027  -2.3733   S.2       1 RES1   0.0000
     3 S2       6.4146   1.0693  -1.7951   S.2       1 RES1   0.0000
     4 N1       2.6001   3.1581   1.3341   N.ar      1 RES1   0.0000
     5 N2       3.9442   5.3786   2.5936   N.2       1 RES1   0.0000
     6 C1       2.7402   5.4684   3.3775   C.ar      1 RES1   0.0000
     7 C2       6.1048   2.6654   3.1449   C.ar      1 RES1   0.0000
     8 C3       3.4102   5.9896  -1.1283   C.1       1 RES1   0.0000
     9 N3       4.7975   2.8182   2.5752   N.2       1 RES1   0.0000
    10 C4       4.9619   6.0649   2.9803   C.2       1 RES1   0.0000
    11 H1       4.9180   6.6430   3.7332   H         1 RES1   0.0000
    12 C5       3.8022   2.1828   3.0877   C.2       1 RES1   0.0000
    13 H2       3.9018   1.6298   3.8546   H         1 RES1   0.0000
    14 N4       6.0462   5.0419   1.1808   N.ar      1 RES1   0.0000
    15 N5       4.9374   2.8422  -0.2172   N.2       1 RES1   0.0000
    16 C6       2.5166   2.3575   2.4292   C.ar      1 RES1   0.0000
    17 C7       0.3686   5.7763   3.4803   C.ar      1 RES1   0.0000
    18 H3      -0.4619   5.9387   3.0498   H         1 RES1   0.0000
    19 C8       1.5321   5.7026   2.7333   C.ar      1 RES1   0.0000
    20 H4       1.5037   5.8108   1.7893   H         1 RES1   0.0000
    21 C9       0.4164   5.6135   4.8559   C.ar      1 RES1   0.0000
    22 C10      1.4977   3.2787   0.5878   C.ar      1 RES1   0.0000
    23 H5       1.5439   3.8058  -0.2012   H         1 RES1   0.0000
    24 C11      7.1413   2.2661   2.3121   C.ar      1 RES1   0.0000
    25 H6       6.9697   2.0495   1.4035   H         1 RES1   0.0000
    26 C12      5.5373   2.0991  -0.8867   C.1       1 RES1   0.0000
    27 C13      1.6178   5.3979   5.4814   C.ar      1 RES1   0.0000
    28 H7       1.6490   5.3092   6.4271   H         1 RES1   0.0000
    29 C14      6.3547   2.9870   4.4702   C.ar      1 RES1   0.0000
    30 H8       5.6445   3.2726   5.0320   H         1 RES1   0.0000
    31 C15      6.1744   5.9104   2.2103   C.ar      1 RES1   0.0000
    32 C16      7.6437   2.8910   4.9729   C.ar      1 RES1   0.0000
    33 H9       7.8177   3.1045   5.8817   H         1 RES1   0.0000
    34 N6      10.2164   2.2162   5.7680   N.2       1 RES1   0.0000
    35 C17     14.2009   1.6435   6.9661   C.ar      1 RES1   0.0000
    36 H10     15.0926   1.4732   7.2453   H         1 RES1   0.0000
    37 N7       3.6571   5.2826  -0.2391   N.2       1 RES1   0.0000
    38 C18      1.3405   1.7465   2.8205   C.ar      1 RES1   0.0000
    39 H11      1.3100   1.2174   3.6085   H         1 RES1   0.0000
    40 C19      8.6784   2.4826   4.1428   C.ar      1 RES1   0.0000
    41 N8      10.0476   2.3394   4.5387   N.2       1 RES1   0.0000
    42 N9      -1.7969   5.6444   5.1186   N.2       1 RES1   0.0000
    43 N10     -0.7348   5.7161   5.7414   N.2       1 RES1   0.0000
    44 C20      0.2970   2.6779   0.9023   C.ar      1 RES1   0.0000
    45 H12     -0.4595   2.7868   0.3376   H         1 RES1   0.0000
    46 C21     11.6029   2.0663   6.1303   C.ar      1 RES1   0.0000
    47 C22      8.4244   2.1872   2.8156   C.ar      1 RES1   0.0000
    48 H13      9.1387   1.9274   2.2466   H         1 RES1   0.0000
    49 C23      2.7792   5.3081   4.7473   C.ar      1 RES1   0.0000
    50 H14      3.6048   5.1353   5.1833   H         1 RES1   0.0000
    51 C24      0.2113   1.9197   2.0457   C.ar      1 RES1   0.0000
    52 H15     -0.6124   1.5206   2.2998   H         1 RES1   0.0000
    53 C25     12.6597   2.3410   5.2633   C.ar      1 RES1   0.0000
    54 H16     12.4922   2.6675   4.3867   H         1 RES1   0.0000
    55 C26      7.0970   4.8889   0.3633   C.ar      1 RES1   0.0000
    56 H17      7.0158   4.2959  -0.3742   H         1 RES1   0.0000
    57 C27     13.1561   1.4063   7.8236   C.ar      1 RES1   0.0000
    58 H18     13.3258   1.0880   8.7020   H         1 RES1   0.0000
    59 C28     13.9568   2.1290   5.6998   C.ar      1 RES1   0.0000
    60 H19     14.6846   2.3197   5.1201   H         1 RES1   0.0000
    61 C29     -2.9691   5.8303   5.9602   C.ar      1 RES1   0.0000
    62 C30     11.8531   1.6321   7.4068   C.ar      1 RES1   0.0000
    63 H20     11.1314   1.4861   8.0069   H         1 RES1   0.0000
    64 C31      8.2902   5.5535   0.5454   C.ar      1 RES1   0.0000
    65 H21      9.0043   5.4328  -0.0682   H         1 RES1   0.0000
    66 C32      7.3556   6.5912   2.4742   C.ar      1 RES1   0.0000
    67 H22      7.4215   7.1791   3.2177   H         1 RES1   0.0000
    68 C33     -5.3239   6.2551   7.3284   C.ar      1 RES1   0.0000
    69 H23     -6.1408   6.3972   7.7907   H         1 RES1   0.0000
    70 C34     -4.1636   5.6152   5.3313   C.ar      1 RES1   0.0000
    71 H24     -4.1835   5.3221   4.4283   H         1 RES1   0.0000
    72 C35     -5.3404   5.8265   6.0181   C.ar      1 RES1   0.0000
    73 H25     -6.1725   5.6757   5.5840   H         1 RES1   0.0000
    74 C36     -4.1204   6.4777   7.9686   C.ar      1 RES1   0.0000
    75 H26     -4.1067   6.7752   8.8716   H         1 RES1   0.0000
    76 C37     -2.9228   6.2643   7.2835   C.ar      1 RES1   0.0000
    77 H27     -2.0890   6.4130   7.7126   H         1 RES1   0.0000
    78 C38      8.4374   6.3943   1.6280   C.ar      1 RES1   0.0000
    79 H28      9.2649   6.8312   1.7910   H         1 RES1   0.0000
@<TRIPOS>BOND
     1     1     4    1
     2     2     8    2
     3     3    26    2
     4     4    16   ar
     5     5     1    1
     6     6     5    1
     7     7     9    1
     8     8    37    2
     9     9     1    1
    10    10     5    2
    11    11    10    1
    12    12     9    2
    13    13    12    1
    14    14     1    1
    15    15     1    1
    16    16    12    1
    17    17    18    1
    18    19     6   ar
    19    20    19    1
    20    21    17   ar
    21    22     4   ar
    22    23    22    1
    23    24     7   ar
    24    25    24    1
    25    26    15    2
    26    27    21   ar
    27    28    27    1
    28    29     7   ar
    29    30    29    1
    30    31    10    1
    31    32    29   ar
    32    33    32    1
    33    34    41    2
    34    35    36    1
    35    37     1    1
    36    38    16   ar
    37    39    38    1
    38    40    32   ar
    39    41    40    1
    40    42    43    2
    41    43    21    1
    42    44    22   ar
    43    45    44    1
    44    46    34    1
    45    47    24   ar
    46    48    47    1
    47    49     6   ar
    48    50    49    1
    49    51    38   ar
    50    52    51    1
    51    53    46   ar
    52    54    53    1
    53    55    14   ar
    54    56    55    1
    55    57    35   ar
    56    58    57    1
    57    59    35   ar
    58    60    59    1
    59    61    42    1
    60    62    46   ar
    61    63    62    1
    62    64    55   ar
    63    65    64    1
    64    66    31   ar
    65    67    66    1
    66    68    69    1
    67    70    61   ar
    68    71    70    1
    69    72    68   ar
    70    73    72    1
    71    74    68   ar
    72    75    74    1
    73    76    61   ar
    74    77    76    1
    75    78    64   ar
    76    79    78    1
    77    14    31   ar
    78    17    19   ar
    79    27    49   ar
    80    40    47   ar
    81    44    51   ar
    82    53    59   ar
    83    57    62   ar
    84    66    78   ar
    85    70    72   ar
    86    74    76   ar
@<TRIPOS>SUBSTRUCTURE
     1 RES1        1 GROUP             0 ****  ****    0  
@<TRIPOS>CRYSIN
   15.0091   14.3725   16.6495   90.0000   92.8390   90.0000    14     1
