@<TRIPOS>MOLECULE
XECNAU37
    79    86     1     0     0
SMALL
NO_CHARGES
****
Generated from the CSD

@<TRIPOS>ATOM
     1 Fe1      4.3183   4.0892   1.1325   Fe        1 RES1   0.0000
     2 S1       3.0471   7.0051  -2.3729   S.2       1 RES1   0.0000
     3 S2       6.4170   1.0703  -1.7973   S.2       1 RES1   0.0000
     4 N1       2.6010   3.1578   1.3324   N.ar      1 RES1   0.0000
     5 N2       3.9441   5.3806   2.5971   N.2       1 RES1   0.0000
     6 C1       2.7373   5.4744   3.3778   C.ar      1 RES1   0.0000
     7 C2       6.1097   2.6657   3.1469   C.ar      1 RES1   0.0000
     8 C3       3.4016   5.9895  -1.1335   C.1       1 RES1   0.0000
     9 N3       4.7992   2.8194   2.5760   N.2       1 RES1   0.0000
    10 C4       4.9633   6.0612   2.9754   C.2       1 RES1   0.0000
    11 H1       4.9207   6.6377   3.7294   H         1 RES1   0.0000
    12 C5       3.8030   2.1860   3.0901   C.2       1 RES1   0.0000
    13 H2       3.9014   1.6364   3.8591   H         1 RES1   0.0000
    14 N4       6.0513   5.0434   1.1810   N.ar      1 RES1   0.0000
    15 N5       4.9375   2.8479  -0.2209   N.2       1 RES1   0.0000
    16 C6       2.5209   2.3564   2.4313   C.ar      1 RES1   0.0000
    17 C7       0.3733   5.7759   3.4721   C.ar      1 RES1   0.0000
    18 H3      -0.4568   5.9331   3.0374   H         1 RES1   0.0000
    19 C8       1.5355   5.7060   2.7387   C.ar      1 RES1   0.0000
    20 H4       1.5116   5.8166   1.7948   H         1 RES1   0.0000
    21 C9       0.4220   5.6150   4.8489   C.ar      1 RES1   0.0000
    22 C10      1.5034   3.2832   0.5839   C.ar      1 RES1   0.0000
    23 H5       1.5483   3.8106  -0.2046   H         1 RES1   0.0000
    24 C11      7.1429   2.2674   2.3158   C.ar      1 RES1   0.0000
    25 H6       6.9707   2.0491   1.4073   H         1 RES1   0.0000
    26 C12      5.5362   2.1079  -0.8849   C.1       1 RES1   0.0000
    27 C13      1.6238   5.3967   5.4810   C.ar      1 RES1   0.0000
    28 H7       1.6548   5.3076   6.4258   H         1 RES1   0.0000
    29 C14      6.3524   2.9835   4.4691   C.ar      1 RES1   0.0000
    30 H8       5.6416   3.2642   5.0319   H         1 RES1   0.0000
    31 C15      6.1802   5.9167   2.2089   C.ar      1 RES1   0.0000
    32 C16      7.6471   2.8889   4.9685   C.ar      1 RES1   0.0000
    33 H9       7.8226   3.1046   5.8769   H         1 RES1   0.0000
    34 N6      10.2170   2.2166   5.7691   N.2       1 RES1   0.0000
    35 C17     14.1984   1.6488   6.9658   C.ar      1 RES1   0.0000
    36 H10     15.0908   1.4811   7.2459   H         1 RES1   0.0000
    37 N7       3.6630   5.2886  -0.2397   N.2       1 RES1   0.0000
    38 C18      1.3458   1.7512   2.8173   C.ar      1 RES1   0.0000
    39 H11      1.3146   1.2208   3.6046   H         1 RES1   0.0000
    40 C19      8.6760   2.4811   4.1439   C.ar      1 RES1   0.0000
    41 N8      10.0527   2.3387   4.5352   N.2       1 RES1   0.0000
    42 N9      -1.7839   5.6477   5.1204   N.2       1 RES1   0.0000
    43 N10     -0.7268   5.7211   5.7501   N.2       1 RES1   0.0000
    44 C20      0.3051   2.6790   0.9079   C.ar      1 RES1   0.0000
    45 H12     -0.4521   2.7868   0.3443   H         1 RES1   0.0000
    46 C21     11.6108   2.0685   6.1337   C.ar      1 RES1   0.0000
    47 C22      8.4282   2.1900   2.8232   C.ar      1 RES1   0.0000
    48 H13      9.1441   1.9341   2.2539   H         1 RES1   0.0000
    49 C23      2.7765   5.3100   4.7438   C.ar      1 RES1   0.0000
    50 H14      3.6040   5.1350   5.1766   H         1 RES1   0.0000
    51 C24      0.2127   1.9239   2.0460   C.ar      1 RES1   0.0000
    52 H15     -0.6127   1.5271   2.3005   H         1 RES1   0.0000
    53 C25     12.6581   2.3402   5.2676   C.ar      1 RES1   0.0000
    54 H16     12.4877   2.6646   4.3914   H         1 RES1   0.0000
    55 C26      7.0967   4.8978   0.3656   C.ar      1 RES1   0.0000
    56 H17      7.0150   4.3154  -0.3809   H         1 RES1   0.0000
    57 C27     13.1583   1.4108   7.8211   C.ar      1 RES1   0.0000
    58 H18     13.3296   1.0929   8.6997   H         1 RES1   0.0000
    59 C28     13.9563   2.1314   5.7001   C.ar      1 RES1   0.0000
    60 H19     14.6835   2.3223   5.1200   H         1 RES1   0.0000
    61 C29     -2.9707   5.8355   5.9617   C.ar      1 RES1   0.0000
    62 C30     11.8548   1.6341   7.4054   C.ar      1 RES1   0.0000
    63 H20     11.1322   1.4854   8.0044   H         1 RES1   0.0000
    64 C31      8.2890   5.5578   0.5606   C.ar      1 RES1   0.0000
    65 H21      9.0080   5.4313  -0.0466   H         1 RES1   0.0000
    66 C32      7.3531   6.5888   2.4755   C.ar      1 RES1   0.0000
    67 H22      7.4189   7.1741   3.2204   H         1 RES1   0.0000
    68 C33     -5.3209   6.2538   7.3274   C.ar      1 RES1   0.0000
    69 H23     -6.1393   6.3904   7.7898   H         1 RES1   0.0000
    70 C34     -4.1569   5.6206   5.3338   C.ar      1 RES1   0.0000
    71 H24     -4.1749   5.3277   4.4297   H         1 RES1   0.0000
    72 C35     -5.3356   5.8310   6.0183   C.ar      1 RES1   0.0000
    73 H25     -6.1659   5.6815   5.5825   H         1 RES1   0.0000
    74 C36     -4.1208   6.4781   7.9716   C.ar      1 RES1   0.0000
    75 H26     -4.1111   6.7743   8.8744   H         1 RES1   0.0000
    76 C37     -2.9162   6.2682   7.2825   C.ar      1 RES1   0.0000
    77 H27     -2.0805   6.4177   7.7100   H         1 RES1   0.0000
    78 C38      8.4366   6.3947   1.6318   C.ar      1 RES1   0.0000
    79 H28      9.2642   6.8318   1.7948   H         1 RES1   0.0000
@<TRIPOS>BOND
     1     1     4    1
     2     2     8    2
     3     3    26    2
     4     4    16   ar
     5     5     1    1
     6     6     5    1
     7     7     9    1
     8     8    37    2
     9     9     1    1
    10    10     5    2
    11    11    10    1
    12    12     9    2
    13    13    12    1
    14    14     1    1
    15    15     1    1
    16    16    12    1
    17    17    18    1
    18    19     6   ar
    19    20    19    1
    20    21    17   ar
    21    22     4   ar
    22    23    22    1
    23    24     7   ar
    24    25    24    1
    25    26    15    2
    26    27    21   ar
    27    28    27    1
    28    29     7   ar
    29    30    29    1
    30    31    10    1
    31    32    29   ar
    32    33    32    1
    33    34    41    2
    34    35    36    1
    35    37     1    1
    36    38    16   ar
    37    39    38    1
    38    40    32   ar
    39    41    40    1
    40    42    43    2
    41    43    21    1
    42    44    22   ar
    43    45    44    1
    44    46    34    1
    45    47    24   ar
    46    48    47    1
    47    49     6   ar
    48    50    49    1
    49    51    38   ar
    50    52    51    1
    51    53    46   ar
    52    54    53    1
    53    55    14   ar
    54    56    55    1
    55    57    35   ar
    56    58    57    1
    57    59    35   ar
    58    60    59    1
    59    61    42    1
    60    62    46   ar
    61    63    62    1
    62    64    55   ar
    63    65    64    1
    64    66    31   ar
    65    67    66    1
    66    68    69    1
    67    70    61   ar
    68    71    70    1
    69    72    68   ar
    70    73    72    1
    71    74    68   ar
    72    75    74    1
    73    76    61   ar
    74    77    76    1
    75    78    64   ar
    76    79    78    1
    77    14    31   ar
    78    17    19   ar
    79    27    49   ar
    80    40    47   ar
    81    44    51   ar
    82    53    59   ar
    83    57    62   ar
    84    66    78   ar
    85    70    72   ar
    86    74    76   ar
@<TRIPOS>SUBSTRUCTURE
     1 RES1        1 GROUP             0 ****  ****    0  
@<TRIPOS>CRYSIN
   15.0070   14.3798   16.6543   90.0000   92.8120   90.0000    14     1
