@<TRIPOS>MOLECULE
XECNAU16
    79    86     1     0     0
SMALL
NO_CHARGES
****
Generated from the CSD

@<TRIPOS>ATOM
     1 Fe1      4.3407   4.1149   1.0693   Fe        1 RES1   0.0000
     2 S1       3.0357   7.0777  -2.4106   S.2       1 RES1   0.0000
     3 S2       6.5262   1.0714  -1.8105   S.2       1 RES1   0.0000
     4 N1       2.5874   3.1457   1.3403   N.ar      1 RES1   0.0000
     5 N2       3.9655   5.4268   2.6350   N.2       1 RES1   0.0000
     6 C1       2.7684   5.5153   3.4206   C.ar      1 RES1   0.0000
     7 C2       6.1174   2.6567   3.1704   C.ar      1 RES1   0.0000
     8 C3       3.3768   6.0500  -1.1790   C.1       1 RES1   0.0000
     9 N3       4.8154   2.7990   2.5885   N.2       1 RES1   0.0000
    10 C4       4.9932   6.0742   3.0378   C.2       1 RES1   0.0000
    11 H1       4.9574   6.6209   3.8133   H         1 RES1   0.0000
    12 C5       3.8116   2.1936   3.0966   C.2       1 RES1   0.0000
    13 H2       3.9023   1.6538   3.8720   H         1 RES1   0.0000
    14 N4       6.1092   5.1102   1.2068   N.ar      1 RES1   0.0000
    15 N5       5.0392   2.8765  -0.3056   N.2       1 RES1   0.0000
    16 C6       2.5257   2.3643   2.4407   C.ar      1 RES1   0.0000
    17 C7       0.3995   5.8063   3.5085   C.ar      1 RES1   0.0000
    18 H3      -0.4309   5.9620   3.0748   H         1 RES1   0.0000
    19 C8       1.5690   5.7411   2.7666   C.ar      1 RES1   0.0000
    20 H4       1.5481   5.8495   1.8221   H         1 RES1   0.0000
    21 C9       0.4407   5.6448   4.8801   C.ar      1 RES1   0.0000
    22 C10      1.4716   3.2730   0.6146   C.ar      1 RES1   0.0000
    23 H5       1.5084   3.7906  -0.1809   H         1 RES1   0.0000
    24 C11      7.1668   2.2767   2.3480   C.ar      1 RES1   0.0000
    25 H6       7.0047   2.0647   1.4369   H         1 RES1   0.0000
    26 C12      5.6422   2.1253  -0.9362   C.1       1 RES1   0.0000
    27 C13      1.6343   5.4314   5.5149   C.ar      1 RES1   0.0000
    28 H7       1.6578   5.3377   6.4594   H         1 RES1   0.0000
    29 C14      6.3562   2.9601   4.4983   C.ar      1 RES1   0.0000
    30 H8       5.6415   3.2268   5.0627   H         1 RES1   0.0000
    31 C15      6.2180   5.9418   2.2642   C.ar      1 RES1   0.0000
    32 C16      7.6468   2.8736   4.9991   C.ar      1 RES1   0.0000
    33 H9       7.8181   3.0855   5.9084   H         1 RES1   0.0000
    34 N6      10.2210   2.2175   5.7887   N.2       1 RES1   0.0000
    35 C17     14.2137   1.6754   7.0020   C.ar      1 RES1   0.0000
    36 H10     15.1040   1.5125   7.2917   H         1 RES1   0.0000
    37 N7       3.6142   5.3435  -0.2963   N.2       1 RES1   0.0000
    38 C18      1.3573   1.7720   2.8688   C.ar      1 RES1   0.0000
    39 H11      1.3432   1.2501   3.6609   H         1 RES1   0.0000
    40 C19      8.6785   2.4814   4.1768   C.ar      1 RES1   0.0000
    41 N8      10.0753   2.3524   4.5730   N.2       1 RES1   0.0000
    42 N9      -1.6872   5.6774   5.1983   N.2       1 RES1   0.0000
    43 N10     -0.7235   5.7658   5.8548   N.2       1 RES1   0.0000
    44 C20      0.2786   2.6948   0.9596   C.ar      1 RES1   0.0000
    45 H12     -0.4870   2.8044   0.4070   H         1 RES1   0.0000
    46 C21     11.6268   2.0705   6.1580   C.ar      1 RES1   0.0000
    47 C22      8.4436   2.2060   2.8554   C.ar      1 RES1   0.0000
    48 H13      9.1644   1.9638   2.2877   H         1 RES1   0.0000
    49 C23      2.7935   5.3507   4.7914   C.ar      1 RES1   0.0000
    50 H14      3.6173   5.1834   5.2335   H         1 RES1   0.0000
    51 C24      0.2041   1.9508   2.1185   C.ar      1 RES1   0.0000
    52 H15     -0.6213   1.5702   2.3982   H         1 RES1   0.0000
    53 C25     12.6809   2.3488   5.2955   C.ar      1 RES1   0.0000
    54 H16     12.5157   2.6688   4.4162   H         1 RES1   0.0000
    55 C26      7.1767   4.9816   0.4070   C.ar      1 RES1   0.0000
    56 H17      7.1077   4.4120  -0.3500   H         1 RES1   0.0000
    57 C27     13.1676   1.4332   7.8427   C.ar      1 RES1   0.0000
    58 H18     13.3342   1.1232   8.7253   H         1 RES1   0.0000
    59 C28     13.9817   2.1512   5.7426   C.ar      1 RES1   0.0000
    60 H19     14.7134   2.3488   5.1699   H         1 RES1   0.0000
    61 C29     -2.9107   5.8654   6.0943   C.ar      1 RES1   0.0000
    62 C30     11.8609   1.6365   7.4224   C.ar      1 RES1   0.0000
    63 H20     11.1358   1.4736   8.0152   H         1 RES1   0.0000
    64 C31      8.3548   5.6246   0.6280   C.ar      1 RES1   0.0000
    65 H21      9.0805   5.5165   0.0234   H         1 RES1   0.0000
    66 C32      7.3874   6.6080   2.5724   C.ar      1 RES1   0.0000
    67 H22      7.4425   7.1688   3.3361   H         1 RES1   0.0000
    68 C33     -5.2493   6.2879   7.4642   C.ar      1 RES1   0.0000
    69 H23     -6.0743   6.4248   7.9164   H         1 RES1   0.0000
    70 C34     -4.0813   5.6275   5.4814   C.ar      1 RES1   0.0000
    71 H24     -4.0980   5.3189   4.5820   H         1 RES1   0.0000
    72 C35     -5.2459   5.8322   6.1613   C.ar      1 RES1   0.0000
    73 H25     -6.0732   5.6563   5.7276   H         1 RES1   0.0000
    74 C36     -4.0637   6.5431   8.1073   C.ar      1 RES1   0.0000
    75 H26     -4.0589   6.8632   9.0033   H         1 RES1   0.0000
    76 C37     -2.8488   6.3210   7.4140   C.ar      1 RES1   0.0000
    77 H27     -2.0119   6.4782   7.8360   H         1 RES1   0.0000
    78 C38      8.4832   6.4335   1.7317   C.ar      1 RES1   0.0000
    79 H28      9.3093   6.8660   1.9192   H         1 RES1   0.0000
@<TRIPOS>BOND
     1     1     4    1
     2     2     8    2
     3     3    26    2
     4     4    16   ar
     5     5     1    1
     6     6     5    1
     7     7     9    1
     8     8    37    2
     9     9     1    1
    10    10     5    2
    11    11    10    1
    12    12     9    2
    13    13    12    1
    14    14     1    1
    15    15     1    1
    16    16    12    1
    17    17    18    1
    18    19     6   ar
    19    20    19    1
    20    21    17   ar
    21    22     4   ar
    22    23    22    1
    23    24     7   ar
    24    25    24    1
    25    26    15    2
    26    27    21   ar
    27    28    27    1
    28    29     7   ar
    29    30    29    1
    30    31    10    1
    31    32    29   ar
    32    33    32    1
    33    34    41    2
    34    35    36    1
    35    37     1    1
    36    38    16   ar
    37    39    38    1
    38    40    32   ar
    39    41    40    1
    40    42    43    2
    41    43    21    1
    42    44    22   ar
    43    45    44    1
    44    46    34    1
    45    47    24   ar
    46    48    47    1
    47    49     6   ar
    48    50    49    1
    49    51    38   ar
    50    52    51    1
    51    53    46   ar
    52    54    53    1
    53    55    14   ar
    54    56    55    1
    55    57    35   ar
    56    58    57    1
    57    59    35   ar
    58    60    59    1
    59    61    42    1
    60    62    46   ar
    61    63    62    1
    62    64    55   ar
    63    65    64    1
    64    66    31   ar
    65    67    66    1
    66    68    69    1
    67    70    61   ar
    68    71    70    1
    69    72    68   ar
    70    73    72    1
    71    74    68   ar
    72    75    74    1
    73    76    61   ar
    74    77    76    1
    75    78    64   ar
    76    79    78    1
    77    14    31   ar
    78    17    19   ar
    79    27    49   ar
    80    40    47   ar
    81    44    51   ar
    82    53    59   ar
    83    57    62   ar
    84    66    78   ar
    85    70    72   ar
    86    74    76   ar
@<TRIPOS>SUBSTRUCTURE
     1 RES1        1 GROUP             0 ****  ****    0  
@<TRIPOS>CRYSIN
   15.0534   14.4184   16.7682   90.0000   92.8650   90.0000    14     1
