@<TRIPOS>MOLECULE
XECNAU36
    79    86     1     0     0
SMALL
NO_CHARGES
****
Generated from the CSD

@<TRIPOS>ATOM
     1 Fe1      4.3610   4.1770   0.9457   Fe        1 RES1   0.0000
     2 S1       2.9857   7.2197  -2.4954   S.2       1 RES1   0.0000
     3 S2       6.6992   1.0567  -1.8087   S.2       1 RES1   0.0000
     4 N1       2.5248   3.1381   1.3310   N.ar      1 RES1   0.0000
     5 N2       3.9911   5.5195   2.7286   N.2       1 RES1   0.0000
     6 C1       2.7963   5.5972   3.5144   C.ar      1 RES1   0.0000
     7 C2       6.0880   2.6279   3.2510   C.ar      1 RES1   0.0000
     8 C3       3.2971   6.1870  -1.2831   C.1       1 RES1   0.0000
     9 N3       4.8165   2.7653   2.6227   N.2       1 RES1   0.0000
    10 C4       5.0439   6.1013   3.1524   C.2       1 RES1   0.0000
    11 H1       5.0234   6.5923   3.9427   H         1 RES1   0.0000
    12 C5       3.7803   2.2095   3.1167   C.2       1 RES1   0.0000
    13 H2       3.8439   1.6967   3.8900   H         1 RES1   0.0000
    14 N4       6.2070   5.2413   1.2746   N.ar      1 RES1   0.0000
    15 N5       5.2040   2.9446  -0.4588   N.2       1 RES1   0.0000
    16 C6       2.4909   2.3926   2.4523   C.ar      1 RES1   0.0000
    17 C7       0.4320   5.8587   3.5943   C.ar      1 RES1   0.0000
    18 H3      -0.3816   6.0010   3.1660   H         1 RES1   0.0000
    19 C8       1.6031   5.8049   2.8601   C.ar      1 RES1   0.0000
    20 H4       1.5838   5.9080   1.9356   H         1 RES1   0.0000
    21 C9       0.4737   5.7032   4.9538   C.ar      1 RES1   0.0000
    22 C10      1.3855   3.2700   0.6492   C.ar      1 RES1   0.0000
    23 H5       1.3955   3.7581  -0.1428   H         1 RES1   0.0000
    24 C11      7.1597   2.2851   2.4523   C.ar      1 RES1   0.0000
    25 H6       7.0228   2.1020   1.5499   H         1 RES1   0.0000
    26 C12      5.8265   2.1543  -1.0248   C.1       1 RES1   0.0000
    27 C13      1.6583   5.4911   5.5996   C.ar      1 RES1   0.0000
    28 H7       1.6761   5.3894   6.5241   H         1 RES1   0.0000
    29 C14      6.3018   2.9141   4.5867   C.ar      1 RES1   0.0000
    30 H8       5.5926   3.1610   5.1340   H         1 RES1   0.0000
    31 C15      6.2803   5.9894   2.3843   C.ar      1 RES1   0.0000
    32 C16      7.5960   2.8298   5.1034   C.ar      1 RES1   0.0000
    33 H9       7.7529   3.0158   6.0007   H         1 RES1   0.0000
    34 N6      10.1506   2.2357   5.8324   N.2       1 RES1   0.0000
    35 C17     14.1763   1.7069   7.1036   C.ar      1 RES1   0.0000
    36 H10     15.0366   1.5529   7.4197   H         1 RES1   0.0000
    37 N7       3.5050   5.4592  -0.4096   N.2       1 RES1   0.0000
    38 C18      1.3346   1.8217   2.9332   C.ar      1 RES1   0.0000
    39 H11      1.3429   1.3292   3.7234   H         1 RES1   0.0000
    40 C19      8.6338   2.4725   4.2893   C.ar      1 RES1   0.0000
    41 N8      10.1247   2.3548   4.6870   N.2       1 RES1   0.0000
    42 N9      -1.5461   5.7483   5.3243   N.2       1 RES1   0.0000
    43 N10     -0.7378   5.8398   6.0516   N.2       1 RES1   0.0000
    44 C20      0.1934   2.7136   1.0638   C.ar      1 RES1   0.0000
    45 H12     -0.5815   2.8269   0.5625   H         1 RES1   0.0000
    46 C21     11.6413   2.0788   6.2063   C.ar      1 RES1   0.0000
    47 C22      8.4202   2.2139   2.9774   C.ar      1 RES1   0.0000
    48 H13      9.1355   1.9844   2.4302   H         1 RES1   0.0000
    49 C23      2.8136   5.4301   4.8790   C.ar      1 RES1   0.0000
    50 H14      3.6192   5.2747   5.3141   H         1 RES1   0.0000
    51 C24      0.1686   1.9931   2.2228   C.ar      1 RES1   0.0000
    52 H15     -0.6278   1.6241   2.5304   H         1 RES1   0.0000
    53 C25     12.6972   2.3432   5.3617   C.ar      1 RES1   0.0000
    54 H16     12.5511   2.6366   4.4916   H         1 RES1   0.0000
    55 C26      7.3008   5.1512   0.5217   C.ar      1 RES1   0.0000
    56 H17      7.2665   4.6486  -0.2617   H         1 RES1   0.0000
    57 C27     13.1259   1.4774   7.9006   C.ar      1 RES1   0.0000
    58 H18     13.2688   1.1883   8.7741   H         1 RES1   0.0000
    59 C28     13.9973   2.1558   5.8528   C.ar      1 RES1   0.0000
    60 H19     14.7318   2.3417   5.3141   H         1 RES1   0.0000
    61 C29     -2.7914   5.9458   6.3473   C.ar      1 RES1   0.0000
    62 C30     11.8549   1.6604   7.4605   C.ar      1 RES1   0.0000
    63 H20     11.1356   1.4977   8.0264   H         1 RES1   0.0000
    64 C31      8.4820   5.7730   0.8582   C.ar      1 RES1   0.0000
    65 H21      9.2261   5.6916   0.3093   H         1 RES1   0.0000
    66 C32      7.4381   6.6199   2.7938   C.ar      1 RES1   0.0000
    67 H22      7.4643   7.1065   3.5858   H         1 RES1   0.0000
    68 C33     -5.1510   6.3439   7.6576   C.ar      1 RES1   0.0000
    69 H23     -5.9658   6.4717   8.0858   H         1 RES1   0.0000
    70 C34     -3.9509   5.6684   5.7423   C.ar      1 RES1   0.0000
    71 H24     -3.9518   5.3444   4.8705   H         1 RES1   0.0000
    72 C35     -5.1233   5.8572   6.3864   C.ar      1 RES1   0.0000
    73 H25     -5.9216   5.6509   5.9565   H         1 RES1   0.0000
    74 C36     -3.9803   6.6489   8.3085   C.ar      1 RES1   0.0000
    75 H26     -3.9897   6.9845   9.1752   H         1 RES1   0.0000
    76 C37     -2.7666   6.4397   7.6270   C.ar      1 RES1   0.0000
    77 H27     -1.9553   6.6344   8.0400   H         1 RES1   0.0000
    78 C38      8.5536   6.5066   1.9951   C.ar      1 RES1   0.0000
    79 H28      9.3483   6.9293   2.2347   H         1 RES1   0.0000
@<TRIPOS>BOND
     1     1     4    1
     2     2     8    2
     3     3    26    2
     4     4    16   ar
     5     5     1    1
     6     6     5    1
     7     7     9    1
     8     8    37    2
     9     9     1    1
    10    10     5    2
    11    11    10    1
    12    12     9    2
    13    13    12    1
    14    14     1    1
    15    15     1    1
    16    16    12    1
    17    17    18    1
    18    19     6   ar
    19    20    19    1
    20    21    17   ar
    21    22     4   ar
    22    23    22    1
    23    24     7   ar
    24    25    24    1
    25    26    15    2
    26    27    21   ar
    27    28    27    1
    28    29     7   ar
    29    30    29    1
    30    31    10    1
    31    32    29   ar
    32    33    32    1
    33    34    41    2
    34    35    36    1
    35    37     1    1
    36    38    16   ar
    37    39    38    1
    38    40    32   ar
    39    41    40    1
    40    42    43    2
    41    43    21    1
    42    44    22   ar
    43    45    44    1
    44    46    34    1
    45    47    24   ar
    46    48    47    1
    47    49     6   ar
    48    50    49    1
    49    51    38   ar
    50    52    51    1
    51    53    46   ar
    52    54    53    1
    53    55    14   ar
    54    56    55    1
    55    57    35   ar
    56    58    57    1
    57    59    35   ar
    58    60    59    1
    59    61    42    1
    60    62    46   ar
    61    63    62    1
    62    64    55   ar
    63    65    64    1
    64    66    31   ar
    65    67    66    1
    66    68    69    1
    67    70    61   ar
    68    71    70    1
    69    72    68   ar
    70    73    72    1
    71    74    68   ar
    72    75    74    1
    73    76    61   ar
    74    77    76    1
    75    78    64   ar
    76    79    78    1
    77    14    31   ar
    78    17    19   ar
    79    27    49   ar
    80    40    47   ar
    81    44    51   ar
    82    53    59   ar
    83    57    62   ar
    84    66    78   ar
    85    70    72   ar
    86    74    76   ar
@<TRIPOS>SUBSTRUCTURE
     1 RES1        1 GROUP             0 ****  ****    0  
@<TRIPOS>CRYSIN
   15.1192   14.5268   17.0178   90.0000   93.0170   90.0000    14     1
