@<TRIPOS>MOLECULE
XECNAU28
    79    86     1     0     0
SMALL
NO_CHARGES
****
Generated from the CSD

@<TRIPOS>ATOM
     1 Fe1      4.3462   4.1620   0.9542   Fe        1 RES1   0.0000
     2 S1       2.9938   7.2040  -2.4894   S.2       1 RES1   0.0000
     3 S2       6.6912   1.0539  -1.8046   S.2       1 RES1   0.0000
     4 N1       2.5160   3.1250   1.3397   N.ar      1 RES1   0.0000
     5 N2       3.9821   5.4965   2.7199   N.2       1 RES1   0.0000
     6 C1       2.7912   5.5751   3.5121   C.ar      1 RES1   0.0000
     7 C2       6.0791   2.6210   3.2457   C.ar      1 RES1   0.0000
     8 C3       3.2926   6.1689  -1.2793   C.1       1 RES1   0.0000
     9 N3       4.8042   2.7592   2.6190   N.2       1 RES1   0.0000
    10 C4       5.0350   6.0863   3.1372   C.2       1 RES1   0.0000
    11 H1       5.0118   6.5859   3.9329   H         1 RES1   0.0000
    12 C5       3.7763   2.2054   3.1168   C.2       1 RES1   0.0000
    13 H2       3.8459   1.6870   3.8990   H         1 RES1   0.0000
    14 N4       6.1895   5.2233   1.2691   N.ar      1 RES1   0.0000
    15 N5       5.1785   2.9280  -0.4496   N.2       1 RES1   0.0000
    16 C6       2.4837   2.3850   2.4619   C.ar      1 RES1   0.0000
    17 C7       0.4262   5.8373   3.5834   C.ar      1 RES1   0.0000
    18 H3      -0.3946   5.9763   3.1456   H         1 RES1   0.0000
    19 C8       1.5932   5.7866   2.8691   C.ar      1 RES1   0.0000
    20 H4       1.5770   5.8981   1.9359   H         1 RES1   0.0000
    21 C9       0.4726   5.6823   4.9373   C.ar      1 RES1   0.0000
    22 C10      1.3786   3.2625   0.6566   C.ar      1 RES1   0.0000
    23 H5       1.3912   3.7650  -0.1391   H         1 RES1   0.0000
    24 C11      7.1587   2.2865   2.4415   C.ar      1 RES1   0.0000
    25 H6       7.0206   2.1070   1.5287   H         1 RES1   0.0000
    26 C12      5.8073   2.1461  -1.0180   C.1       1 RES1   0.0000
    27 C13      1.6558   5.4694   5.6024   C.ar      1 RES1   0.0000
    28 H7       1.6689   5.3666   6.5373   H         1 RES1   0.0000
    29 C14      6.2866   2.9121   4.5810   C.ar      1 RES1   0.0000
    30 H8       5.5679   3.1612   5.1341   H         1 RES1   0.0000
    31 C15      6.2694   5.9792   2.3770   C.ar      1 RES1   0.0000
    32 C16      7.5869   2.8267   5.0917   C.ar      1 RES1   0.0000
    33 H9       7.7464   3.0120   5.9995   H         1 RES1   0.0000
    34 N6      10.1633   2.2228   5.8349   N.2       1 RES1   0.0000
    35 C17     14.1693   1.6986   7.0989   C.ar      1 RES1   0.0000
    36 H10     15.0420   1.5466   7.4162   H         1 RES1   0.0000
    37 N7       3.4991   5.4376  -0.4021   N.2       1 RES1   0.0000
    38 C18      1.3240   1.8130   2.9302   C.ar      1 RES1   0.0000
    39 H11      1.3264   1.3105   3.7259   H         1 RES1   0.0000
    40 C19      8.6358   2.4733   4.2688   C.ar      1 RES1   0.0000
    41 N8      10.0978   2.3517   4.6676   N.2       1 RES1   0.0000
    42 N9      -1.5662   5.7229   5.3191   N.2       1 RES1   0.0000
    43 N10     -0.7178   5.8184   6.0300   N.2       1 RES1   0.0000
    44 C20      0.1875   2.7021   1.0621   C.ar      1 RES1   0.0000
    45 H12     -0.5915   2.8122   0.5480   H         1 RES1   0.0000
    46 C21     11.6267   2.0708   6.2064   C.ar      1 RES1   0.0000
    47 C22      8.4179   2.2141   2.9590   C.ar      1 RES1   0.0000
    48 H13      9.1397   1.9839   2.4025   H         1 RES1   0.0000
    49 C23      2.8067   5.4072   4.8779   C.ar      1 RES1   0.0000
    50 H14      3.6230   5.2493   5.3157   H         1 RES1   0.0000
    51 C24      0.1553   1.9868   2.2193   C.ar      1 RES1   0.0000
    52 H15     -0.6499   1.6161   2.5280   H         1 RES1   0.0000
    53 C25     12.6835   2.3445   5.3496   C.ar      1 RES1   0.0000
    54 H16     12.5328   2.6486   4.4724   H         1 RES1   0.0000
    55 C26      7.2821   5.1335   0.5158   C.ar      1 RES1   0.0000
    56 H17      7.2476   4.6238  -0.2732   H         1 RES1   0.0000
    57 C27     13.1202   1.4640   7.8980   C.ar      1 RES1   0.0000
    58 H18     13.2661   1.1657   8.7786   H         1 RES1   0.0000
    59 C28     13.9822   2.1533   5.8332   C.ar      1 RES1   0.0000
    60 H19     14.7218   2.3387   5.2835   H         1 RES1   0.0000
    61 C29     -2.8256   5.9212   6.3201   C.ar      1 RES1   0.0000
    62 C30     11.8507   1.6523   7.4586   C.ar      1 RES1   0.0000
    63 H20     11.1264   1.4872   8.0338   H         1 RES1   0.0000
    64 C31      8.4620   5.7605   0.8517   C.ar      1 RES1   0.0000
    65 H21      9.2099   5.6838   0.2884   H         1 RES1   0.0000
    66 C32      7.4279   6.5989   2.7724   C.ar      1 RES1   0.0000
    67 H22      7.4513   7.0956   3.5715   H         1 RES1   0.0000
    68 C33     -5.1687   6.3310   7.6401   C.ar      1 RES1   0.0000
    69 H23     -5.9927   6.4686   8.0728   H         1 RES1   0.0000
    70 C34     -3.9841   5.6504   5.7008   C.ar      1 RES1   0.0000
    71 H24     -3.9862   5.3333   4.8152   H         1 RES1   0.0000
    72 C35     -5.1467   5.8387   6.3625   C.ar      1 RES1   0.0000
    73 H25     -5.9561   5.6273   5.9367   H         1 RES1   0.0000
    74 C36     -3.9984   6.6250   8.2917   C.ar      1 RES1   0.0000
    75 H26     -4.0110   6.9595   9.1705   H         1 RES1   0.0000
    76 C37     -2.7825   6.4179   7.6215   C.ar      1 RES1   0.0000
    77 H27     -1.9620   6.6076   8.0389   H         1 RES1   0.0000
    78 C38      8.5424   6.4874   1.9936   C.ar      1 RES1   0.0000
    79 H28      9.3478   6.9059   2.2413   H         1 RES1   0.0000
@<TRIPOS>BOND
     1     1     4    1
     2     2     8    2
     3     3    26    2
     4     4    16   ar
     5     5     1    1
     6     6     5    1
     7     7     9    1
     8     8    37    2
     9     9     1    1
    10    10     5    2
    11    11    10    1
    12    12     9    2
    13    13    12    1
    14    14     1    1
    15    15     1    1
    16    16    12    1
    17    17    18    1
    18    19     6   ar
    19    20    19    1
    20    21    17   ar
    21    22     4   ar
    22    23    22    1
    23    24     7   ar
    24    25    24    1
    25    26    15    2
    26    27    21   ar
    27    28    27    1
    28    29     7   ar
    29    30    29    1
    30    31    10    1
    31    32    29   ar
    32    33    32    1
    33    34    41    2
    34    35    36    1
    35    37     1    1
    36    38    16   ar
    37    39    38    1
    38    40    32   ar
    39    41    40    1
    40    42    43    2
    41    43    21    1
    42    44    22   ar
    43    45    44    1
    44    46    34    1
    45    47    24   ar
    46    48    47    1
    47    49     6   ar
    48    50    49    1
    49    51    38   ar
    50    52    51    1
    51    53    46   ar
    52    54    53    1
    53    55    14   ar
    54    56    55    1
    55    57    35   ar
    56    58    57    1
    57    59    35   ar
    58    60    59    1
    59    61    42    1
    60    62    46   ar
    61    63    62    1
    62    64    55   ar
    63    65    64    1
    64    66    31   ar
    65    67    66    1
    66    68    69    1
    67    70    61   ar
    68    71    70    1
    69    72    68   ar
    70    73    72    1
    71    74    68   ar
    72    75    74    1
    73    76    61   ar
    74    77    76    1
    75    78    64   ar
    76    79    78    1
    77    14    31   ar
    78    17    19   ar
    79    27    49   ar
    80    40    47   ar
    81    44    51   ar
    82    53    59   ar
    83    57    62   ar
    84    66    78   ar
    85    70    72   ar
    86    74    76   ar
@<TRIPOS>SUBSTRUCTURE
     1 RES1        1 GROUP             0 ****  ****    0  
@<TRIPOS>CRYSIN
   15.1063   14.4809   16.9914   90.0000   93.0850   90.0000    14     1
