@<TRIPOS>MOLECULE
XECNAU18
    79    86     1     0     0
SMALL
NO_CHARGES
****
Generated from the CSD

@<TRIPOS>ATOM
     1 Fe1      4.3385   4.1356   0.9962   Fe        1 RES1   0.0000
     2 S1       3.0134   7.1562  -2.4621   S.2       1 RES1   0.0000
     3 S2       6.6331   1.0589  -1.8081   S.2       1 RES1   0.0000
     4 N1       2.5413   3.1303   1.3365   N.ar      1 RES1   0.0000
     5 N2       3.9744   5.4639   2.6847   N.2       1 RES1   0.0000
     6 C1       2.7801   5.5426   3.4748   C.ar      1 RES1   0.0000
     7 C2       6.0955   2.6306   3.2083   C.ar      1 RES1   0.0000
     8 C3       3.3192   6.1198  -1.2482   C.1       1 RES1   0.0000
     9 N3       4.8062   2.7719   2.6054   N.2       1 RES1   0.0000
    10 C4       5.0171   6.0737   3.0953   C.2       1 RES1   0.0000
    11 H1       4.9907   6.5903   3.8797   H         1 RES1   0.0000
    12 C5       3.7869   2.1948   3.1130   C.2       1 RES1   0.0000
    13 H2       3.8650   1.6725   3.8898   H         1 RES1   0.0000
    14 N4       6.1532   5.1732   1.2403   N.ar      1 RES1   0.0000
    15 N5       5.1200   2.9005  -0.3930   N.2       1 RES1   0.0000
    16 C6       2.4976   2.3709   2.4526   C.ar      1 RES1   0.0000
    17 C7       0.4095   5.8168   3.5524   C.ar      1 RES1   0.0000
    18 H3      -0.4122   5.9611   3.1189   H         1 RES1   0.0000
    19 C8       1.5816   5.7576   2.8338   C.ar      1 RES1   0.0000
    20 H4       1.5647   5.8659   1.8993   H         1 RES1   0.0000
    21 C9       0.4700   5.6595   4.9170   C.ar      1 RES1   0.0000
    22 C10      1.4109   3.2627   0.6427   C.ar      1 RES1   0.0000
    23 H5       1.4287   3.7677  -0.1501   H         1 RES1   0.0000
    24 C11      7.1624   2.2800   2.3986   C.ar      1 RES1   0.0000
    25 H6       7.0159   2.0895   1.4894   H         1 RES1   0.0000
    26 C12      5.7444   2.1371  -0.9918   C.1       1 RES1   0.0000
    27 C13      1.6528   5.4416   5.5665   C.ar      1 RES1   0.0000
    28 H7       1.6729   5.3406   6.4993   H         1 RES1   0.0000
    29 C14      6.3117   2.9250   4.5392   C.ar      1 RES1   0.0000
    30 H8       5.5976   3.1761   5.0958   H         1 RES1   0.0000
    31 C15      6.2445   5.9539   2.3295   C.ar      1 RES1   0.0000
    32 C16      7.6106   2.8442   5.0469   C.ar      1 RES1   0.0000
    33 H9       7.7708   3.0419   5.9527   H         1 RES1   0.0000
    34 N6      10.1970   2.2136   5.8195   N.2       1 RES1   0.0000
    35 C17     14.1858   1.6883   7.0559   C.ar      1 RES1   0.0000
    36 H10     15.0625   1.5368   7.3612   H         1 RES1   0.0000
    37 N7       3.5319   5.3926  -0.3643   N.2       1 RES1   0.0000
    38 C18      1.3364   1.7908   2.9081   C.ar      1 RES1   0.0000
    39 H11      1.3367   1.2843   3.7008   H         1 RES1   0.0000
    40 C19      8.6595   2.4777   4.2339   C.ar      1 RES1   0.0000
    41 N8      10.0764   2.3507   4.6202   N.2       1 RES1   0.0000
    42 N9      -1.6121   5.6985   5.2746   N.2       1 RES1   0.0000
    43 N10     -0.7152   5.7865   5.9696   N.2       1 RES1   0.0000
    44 C20      0.2106   2.6898   1.0374   C.ar      1 RES1   0.0000
    45 H12     -0.5643   2.8009   0.5178   H         1 RES1   0.0000
    46 C21     11.6206   2.0693   6.1939   C.ar      1 RES1   0.0000
    47 C22      8.4306   2.2107   2.9148   C.ar      1 RES1   0.0000
    48 H13      9.1495   1.9755   2.3548   H         1 RES1   0.0000
    49 C23      2.8026   5.3738   4.8428   C.ar      1 RES1   0.0000
    50 H14      3.6181   5.2093   5.2797   H         1 RES1   0.0000
    51 C24      0.1724   1.9625   2.1878   C.ar      1 RES1   0.0000
    52 H15     -0.6352   1.5844   2.4864   H         1 RES1   0.0000
    53 C25     12.6782   2.3478   5.3320   C.ar      1 RES1   0.0000
    54 H16     12.5161   2.6624   4.4616   H         1 RES1   0.0000
    55 C26      7.2300   5.0664   0.4639   C.ar      1 RES1   0.0000
    56 H17      7.1776   4.5397  -0.3137   H         1 RES1   0.0000
    57 C27     13.1349   1.4430   7.8757   C.ar      1 RES1   0.0000
    58 H18     13.2892   1.1357   8.7511   H         1 RES1   0.0000
    59 C28     13.9798   2.1530   5.7874   C.ar      1 RES1   0.0000
    60 H19     14.7107   2.3406   5.2274   H         1 RES1   0.0000
    61 C29     -2.8634   5.8904   6.2344   C.ar      1 RES1   0.0000
    62 C30     11.8545   1.6364   7.4472   C.ar      1 RES1   0.0000
    63 H20     11.1331   1.4661   8.0258   H         1 RES1   0.0000
    64 C31      8.4121   5.6999   0.7557   C.ar      1 RES1   0.0000
    65 H21      9.1498   5.6090   0.1805   H         1 RES1   0.0000
    66 C32      7.4097   6.5903   2.6837   C.ar      1 RES1   0.0000
    67 H22      7.4497   7.1083   3.4681   H         1 RES1   0.0000
    68 C33     -5.2028   6.3103   7.5788   C.ar      1 RES1   0.0000
    69 H23     -6.0225   6.4431   8.0208   H         1 RES1   0.0000
    70 C34     -4.0299   5.6263   5.6204   C.ar      1 RES1   0.0000
    71 H24     -4.0406   5.3031   4.7382   H         1 RES1   0.0000
    72 C35     -5.1845   5.8312   6.2918   C.ar      1 RES1   0.0000
    73 H25     -6.0005   5.6393   5.8650   H         1 RES1   0.0000
    74 C36     -4.0269   6.5932   8.2164   C.ar      1 RES1   0.0000
    75 H26     -4.0310   6.9308   9.0936   H         1 RES1   0.0000
    76 C37     -2.8104   6.3738   7.5434   C.ar      1 RES1   0.0000
    77 H27     -1.9865   6.5470   7.9634   H         1 RES1   0.0000
    78 C38      8.5155   6.4604   1.8808   C.ar      1 RES1   0.0000
    79 H28      9.3243   6.8861   2.1018   H         1 RES1   0.0000
@<TRIPOS>BOND
     1     1     4    1
     2     2     8    2
     3     3    26    2
     4     4    16   ar
     5     5     1    1
     6     6     5    1
     7     7     9    1
     8     8    37    2
     9     9     1    1
    10    10     5    2
    11    11    10    1
    12    12     9    2
    13    13    12    1
    14    14     1    1
    15    15     1    1
    16    16    12    1
    17    17    18    1
    18    19     6   ar
    19    20    19    1
    20    21    17   ar
    21    22     4   ar
    22    23    22    1
    23    24     7   ar
    24    25    24    1
    25    26    15    2
    26    27    21   ar
    27    28    27    1
    28    29     7   ar
    29    30    29    1
    30    31    10    1
    31    32    29   ar
    32    33    32    1
    33    34    41    2
    34    35    36    1
    35    37     1    1
    36    38    16   ar
    37    39    38    1
    38    40    32   ar
    39    41    40    1
    40    42    43    2
    41    43    21    1
    42    44    22   ar
    43    45    44    1
    44    46    34    1
    45    47    24   ar
    46    48    47    1
    47    49     6   ar
    48    50    49    1
    49    51    38   ar
    50    52    51    1
    51    53    46   ar
    52    54    53    1
    53    55    14   ar
    54    56    55    1
    55    57    35   ar
    56    58    57    1
    57    59    35   ar
    58    60    59    1
    59    61    42    1
    60    62    46   ar
    61    63    62    1
    62    64    55   ar
    63    65    64    1
    64    66    31   ar
    65    67    66    1
    66    68    69    1
    67    70    61   ar
    68    71    70    1
    69    72    68   ar
    70    73    72    1
    71    74    68   ar
    72    75    74    1
    73    76    61   ar
    74    77    76    1
    75    78    64   ar
    76    79    78    1
    77    14    31   ar
    78    17    19   ar
    79    27    49   ar
    80    40    47   ar
    81    44    51   ar
    82    53    59   ar
    83    57    62   ar
    84    66    78   ar
    85    70    72   ar
    86    74    76   ar
@<TRIPOS>SUBSTRUCTURE
     1 RES1        1 GROUP             0 ****  ****    0  
@<TRIPOS>CRYSIN
   15.0821   14.4302   16.8916   90.0000   93.0260   90.0000    14     1
