@<TRIPOS>MOLECULE
XECNAU12
    79    86     1     0     0
SMALL
NO_CHARGES
****
Generated from the CSD

@<TRIPOS>ATOM
     1 Fe1      4.3229   4.0926   1.1282   Fe        1 RES1   0.0000
     2 S1       3.0462   7.0127  -2.3747   S.2       1 RES1   0.0000
     3 S2       6.4245   1.0725  -1.8008   S.2       1 RES1   0.0000
     4 N1       2.6007   3.1582   1.3318   N.ar      1 RES1   0.0000
     5 N2       3.9475   5.3870   2.6003   N.2       1 RES1   0.0000
     6 C1       2.7425   5.4780   3.3845   C.ar      1 RES1   0.0000
     7 C2       6.1141   2.6680   3.1505   C.ar      1 RES1   0.0000
     8 C3       3.4030   5.9964  -1.1304   C.1       1 RES1   0.0000
     9 N3       4.8015   2.8196   2.5746   N.2       1 RES1   0.0000
    10 C4       4.9706   6.0691   2.9847   C.2       1 RES1   0.0000
    11 H1       4.9306   6.6426   3.7408   H         1 RES1   0.0000
    12 C5       3.8039   2.1849   3.0910   C.2       1 RES1   0.0000
    13 H2       3.9010   1.6347   3.8590   H         1 RES1   0.0000
    14 N4       6.0589   5.0529   1.1858   N.ar      1 RES1   0.0000
    15 N5       4.9476   2.8520  -0.2251   N.2       1 RES1   0.0000
    16 C6       2.5213   2.3622   2.4269   C.ar      1 RES1   0.0000
    17 C7       0.3773   5.7829   3.4728   C.ar      1 RES1   0.0000
    18 H3      -0.4515   5.9461   3.0399   H         1 RES1   0.0000
    19 C8       1.5438   5.7092   2.7426   C.ar      1 RES1   0.0000
    20 H4       1.5230   5.8180   1.7996   H         1 RES1   0.0000
    21 C9       0.4294   5.6170   4.8462   C.ar      1 RES1   0.0000
    22 C10      1.5004   3.2839   0.5855   C.ar      1 RES1   0.0000
    23 H5       1.5441   3.8120  -0.2031   H         1 RES1   0.0000
    24 C11      7.1469   2.2708   2.3191   C.ar      1 RES1   0.0000
    25 H6       6.9763   2.0564   1.4101   H         1 RES1   0.0000
    26 C12      5.5486   2.1111  -0.8902   C.1       1 RES1   0.0000
    27 C13      1.6286   5.4050   5.4835   C.ar      1 RES1   0.0000
    28 H7       1.6574   5.3230   6.4295   H         1 RES1   0.0000
    29 C14      6.3542   2.9830   4.4728   C.ar      1 RES1   0.0000
    30 H8       5.6420   3.2623   5.0360   H         1 RES1   0.0000
    31 C15      6.1838   5.9203   2.2105   C.ar      1 RES1   0.0000
    32 C16      7.6475   2.8877   4.9729   C.ar      1 RES1   0.0000
    33 H9       7.8210   3.0997   5.8817   H         1 RES1   0.0000
    34 N6      10.2224   2.2188   5.7749   N.2       1 RES1   0.0000
    35 C17     14.2027   1.6478   6.9702   C.ar      1 RES1   0.0000
    36 H10     15.0935   1.4750   7.2519   H         1 RES1   0.0000
    37 N7       3.6593   5.2948  -0.2396   N.2       1 RES1   0.0000
    38 C18      1.3516   1.7504   2.8227   C.ar      1 RES1   0.0000
    39 H11      1.3266   1.2189   3.6093   H         1 RES1   0.0000
    40 C19      8.6775   2.4866   4.1510   C.ar      1 RES1   0.0000
    41 N8      10.0568   2.3423   4.5412   N.2       1 RES1   0.0000
    42 N9      -1.7724   5.6516   5.1259   N.2       1 RES1   0.0000
    43 N10     -0.7252   5.7302   5.7565   N.2       1 RES1   0.0000
    44 C20      0.3032   2.6795   0.9106   C.ar      1 RES1   0.0000
    45 H12     -0.4554   2.7860   0.3496   H         1 RES1   0.0000
    46 C21     11.6157   2.0702   6.1409   C.ar      1 RES1   0.0000
    47 C22      8.4325   2.1901   2.8270   C.ar      1 RES1   0.0000
    48 H13      9.1490   1.9297   2.2608   H         1 RES1   0.0000
    49 C23      2.7785   5.3129   4.7543   C.ar      1 RES1   0.0000
    50 H14      3.6034   5.1345   5.1892   H         1 RES1   0.0000
    51 C24      0.2186   1.9240   2.0550   C.ar      1 RES1   0.0000
    52 H15     -0.6052   1.5268   2.3124   H         1 RES1   0.0000
    53 C25     12.6642   2.3384   5.2714   C.ar      1 RES1   0.0000
    54 H16     12.4932   2.6579   4.3934   H         1 RES1   0.0000
    55 C26      7.1021   4.9057   0.3703   C.ar      1 RES1   0.0000
    56 H17      7.0213   4.3214  -0.3746   H         1 RES1   0.0000
    57 C27     13.1578   1.4146   7.8239   C.ar      1 RES1   0.0000
    58 H18     13.3262   1.1023   8.7052   H         1 RES1   0.0000
    59 C28     13.9617   2.1326   5.7043   C.ar      1 RES1   0.0000
    60 H19     14.6898   2.3284   5.1259   H         1 RES1   0.0000
    61 C29     -2.9666   5.8381   5.9750   C.ar      1 RES1   0.0000
    62 C30     11.8570   1.6319   7.4045   C.ar      1 RES1   0.0000
    63 H20     11.1329   1.4736   7.9994   H         1 RES1   0.0000
    64 C31      8.2903   5.5676   0.5694   C.ar      1 RES1   0.0000
    65 H21      9.0105   5.4410  -0.0383   H         1 RES1   0.0000
    66 C32      7.3579   6.5980   2.4845   C.ar      1 RES1   0.0000
    67 H22      7.4218   7.1793   3.2330   H         1 RES1   0.0000
    68 C33     -5.3078   6.2627   7.3451   C.ar      1 RES1   0.0000
    69 H23     -6.1273   6.4051   7.8046   H         1 RES1   0.0000
    70 C34     -4.1520   5.6266   5.3490   C.ar      1 RES1   0.0000
    71 H24     -4.1724   5.3402   4.4434   H         1 RES1   0.0000
    72 C35     -5.3222   5.8324   6.0416   C.ar      1 RES1   0.0000
    73 H25     -6.1539   5.6741   5.6120   H         1 RES1   0.0000
    74 C36     -4.1111   6.4871   7.9877   C.ar      1 RES1   0.0000
    75 H26     -4.0995   6.7879   8.8884   H         1 RES1   0.0000
    76 C37     -2.9028   6.2670   7.2952   C.ar      1 RES1   0.0000
    77 H27     -2.0655   6.4080   7.7213   H         1 RES1   0.0000
    78 C38      8.4390   6.4066   1.6398   C.ar      1 RES1   0.0000
    79 H28      9.2646   6.8483   1.7996   H         1 RES1   0.0000
@<TRIPOS>BOND
     1     1     4    1
     2     2     8    2
     3     3    26    2
     4     4    16   ar
     5     5     1    1
     6     6     5    1
     7     7     9    1
     8     8    37    2
     9     9     1    1
    10    10     5    2
    11    11    10    1
    12    12     9    2
    13    13    12    1
    14    14     1    1
    15    15     1    1
    16    16    12    1
    17    17    18    1
    18    19     6   ar
    19    20    19    1
    20    21    17   ar
    21    22     4   ar
    22    23    22    1
    23    24     7   ar
    24    25    24    1
    25    26    15    2
    26    27    21   ar
    27    28    27    1
    28    29     7   ar
    29    30    29    1
    30    31    10    1
    31    32    29   ar
    32    33    32    1
    33    34    41    2
    34    35    36    1
    35    37     1    1
    36    38    16   ar
    37    39    38    1
    38    40    32   ar
    39    41    40    1
    40    42    43    2
    41    43    21    1
    42    44    22   ar
    43    45    44    1
    44    46    34    1
    45    47    24   ar
    46    48    47    1
    47    49     6   ar
    48    50    49    1
    49    51    38   ar
    50    52    51    1
    51    53    46   ar
    52    54    53    1
    53    55    14   ar
    54    56    55    1
    55    57    35   ar
    56    58    57    1
    57    59    35   ar
    58    60    59    1
    59    61    42    1
    60    62    46   ar
    61    63    62    1
    62    64    55   ar
    63    65    64    1
    64    66    31   ar
    65    67    66    1
    66    68    69    1
    67    70    61   ar
    68    71    70    1
    69    72    68   ar
    70    73    72    1
    71    74    68   ar
    72    75    74    1
    73    76    61   ar
    74    77    76    1
    75    78    64   ar
    76    79    78    1
    77    14    31   ar
    78    17    19   ar
    79    27    49   ar
    80    40    47   ar
    81    44    51   ar
    82    53    59   ar
    83    57    62   ar
    84    66    78   ar
    85    70    72   ar
    86    74    76   ar
@<TRIPOS>SUBSTRUCTURE
     1 RES1        1 GROUP             0 ****  ****    0  
@<TRIPOS>CRYSIN
   15.0119   14.3903   16.6678   90.0000   92.7930   90.0000    14     1
