@<TRIPOS>MOLECULE
XECNAU14
    79    86     1     0     0
SMALL
NO_CHARGES
****
Generated from the CSD

@<TRIPOS>ATOM
     1 Fe1      4.3173   4.0841   1.1348   Fe        1 RES1   0.0000
     2 S1       3.0470   6.9986  -2.3736   S.2       1 RES1   0.0000
     3 S2       6.4147   1.0677  -1.7961   S.2       1 RES1   0.0000
     4 N1       2.5996   3.1578   1.3324   N.ar      1 RES1   0.0000
     5 N2       3.9435   5.3735   2.5956   N.2       1 RES1   0.0000
     6 C1       2.7407   5.4648   3.3792   C.ar      1 RES1   0.0000
     7 C2       6.1082   2.6655   3.1458   C.ar      1 RES1   0.0000
     8 C3       3.4041   5.9870  -1.1322   C.1       1 RES1   0.0000
     9 N3       4.7943   2.8157   2.5723   N.2       1 RES1   0.0000
    10 C4       4.9666   6.0604   2.9795   C.2       1 RES1   0.0000
    11 H1       4.9247   6.6362   3.7346   H         1 RES1   0.0000
    12 C5       3.8008   2.1795   3.0911   C.2       1 RES1   0.0000
    13 H2       3.8996   1.6275   3.8576   H         1 RES1   0.0000
    14 N4       6.0486   5.0365   1.1809   N.ar      1 RES1   0.0000
    15 N5       4.9333   2.8450  -0.2148   N.2       1 RES1   0.0000
    16 C6       2.5177   2.3602   2.4270   C.ar      1 RES1   0.0000
    17 C7       0.3734   5.7699   3.4733   C.ar      1 RES1   0.0000
    18 H3      -0.4566   5.9295   3.0412   H         1 RES1   0.0000
    19 C8       1.5342   5.6984   2.7386   C.ar      1 RES1   0.0000
    20 H4       1.5090   5.8088   1.7958   H         1 RES1   0.0000
    21 C9       0.4221   5.6080   4.8461   C.ar      1 RES1   0.0000
    22 C10      1.4988   3.2839   0.5833   C.ar      1 RES1   0.0000
    23 H5       1.5424   3.8137  -0.2029   H         1 RES1   0.0000
    24 C11      7.1444   2.2641   2.3144   C.ar      1 RES1   0.0000
    25 H6       6.9718   2.0454   1.4067   H         1 RES1   0.0000
    26 C12      5.5342   2.1029  -0.8809   C.1       1 RES1   0.0000
    27 C13      1.6264   5.3952   5.4816   C.ar      1 RES1   0.0000
    28 H7       1.6575   5.3090   6.4266   H         1 RES1   0.0000
    29 C14      6.3543   2.9821   4.4705   C.ar      1 RES1   0.0000
    30 H8       5.6445   3.2650   5.0348   H         1 RES1   0.0000
    31 C15      6.1804   5.9103   2.2050   C.ar      1 RES1   0.0000
    32 C16      7.6483   2.8837   4.9695   C.ar      1 RES1   0.0000
    33 H9       7.8245   3.0926   5.8795   H         1 RES1   0.0000
    34 N6      10.2211   2.2155   5.7691   N.2       1 RES1   0.0000
    35 C17     14.2049   1.6460   6.9605   C.ar      1 RES1   0.0000
    36 H10     15.0974   1.4781   7.2380   H         1 RES1   0.0000
    37 N7       3.6616   5.2869  -0.2393   N.2       1 RES1   0.0000
    38 C18      1.3451   1.7487   2.8209   C.ar      1 RES1   0.0000
    39 H11      1.3166   1.2209   3.6115   H         1 RES1   0.0000
    40 C19      8.6786   2.4808   4.1396   C.ar      1 RES1   0.0000
    41 N8      10.0543   2.3369   4.5348   N.2       1 RES1   0.0000
    42 N9      -1.7877   5.6414   5.1190   N.2       1 RES1   0.0000
    43 N10     -0.7258   5.7152   5.7450   N.2       1 RES1   0.0000
    44 C20      0.3018   2.6760   0.9050   C.ar      1 RES1   0.0000
    45 H12     -0.4550   2.7823   0.3409   H         1 RES1   0.0000
    46 C21     11.6121   2.0650   6.1376   C.ar      1 RES1   0.0000
    47 C22      8.4290   2.1839   2.8177   C.ar      1 RES1   0.0000
    48 H13      9.1444   1.9234   2.2497   H         1 RES1   0.0000
    49 C23      2.7800   5.3072   4.7450   C.ar      1 RES1   0.0000
    50 H14      3.6082   5.1380   5.1795   H         1 RES1   0.0000
    51 C24      0.2135   1.9162   2.0467   C.ar      1 RES1   0.0000
    52 H15     -0.6093   1.5140   2.2979   H         1 RES1   0.0000
    53 C25     12.6615   2.3392   5.2648   C.ar      1 RES1   0.0000
    54 H16     12.4887   2.6645   4.3897   H         1 RES1   0.0000
    55 C26      7.0961   4.8852   0.3616   C.ar      1 RES1   0.0000
    56 H17      7.0143   4.2977  -0.3808   H         1 RES1   0.0000
    57 C27     13.1629   1.4062   7.8200   C.ar      1 RES1   0.0000
    58 H18     13.3344   1.0874   8.6979   H         1 RES1   0.0000
    59 C28     13.9590   2.1288   5.6954   C.ar      1 RES1   0.0000
    60 H19     14.6850   2.3198   5.1146   H         1 RES1   0.0000
    61 C29     -2.9748   5.8295   5.9543   C.ar      1 RES1   0.0000
    62 C30     11.8580   1.6303   7.4063   C.ar      1 RES1   0.0000
    63 H20     11.1364   1.4795   8.0062   H         1 RES1   0.0000
    64 C31      8.2864   5.5489   0.5537   C.ar      1 RES1   0.0000
    65 H21      9.0037   5.4210  -0.0565   H         1 RES1   0.0000
    66 C32      7.3569   6.5831   2.4682   C.ar      1 RES1   0.0000
    67 H22      7.4237   7.1677   3.2141   H         1 RES1   0.0000
    68 C33     -5.3188   6.2498   7.3278   C.ar      1 RES1   0.0000
    69 H23     -6.1344   6.3949   7.7917   H         1 RES1   0.0000
    70 C34     -4.1647   5.6162   5.3258   C.ar      1 RES1   0.0000
    71 H24     -4.1848   5.3291   4.4196   H         1 RES1   0.0000
    72 C35     -5.3397   5.8218   6.0192   C.ar      1 RES1   0.0000
    73 H25     -6.1722   5.6652   5.5885   H         1 RES1   0.0000
    74 C36     -4.1172   6.4696   7.9668   C.ar      1 RES1   0.0000
    75 H26     -4.1040   6.7626   8.8708   H         1 RES1   0.0000
    76 C37     -2.9170   6.2570   7.2779   C.ar      1 RES1   0.0000
    77 H27     -2.0807   6.4035   7.7036   H         1 RES1   0.0000
    78 C38      8.4386   6.3906   1.6229   C.ar      1 RES1   0.0000
    79 H28      9.2649   6.8316   1.7808   H         1 RES1   0.0000
@<TRIPOS>BOND
     1     1     4    1
     2     2     8    2
     3     3    26    2
     4     4    16   ar
     5     5     1    1
     6     6     5    1
     7     7     9    1
     8     8    37    2
     9     9     1    1
    10    10     5    2
    11    11    10    1
    12    12     9    2
    13    13    12    1
    14    14     1    1
    15    15     1    1
    16    16    12    1
    17    17    18    1
    18    19     6   ar
    19    20    19    1
    20    21    17   ar
    21    22     4   ar
    22    23    22    1
    23    24     7   ar
    24    25    24    1
    25    26    15    2
    26    27    21   ar
    27    28    27    1
    28    29     7   ar
    29    30    29    1
    30    31    10    1
    31    32    29   ar
    32    33    32    1
    33    34    41    2
    34    35    36    1
    35    37     1    1
    36    38    16   ar
    37    39    38    1
    38    40    32   ar
    39    41    40    1
    40    42    43    2
    41    43    21    1
    42    44    22   ar
    43    45    44    1
    44    46    34    1
    45    47    24   ar
    46    48    47    1
    47    49     6   ar
    48    50    49    1
    49    51    38   ar
    50    52    51    1
    51    53    46   ar
    52    54    53    1
    53    55    14   ar
    54    56    55    1
    55    57    35   ar
    56    58    57    1
    57    59    35   ar
    58    60    59    1
    59    61    42    1
    60    62    46   ar
    61    63    62    1
    62    64    55   ar
    63    65    64    1
    64    66    31   ar
    65    67    66    1
    66    68    69    1
    67    70    61   ar
    68    71    70    1
    69    72    68   ar
    70    73    72    1
    71    74    68   ar
    72    75    74    1
    73    76    61   ar
    74    77    76    1
    75    78    64   ar
    76    79    78    1
    77    14    31   ar
    78    17    19   ar
    79    27    49   ar
    80    40    47   ar
    81    44    51   ar
    82    53    59   ar
    83    57    62   ar
    84    66    78   ar
    85    70    72   ar
    86    74    76   ar
@<TRIPOS>SUBSTRUCTURE
     1 RES1        1 GROUP             0 ****  ****    0  
@<TRIPOS>CRYSIN
   15.0090   14.3641   16.6475   90.0000   92.8030   90.0000    14     1
