@<TRIPOS>MOLECULE
XECNAU
    79    86     1     0     0
SMALL
NO_CHARGES
****
Generated from the CSD

@<TRIPOS>ATOM
     1 Fe1      4.3245   4.0915   1.1363   Fe        1 RES1   0.0000
     2 S1       3.0526   7.0162  -2.3800   S.2       1 RES1   0.0000
     3 S2       6.4282   1.0657  -1.8016   S.2       1 RES1   0.0000
     4 N1       2.6046   3.1585   1.3325   N.ar      1 RES1   0.0000
     5 N2       3.9480   5.3870   2.5968   N.2       1 RES1   0.0000
     6 C1       2.7531   5.4762   3.3729   C.ar      1 RES1   0.0000
     7 C2       6.1194   2.6719   3.1431   C.ar      1 RES1   0.0000
     8 C3       3.4113   5.9931  -1.1360   C.1       1 RES1   0.0000
     9 N3       4.8015   2.8231   2.5784   N.2       1 RES1   0.0000
    10 C4       4.9723   6.0780   2.9865   C.2       1 RES1   0.0000
    11 C5       3.8118   2.1853   3.0981   C.2       1 RES1   0.0000
    12 N4       6.0562   5.0458   1.1743   N.ar      1 RES1   0.0000
    13 N5       4.9419   2.8432  -0.2199   N.2       1 RES1   0.0000
    14 C6       2.5216   2.3653   2.4302   C.ar      1 RES1   0.0000
    15 C7       0.3613   5.7886   3.4779   C.ar      1 RES1   0.0000
    16 C8       1.5351   5.7109   2.7333   C.ar      1 RES1   0.0000
    17 C9       0.4097   5.6303   4.8670   C.ar      1 RES1   0.0000
    18 C10      1.4994   3.2866   0.5730   C.ar      1 RES1   0.0000
    19 C11      7.1520   2.2674   2.3053   C.ar      1 RES1   0.0000
    20 C12      5.5419   2.1033  -0.8861   C.1       1 RES1   0.0000
    21 C13      1.6277   5.4043   5.5050   C.ar      1 RES1   0.0000
    22 C14      6.3644   2.9987   4.4806   C.ar      1 RES1   0.0000
    23 C15      6.1915   5.9196   2.2053   C.ar      1 RES1   0.0000
    24 C16      7.6599   2.9008   4.9803   C.ar      1 RES1   0.0000
    25 N6      10.2414   2.2227   5.7798   N.2       1 RES1   0.0000
    26 C17     14.2361   1.6411   6.9791   C.ar      1 RES1   0.0000
    27 N7       3.6665   5.2948  -0.2465   N.2       1 RES1   0.0000
    28 C18      1.3439   1.7491   2.8299   C.ar      1 RES1   0.0000
    29 C19      8.7013   2.4891   4.1475   C.ar      1 RES1   0.0000
    30 N8      10.0711   2.3480   4.5439   N.2       1 RES1   0.0000
    31 N9      -1.8077   5.6547   5.1252   N.2       1 RES1   0.0000
    32 N10     -0.7256   5.7325   5.7448   N.2       1 RES1   0.0000
    33 C20      0.2896   2.6762   0.8911   C.ar      1 RES1   0.0000
    34 C21     11.6308   2.0759   6.1446   C.ar      1 RES1   0.0000
    35 C22      8.4502   2.1940   2.8116   C.ar      1 RES1   0.0000
    36 C23      2.7928   5.3179   4.7538   C.ar      1 RES1   0.0000
    37 C24      0.2022   1.9219   2.0471   C.ar      1 RES1   0.0000
    38 C25     12.6921   2.3552   5.2735   C.ar      1 RES1   0.0000
    39 C26      7.1048   4.8903   0.3465   C.ar      1 RES1   0.0000
    40 C27     13.1871   1.3993   7.8452   C.ar      1 RES1   0.0000
    41 C28     13.9954   2.1450   5.7082   C.ar      1 RES1   0.0000
    42 C29     -2.9710   5.8448   5.9614   C.ar      1 RES1   0.0000
    43 C30     11.8754   1.6296   7.4288   C.ar      1 RES1   0.0000
    44 C31      8.3120   5.5597   0.5347   C.ar      1 RES1   0.0000
    45 C32      7.3768   6.6078   2.4718   C.ar      1 RES1   0.0000
    46 C33     -5.3415   6.2738   7.3355   C.ar      1 RES1   0.0000
    47 C34     -4.1786   5.6303   5.3268   C.ar      1 RES1   0.0000
    48 C35     -5.3753   5.8405   6.0163   C.ar      1 RES1   0.0000
    49 C36     -4.1281   6.4998   7.9751   C.ar      1 RES1   0.0000
    50 C37     -2.9284   6.2853   7.2856   C.ar      1 RES1   0.0000
    51 C38      8.4616   6.4091   1.6124   C.ar      1 RES1   0.0000
    52 H1       4.9270   6.6510   3.7477   H         1 RES1   0.0000
    53 H2       3.9137   1.6411   3.8643   H         1 RES1   0.0000
    54 H3      -0.4670   5.9455   3.0481   H         1 RES1   0.0000
    55 H4       1.5048   5.8160   1.7989   H         1 RES1   0.0000
    56 H5       1.5446   3.8149  -0.2165   H         1 RES1   0.0000
    57 H6       6.9834   2.0442   1.3991   H         1 RES1   0.0000
    58 H7       1.6652   5.3121   6.4461   H         1 RES1   0.0000
    59 H8       5.6596   3.2823   5.0469   H         1 RES1   0.0000
    60 H9       7.8280   3.1095   5.8964   H         1 RES1   0.0000
    61 H10     15.1289   1.4684   7.2622   H         1 RES1   0.0000
    62 H11      1.3245   1.2237   3.6145   H         1 RES1   0.0000
    63 H12     -0.4668   2.7784   0.3165   H         1 RES1   0.0000
    64 H13      9.1669   1.9435   2.2486   H         1 RES1   0.0000
    65 H14      3.6228   5.1538   5.1802   H         1 RES1   0.0000
    66 H15     -0.6253   1.5260   2.2986   H         1 RES1   0.0000
    67 H16     12.5190   2.6777   4.3973   H         1 RES1   0.0000
    68 H17      7.0125   4.3044  -0.3998   H         1 RES1   0.0000
    69 H18     13.3569   1.0797   8.7280   H         1 RES1   0.0000
    70 H19     14.7233   1.9579   5.1302   H         1 RES1   0.0000
    71 H20     11.1509   1.4828   8.0284   H         1 RES1   0.0000
    72 H21      9.0269   5.4273  -0.0833   H         1 RES1   0.0000
    73 H22      7.4498   7.1980   3.2147   H         1 RES1   0.0000
    74 H23     -6.1621   6.4206   7.8119   H         1 RES1   0.0000
    75 H24     -4.1898   5.3409   4.4306   H         1 RES1   0.0000
    76 H25     -6.2018   5.6864   5.5799   H         1 RES1   0.0000
    77 H26     -4.1097   6.7949   8.8779   H         1 RES1   0.0000
    78 H27     -2.0969   6.4350   7.7120   H         1 RES1   0.0000
    79 H28      9.2961   6.8525   1.7656   H         1 RES1   0.0000
@<TRIPOS>BOND
     1     1     4    1
     2     2     8    2
     3     3    20    2
     4     4    14   ar
     5     5     1    1
     6     6     5    1
     7     7     9    1
     8     8    27    2
     9     9     1    1
    10    10     5    2
    11    11     9    2
    12    12     1    1
    13    13     1    1
    14    14    11    1
    15    15    16   ar
    16    16     6   ar
    17    17    15   ar
    18    18     4   ar
    19    19     7   ar
    20    20    13    2
    21    21    17   ar
    22    22     7   ar
    23    23    10    1
    24    24    22   ar
    25    25    30    2
    26    26    40   ar
    27    27     1    1
    28    28    14   ar
    29    29    24   ar
    30    30    29    1
    31    31    32    2
    32    32    17    1
    33    33    18   ar
    34    34    25    1
    35    35    19   ar
    36    36     6   ar
    37    37    28   ar
    38    38    34   ar
    39    39    12   ar
    40    40    43   ar
    41    41    26   ar
    42    42    31    1
    43    43    34   ar
    44    44    39   ar
    45    45    23   ar
    46    46    48   ar
    47    47    42   ar
    48    48    47   ar
    49    49    46   ar
    50    50    42   ar
    51    51    44   ar
    52    52    10    1
    53    53    11    1
    54    54    15    1
    55    55    16    1
    56    56    18    1
    57    57    19    1
    58    58    21    1
    59    59    22    1
    60    60    24    1
    61    61    26    1
    62    62    28    1
    63    63    33    1
    64    64    35    1
    65    65    36    1
    66    66    37    1
    67    67    38    1
    68    68    39    1
    69    69    40    1
    70    70    41    1
    71    71    43    1
    72    72    44    1
    73    73    45    1
    74    74    46    1
    75    75    47    1
    76    76    48    1
    77    77    49    1
    78    78    50    1
    79    79    51    1
    80    12    23   ar
    81    21    36   ar
    82    29    35   ar
    83    33    37   ar
    84    38    41   ar
    85    45    51   ar
    86    49    50   ar
@<TRIPOS>SUBSTRUCTURE
     1 RES1        1 GROUP             0 ****  ****    0  
@<TRIPOS>CRYSIN
   15.0380   14.3960   16.6770   90.0000   92.8400   90.0000    14     1
