@<TRIPOS>MOLECULE
XECNAU30
    79    86     1     0     0
SMALL
NO_CHARGES
****
Generated from the CSD

@<TRIPOS>ATOM
     1 Fe1      4.3492   4.1649   0.9527   Fe        1 RES1   0.0000
     2 S1       2.9937   7.2082  -2.4922   S.2       1 RES1   0.0000
     3 S2       6.6949   1.0538  -1.8057   S.2       1 RES1   0.0000
     4 N1       2.5223   3.1288   1.3349   N.ar      1 RES1   0.0000
     5 N2       3.9800   5.5045   2.7205   N.2       1 RES1   0.0000
     6 C1       2.7899   5.5814   3.5065   C.ar      1 RES1   0.0000
     7 C2       6.0837   2.6212   3.2400   C.ar      1 RES1   0.0000
     8 C3       3.2972   6.1726  -1.2831   C.1       1 RES1   0.0000
     9 N3       4.8106   2.7612   2.6187   N.2       1 RES1   0.0000
    10 C4       5.0340   6.0886   3.1433   C.2       1 RES1   0.0000
    11 H1       5.0143   6.5812   3.9308   H         1 RES1   0.0000
    12 C5       3.7807   2.2053   3.1229   C.2       1 RES1   0.0000
    13 H2       3.8494   1.6953   3.8968   H         1 RES1   0.0000
    14 N4       6.1900   5.2264   1.2648   N.ar      1 RES1   0.0000
    15 N5       5.1838   2.9327  -0.4510   N.2       1 RES1   0.0000
    16 C6       2.4836   2.3836   2.4593   C.ar      1 RES1   0.0000
    17 C7       0.4244   5.8466   3.5964   C.ar      1 RES1   0.0000
    18 H3      -0.3899   5.9929   3.1704   H         1 RES1   0.0000
    19 C8       1.5944   5.7886   2.8615   C.ar      1 RES1   0.0000
    20 H4       1.5731   5.8901   1.9382   H         1 RES1   0.0000
    21 C9       0.4719   5.6843   4.9593   C.ar      1 RES1   0.0000
    22 C10      1.3856   3.2645   0.6500   C.ar      1 RES1   0.0000
    23 H5       1.3964   3.7557  -0.1392   H         1 RES1   0.0000
    24 C11      7.1543   2.2792   2.4423   C.ar      1 RES1   0.0000
    25 H6       7.0169   2.0938   1.5411   H         1 RES1   0.0000
    26 C12      5.8114   2.1474  -1.0200   C.1       1 RES1   0.0000
    27 C13      1.6556   5.4713   5.5975   C.ar      1 RES1   0.0000
    28 H7       1.6753   5.3670   6.5225   H         1 RES1   0.0000
    29 C14      6.2958   2.9081   4.5757   C.ar      1 RES1   0.0000
    30 H8       5.5861   3.1501   5.1256   H         1 RES1   0.0000
    31 C15      6.2737   5.9741   2.3778   C.ar      1 RES1   0.0000
    32 C16      7.5920   2.8313   5.0900   C.ar      1 RES1   0.0000
    33 H9       7.7463   3.0240   5.9861   H         1 RES1   0.0000
    34 N6      10.1543   2.2256   5.8351   N.2       1 RES1   0.0000
    35 C17     14.1744   1.7054   7.0944   C.ar      1 RES1   0.0000
    36 H10     15.0372   1.5562   7.4067   H         1 RES1   0.0000
    37 N7       3.4961   5.4438  -0.4022   N.2       1 RES1   0.0000
    38 C18      1.3274   1.8112   2.9362   C.ar      1 RES1   0.0000
    39 H11      1.3334   1.3157   3.7237   H         1 RES1   0.0000
    40 C19      8.6299   2.4719   4.2821   C.ar      1 RES1   0.0000
    41 N8      10.1062   2.3502   4.6793   N.2       1 RES1   0.0000
    42 N9      -1.5697   5.7307   5.3225   N.2       1 RES1   0.0000
    43 N10     -0.7333   5.8249   6.0387   N.2       1 RES1   0.0000
    44 C20      0.1921   2.7067   1.0625   C.ar      1 RES1   0.0000
    45 H12     -0.5785   2.8182   0.5550   H         1 RES1   0.0000
    46 C21     11.6321   2.0749   6.2034   C.ar      1 RES1   0.0000
    47 C22      8.4168   2.2097   2.9651   C.ar      1 RES1   0.0000
    48 H13      9.1340   1.9836   2.4152   H         1 RES1   0.0000
    49 C23      2.8083   5.4119   4.8761   C.ar      1 RES1   0.0000
    50 H14      3.6161   5.2554   5.3106   H         1 RES1   0.0000
    51 C24      0.1539   1.9894   2.2217   C.ar      1 RES1   0.0000
    52 H15     -0.6454   1.6257   2.5272   H         1 RES1   0.0000
    53 C25     12.6842   2.3473   5.3565   C.ar      1 RES1   0.0000
    54 H16     12.5330   2.6473   4.4892   H         1 RES1   0.0000
    55 C26      7.2852   5.1351   0.5177   C.ar      1 RES1   0.0000
    56 H17      7.2499   4.6251  -0.2597   H         1 RES1   0.0000
    57 C27     13.1262   1.4664   7.8972   C.ar      1 RES1   0.0000
    58 H18     13.2744   1.1693   8.7662   H         1 RES1   0.0000
    59 C28     13.9853   2.1604   5.8368   C.ar      1 RES1   0.0000
    60 H19     14.7157   2.3488   5.2937   H         1 RES1   0.0000
    61 C29     -2.8042   5.9292   6.3273   C.ar      1 RES1   0.0000
    62 C30     11.8499   1.6518   7.4627   C.ar      1 RES1   0.0000
    63 H20     11.1332   1.4881   8.0313   H         1 RES1   0.0000
    64 C31      8.4661   5.7582   0.8418   C.ar      1 RES1   0.0000
    65 H21      9.2051   5.6843   0.2817   H         1 RES1   0.0000
    66 C32      7.4325   6.6030   2.7767   C.ar      1 RES1   0.0000
    67 H22      7.4596   7.0971   3.5642   H         1 RES1   0.0000
    68 C33     -5.1660   6.3320   7.6409   C.ar      1 RES1   0.0000
    69 H23     -5.9809   6.4653   8.0686   H         1 RES1   0.0000
    70 C34     -3.9699   5.6553   5.7197   C.ar      1 RES1   0.0000
    71 H24     -3.9712   5.3380   4.8456   H         1 RES1   0.0000
    72 C35     -5.1413   5.8393   6.3680   C.ar      1 RES1   0.0000
    73 H25     -5.9405   5.6278   5.9420   H         1 RES1   0.0000
    74 C36     -3.9953   6.6334   8.2961   C.ar      1 RES1   0.0000
    75 H26     -4.0042   6.9681   9.1633   H         1 RES1   0.0000
    76 C37     -2.7814   6.4175   7.6172   C.ar      1 RES1   0.0000
    77 H27     -1.9712   6.6044   8.0347   H         1 RES1   0.0000
    78 C38      8.5452   6.4841   1.9841   C.ar      1 RES1   0.0000
    79 H28      9.3421   6.8956   2.2268   H         1 RES1   0.0000
@<TRIPOS>BOND
     1     1     4    1
     2     2     8    2
     3     3    26    2
     4     4    16   ar
     5     5     1    1
     6     6     5    1
     7     7     9    1
     8     8    37    2
     9     9     1    1
    10    10     5    2
    11    11    10    1
    12    12     9    2
    13    13    12    1
    14    14     1    1
    15    15     1    1
    16    16    12    1
    17    17    18    1
    18    19     6   ar
    19    20    19    1
    20    21    17   ar
    21    22     4   ar
    22    23    22    1
    23    24     7   ar
    24    25    24    1
    25    26    15    2
    26    27    21   ar
    27    28    27    1
    28    29     7   ar
    29    30    29    1
    30    31    10    1
    31    32    29   ar
    32    33    32    1
    33    34    41    2
    34    35    36    1
    35    37     1    1
    36    38    16   ar
    37    39    38    1
    38    40    32   ar
    39    41    40    1
    40    42    43    2
    41    43    21    1
    42    44    22   ar
    43    45    44    1
    44    46    34    1
    45    47    24   ar
    46    48    47    1
    47    49     6   ar
    48    50    49    1
    49    51    38   ar
    50    52    51    1
    51    53    46   ar
    52    54    53    1
    53    55    14   ar
    54    56    55    1
    55    57    35   ar
    56    58    57    1
    57    59    35   ar
    58    60    59    1
    59    61    42    1
    60    62    46   ar
    61    63    62    1
    62    64    55   ar
    63    65    64    1
    64    66    31   ar
    65    67    66    1
    66    68    69    1
    67    70    61   ar
    68    71    70    1
    69    72    68   ar
    70    73    72    1
    71    74    68   ar
    72    75    74    1
    73    76    61   ar
    74    77    76    1
    75    78    64   ar
    76    79    78    1
    77    14    31   ar
    78    17    19   ar
    79    27    49   ar
    80    40    47   ar
    81    44    51   ar
    82    53    59   ar
    83    57    62   ar
    84    66    78   ar
    85    70    72   ar
    86    74    76   ar
@<TRIPOS>SUBSTRUCTURE
     1 RES1        1 GROUP             0 ****  ****    0  
@<TRIPOS>CRYSIN
   15.1127   14.4897   16.9969   90.0000   93.0830   90.0000    14     1
