@<TRIPOS>MOLECULE
XECNAU26
    79    86     1     0     0
SMALL
NO_CHARGES
****
Generated from the CSD

@<TRIPOS>ATOM
     1 Fe1      4.3419   4.1236   1.0382   Fe        1 RES1   0.0000
     2 S1       3.0270   7.1112  -2.4332   S.2       1 RES1   0.0000
     3 S2       6.5741   1.0655  -1.8105   S.2       1 RES1   0.0000
     4 N1       2.5694   3.1387   1.3357   N.ar      1 RES1   0.0000
     5 N2       3.9702   5.4449   2.6559   N.2       1 RES1   0.0000
     6 C1       2.7713   5.5300   3.4385   C.ar      1 RES1   0.0000
     7 C2       6.1089   2.6457   3.1853   C.ar      1 RES1   0.0000
     8 C3       3.3583   6.0773  -1.2026   C.1       1 RES1   0.0000
     9 N3       4.8144   2.7867   2.5966   N.2       1 RES1   0.0000
    10 C4       5.0056   6.0773   3.0594   C.2       1 RES1   0.0000
    11 H1       4.9747   6.6196   3.8397   H         1 RES1   0.0000
    12 C5       3.8040   2.1979   3.1027   C.2       1 RES1   0.0000
    13 H2       3.8891   1.6643   3.8834   H         1 RES1   0.0000
    14 N4       6.1267   5.1364   1.2183   N.ar      1 RES1   0.0000
    15 N5       5.0773   2.8901  -0.3432   N.2       1 RES1   0.0000
    16 C6       2.5147   2.3708   2.4456   C.ar      1 RES1   0.0000
    17 C7       0.4024   5.8134   3.5324   C.ar      1 RES1   0.0000
    18 H3      -0.4284   5.9706   3.1007   H         1 RES1   0.0000
    19 C8       1.5735   5.7485   2.7883   C.ar      1 RES1   0.0000
    20 H4       1.5495   5.8523   1.8443   H         1 RES1   0.0000
    21 C9       0.4500   5.6504   4.8996   C.ar      1 RES1   0.0000
    22 C10      1.4478   3.2694   0.6215   C.ar      1 RES1   0.0000
    23 H5       1.4752   3.7828  -0.1780   H         1 RES1   0.0000
    24 C11      7.1625   2.2757   2.3683   C.ar      1 RES1   0.0000
    25 H6       7.0043   2.0695   1.4546   H         1 RES1   0.0000
    26 C12      5.6907   2.1272  -0.9658   C.1       1 RES1   0.0000
    27 C13      1.6378   5.4341   5.5379   C.ar      1 RES1   0.0000
    28 H7       1.6618   5.3360   6.4819   H         1 RES1   0.0000
    29 C14      6.3446   2.9478   4.5133   C.ar      1 RES1   0.0000
    30 H8       5.6285   3.2117   5.0793   H         1 RES1   0.0000
    31 C15      6.2305   5.9432   2.2894   C.ar      1 RES1   0.0000
    32 C16      7.6372   2.8613   5.0172   C.ar      1 RES1   0.0000
    33 H9       7.8045   3.0646   5.9292   H         1 RES1   0.0000
    34 N6      10.2124   2.2133   5.7999   N.2       1 RES1   0.0000
    35 C17     14.2080   1.6830   7.0244   C.ar      1 RES1   0.0000
    36 H10     15.0968   1.5301   7.3217   H         1 RES1   0.0000
    37 N7       3.5802   5.3620  -0.3259   N.2       1 RES1   0.0000
    38 C18      1.3513   1.7796   2.8907   C.ar      1 RES1   0.0000
    39 H11      1.3422   1.2619   3.6869   H         1 RES1   0.0000
    40 C19      8.6750   2.4820   4.1992   C.ar      1 RES1   0.0000
    41 N8      10.0787   2.3529   4.5905   N.2       1 RES1   0.0000
    42 N9      -1.6538   5.6891   5.2305   N.2       1 RES1   0.0000
    43 N10     -0.7226   5.7773   5.9057   N.2       1 RES1   0.0000
    44 C20      0.2566   2.6925   0.9927   C.ar      1 RES1   0.0000
    45 H12     -0.5189   2.8007   0.4535   H         1 RES1   0.0000
    46 C21     11.6268   2.0666   6.1745   C.ar      1 RES1   0.0000
    47 C22      8.4383   2.2051   2.8773   C.ar      1 RES1   0.0000
    48 H13      9.1605   1.9628   2.3096   H         1 RES1   0.0000
    49 C23      2.7994   5.3605   4.8039   C.ar      1 RES1   0.0000
    50 H14      3.6237   5.1918   5.2423   H         1 RES1   0.0000
    51 C24      0.1975   1.9585   2.1483   C.ar      1 RES1   0.0000
    52 H15     -0.6249   1.5777   2.4355   H         1 RES1   0.0000
    53 C25     12.6788   2.3464   5.3128   C.ar      1 RES1   0.0000
    54 H16     12.5129   2.6637   4.4327   H         1 RES1   0.0000
    55 C26      7.1999   5.0159   0.4300   C.ar      1 RES1   0.0000
    56 H17      7.1382   4.4577  -0.3376   H         1 RES1   0.0000
    57 C27     13.1589   1.4350   7.8558   C.ar      1 RES1   0.0000
    58 H18     13.3232   1.1191   8.7377   H         1 RES1   0.0000
    59 C28     13.9801   2.1517   5.7646   C.ar      1 RES1   0.0000
    60 H19     14.7131   2.3464   5.1919   H         1 RES1   0.0000
    61 C29     -2.8823   5.8754   6.1526   C.ar      1 RES1   0.0000
    62 C30     11.8651   1.6354   7.4342   C.ar      1 RES1   0.0000
    63 H20     11.1416   1.4710   8.0272   H         1 RES1   0.0000
    64 C31      8.3764   5.6533   0.6719   C.ar      1 RES1   0.0000
    65 H21      9.1076   5.5524   0.0739   H         1 RES1   0.0000
    66 C32      7.3981   6.6051   2.6220   C.ar      1 RES1   0.0000
    67 H22      7.4488   7.1517   3.3980   H         1 RES1   0.0000
    68 C33     -5.2287   6.2965   7.5149   C.ar      1 RES1   0.0000
    69 H23     -6.0546   6.4378   7.9600   H         1 RES1   0.0000
    70 C34     -4.0565   5.6230   5.5429   C.ar      1 RES1   0.0000
    71 H24     -4.0725   5.3072   4.6477   H         1 RES1   0.0000
    72 C35     -5.2168   5.8249   6.2215   C.ar      1 RES1   0.0000
    73 H25     -6.0430   5.6360   5.7898   H         1 RES1   0.0000
    74 C36     -4.0429   6.5648   8.1615   C.ar      1 RES1   0.0000
    75 H26     -4.0388   6.8907   9.0534   H         1 RES1   0.0000
    76 C37     -2.8274   6.3398   7.4645   C.ar      1 RES1   0.0000
    77 H27     -1.9915   6.5042   7.8844   H         1 RES1   0.0000
    78 C38      8.4958   6.4422   1.7821   C.ar      1 RES1   0.0000
    79 H28      9.3205   6.8734   1.9787   H         1 RES1   0.0000
@<TRIPOS>BOND
     1     1     4    1
     2     2     8    2
     3     3    26    2
     4     4    16   ar
     5     5     1    1
     6     6     5    1
     7     7     9    1
     8     8    37    2
     9     9     1    1
    10    10     5    2
    11    11    10    1
    12    12     9    2
    13    13    12    1
    14    14     1    1
    15    15     1    1
    16    16    12    1
    17    17    18    1
    18    19     6   ar
    19    20    19    1
    20    21    17   ar
    21    22     4   ar
    22    23    22    1
    23    24     7   ar
    24    25    24    1
    25    26    15    2
    26    27    21   ar
    27    28    27    1
    28    29     7   ar
    29    30    29    1
    30    31    10    1
    31    32    29   ar
    32    33    32    1
    33    34    41    2
    34    35    36    1
    35    37     1    1
    36    38    16   ar
    37    39    38    1
    38    40    32   ar
    39    41    40    1
    40    42    43    2
    41    43    21    1
    42    44    22   ar
    43    45    44    1
    44    46    34    1
    45    47    24   ar
    46    48    47    1
    47    49     6   ar
    48    50    49    1
    49    51    38   ar
    50    52    51    1
    51    53    46   ar
    52    54    53    1
    53    55    14   ar
    54    56    55    1
    55    57    35   ar
    56    58    57    1
    57    59    35   ar
    58    60    59    1
    59    61    42    1
    60    62    46   ar
    61    63    62    1
    62    64    55   ar
    63    65    64    1
    64    66    31   ar
    65    67    66    1
    66    68    69    1
    67    70    61   ar
    68    71    70    1
    69    72    68   ar
    70    73    72    1
    71    74    68   ar
    72    75    74    1
    73    76    61   ar
    74    77    76    1
    75    78    64   ar
    76    79    78    1
    77    14    31   ar
    78    17    19   ar
    79    27    49   ar
    80    40    47   ar
    81    44    51   ar
    82    53    59   ar
    83    57    62   ar
    84    66    78   ar
    85    70    72   ar
    86    74    76   ar
@<TRIPOS>SUBSTRUCTURE
     1 RES1        1 GROUP             0 ****  ****    0  
@<TRIPOS>CRYSIN
   15.0676   14.4217   16.8187   90.0000   92.9290   90.0000    14     1
