@<TRIPOS>MOLECULE
XECNAU13
    79    86     1     0     0
SMALL
NO_CHARGES
****
Generated from the CSD

@<TRIPOS>ATOM
     1 Fe1      4.3248   4.0941   1.1269   Fe        1 RES1   0.0000
     2 S1       3.0475   7.0154  -2.3760   S.2       1 RES1   0.0000
     3 S2       6.4297   1.0734  -1.8004   S.2       1 RES1   0.0000
     4 N1       2.6032   3.1582   1.3327   N.ar      1 RES1   0.0000
     5 N2       3.9503   5.3899   2.5998   N.2       1 RES1   0.0000
     6 C1       2.7479   5.4812   3.3804   C.ar      1 RES1   0.0000
     7 C2       6.1118   2.6663   3.1484   C.ar      1 RES1   0.0000
     8 C3       3.4082   6.0001  -1.1352   C.1       1 RES1   0.0000
     9 N3       4.8057   2.8195   2.5748   N.2       1 RES1   0.0000
    10 C4       4.9697   6.0716   2.9928   C.2       1 RES1   0.0000
    11 H1       4.9279   6.6428   3.7514   H         1 RES1   0.0000
    12 C5       3.8103   2.1873   3.0868   C.2       1 RES1   0.0000
    13 H2       3.9092   1.6351   3.8546   H         1 RES1   0.0000
    14 N4       6.0599   5.0553   1.1870   N.ar      1 RES1   0.0000
    15 N5       4.9570   2.8524  -0.2298   N.2       1 RES1   0.0000
    16 C6       2.5269   2.3615   2.4286   C.ar      1 RES1   0.0000
    17 C7       0.3777   5.7879   3.4828   C.ar      1 RES1   0.0000
    18 H3      -0.4514   5.9519   3.0504   H         1 RES1   0.0000
    19 C8       1.5448   5.7137   2.7362   C.ar      1 RES1   0.0000
    20 H4       1.5189   5.8209   1.7933   H         1 RES1   0.0000
    21 C9       0.4193   5.6234   4.8546   C.ar      1 RES1   0.0000
    22 C10      1.5015   3.2825   0.5864   C.ar      1 RES1   0.0000
    23 H5       1.5477   3.8086  -0.2031   H         1 RES1   0.0000
    24 C11      7.1510   2.2662   2.3176   C.ar      1 RES1   0.0000
    25 H6       6.9815   2.0468   1.4086   H         1 RES1   0.0000
    26 C12      5.5567   2.1073  -0.8935   C.1       1 RES1   0.0000
    27 C13      1.6187   5.4078   5.4853   C.ar      1 RES1   0.0000
    28 H7       1.6489   5.3200   6.4304   H         1 RES1   0.0000
    29 C14      6.3623   2.9854   4.4707   C.ar      1 RES1   0.0000
    30 H8       5.6519   3.2717   5.0334   H         1 RES1   0.0000
    31 C15      6.1843   5.9218   2.2160   C.ar      1 RES1   0.0000
    32 C16      7.6513   2.8876   4.9745   C.ar      1 RES1   0.0000
    33 H9       7.8252   3.0976   5.8843   H         1 RES1   0.0000
    34 N6      10.2218   2.2194   5.7682   N.2       1 RES1   0.0000
    35 C17     14.2052   1.6527   6.9732   C.ar      1 RES1   0.0000
    36 H10     15.0968   1.4855   7.2563   H         1 RES1   0.0000
    37 N7       3.6573   5.2967  -0.2463   N.2       1 RES1   0.0000
    38 C18      1.3498   1.7542   2.8279   C.ar      1 RES1   0.0000
    39 H11      1.3198   1.2278   3.6182   H         1 RES1   0.0000
    40 C19      8.6842   2.4814   4.1448   C.ar      1 RES1   0.0000
    41 N8      10.0593   2.3420   4.5424   N.2       1 RES1   0.0000
    42 N9      -1.7714   5.6568   5.1323   N.2       1 RES1   0.0000
    43 N10     -0.7275   5.7301   5.7572   N.2       1 RES1   0.0000
    44 C20      0.3054   2.6845   0.9075   C.ar      1 RES1   0.0000
    45 H12     -0.4508   2.7939   0.3430   H         1 RES1   0.0000
    46 C21     11.6136   2.0700   6.1317   C.ar      1 RES1   0.0000
    47 C22      8.4297   2.1899   2.8266   C.ar      1 RES1   0.0000
    48 H13      9.1458   1.9317   2.2578   H         1 RES1   0.0000
    49 C23      2.7812   5.3183   4.7464   C.ar      1 RES1   0.0000
    50 H14      3.6068   5.1444   5.1816   H         1 RES1   0.0000
    51 C24      0.2132   1.9288   2.0530   C.ar      1 RES1   0.0000
    52 H15     -0.6117   1.5330   2.3078   H         1 RES1   0.0000
    53 C25     12.6683   2.3394   5.2699   C.ar      1 RES1   0.0000
    54 H16     12.5027   2.6586   4.3907   H         1 RES1   0.0000
    55 C26      7.1105   4.9083   0.3696   C.ar      1 RES1   0.0000
    56 H17      7.0299   4.3239  -0.3746   H         1 RES1   0.0000
    57 C27     13.1632   1.4120   7.8257   C.ar      1 RES1   0.0000
    58 H18     13.3334   1.0939   8.7049   H         1 RES1   0.0000
    59 C28     13.9639   2.1361   5.7078   C.ar      1 RES1   0.0000
    60 H19     14.6934   2.3304   5.1317   H         1 RES1   0.0000
    61 C29     -2.9588   5.8410   5.9809   C.ar      1 RES1   0.0000
    62 C30     11.8575   1.6337   7.4111   C.ar      1 RES1   0.0000
    63 H20     11.1359   1.4855   8.0089   H         1 RES1   0.0000
    64 C31      8.3010   5.5661   0.5611   C.ar      1 RES1   0.0000
    65 H21      9.0187   5.4438  -0.0500   H         1 RES1   0.0000
    66 C32      7.3622   6.5982   2.4859   C.ar      1 RES1   0.0000
    67 H22      7.4281   7.1811   3.2335   H         1 RES1   0.0000
    68 C33     -5.3056   6.2628   7.3512   C.ar      1 RES1   0.0000
    69 H23     -6.1240   6.4024   7.8107   H         1 RES1   0.0000
    70 C34     -4.1489   5.6266   5.3531   C.ar      1 RES1   0.0000
    71 H24     -4.1676   5.3358   4.4490   H         1 RES1   0.0000
    72 C35     -5.3179   5.8324   6.0408   C.ar      1 RES1   0.0000
    73 H25     -6.1496   5.6755   5.6079   H         1 RES1   0.0000
    74 C36     -4.1044   6.4902   7.9989   C.ar      1 RES1   0.0000
    75 H26     -4.0931   6.7882   8.9014   H         1 RES1   0.0000
    76 C37     -2.9035   6.2757   7.3029   C.ar      1 RES1   0.0000
    77 H27     -2.0668   6.4254   7.7275   H         1 RES1   0.0000
    78 C38      8.4434   6.4024   1.6384   C.ar      1 RES1   0.0000
    79 H28      9.2703   6.8414   1.8016   H         1 RES1   0.0000
@<TRIPOS>BOND
     1     1     4    1
     2     2     8    2
     3     3    26    2
     4     4    16   ar
     5     5     1    1
     6     6     5    1
     7     7     9    1
     8     8    37    2
     9     9     1    1
    10    10     5    2
    11    11    10    1
    12    12     9    2
    13    13    12    1
    14    14     1    1
    15    15     1    1
    16    16    12    1
    17    17    18    1
    18    19     6   ar
    19    20    19    1
    20    21    17   ar
    21    22     4   ar
    22    23    22    1
    23    24     7   ar
    24    25    24    1
    25    26    15    2
    26    27    21   ar
    27    28    27    1
    28    29     7   ar
    29    30    29    1
    30    31    10    1
    31    32    29   ar
    32    33    32    1
    33    34    41    2
    34    35    36    1
    35    37     1    1
    36    38    16   ar
    37    39    38    1
    38    40    32   ar
    39    41    40    1
    40    42    43    2
    41    43    21    1
    42    44    22   ar
    43    45    44    1
    44    46    34    1
    45    47    24   ar
    46    48    47    1
    47    49     6   ar
    48    50    49    1
    49    51    38   ar
    50    52    51    1
    51    53    46   ar
    52    54    53    1
    53    55    14   ar
    54    56    55    1
    55    57    35   ar
    56    58    57    1
    57    59    35   ar
    58    60    59    1
    59    61    42    1
    60    62    46   ar
    61    63    62    1
    62    64    55   ar
    63    65    64    1
    64    66    31   ar
    65    67    66    1
    66    68    69    1
    67    70    61   ar
    68    71    70    1
    69    72    68   ar
    70    73    72    1
    71    74    68   ar
    72    75    74    1
    73    76    61   ar
    74    77    76    1
    75    78    64   ar
    76    79    78    1
    77    14    31   ar
    78    17    19   ar
    79    27    49   ar
    80    40    47   ar
    81    44    51   ar
    82    53    59   ar
    83    57    62   ar
    84    66    78   ar
    85    70    72   ar
    86    74    76   ar
@<TRIPOS>SUBSTRUCTURE
     1 RES1        1 GROUP             0 ****  ****    0  
@<TRIPOS>CRYSIN
   15.0171   14.3939   16.6705   90.0000   92.8070   90.0000    14     1
