@<TRIPOS>MOLECULE
XECNAU32
    79    86     1     0     0
SMALL
NO_CHARGES
****
Generated from the CSD

@<TRIPOS>ATOM
     1 Fe1      4.3445   4.1586   0.9580   Fe        1 RES1   0.0000
     2 S1       2.9969   7.2012  -2.4902   S.2       1 RES1   0.0000
     3 S2       6.6885   1.0549  -1.8043   S.2       1 RES1   0.0000
     4 N1       2.5191   3.1263   1.3381   N.ar      1 RES1   0.0000
     5 N2       3.9793   5.4925   2.7183   N.2       1 RES1   0.0000
     6 C1       2.7912   5.5702   3.5073   C.ar      1 RES1   0.0000
     7 C2       6.0810   2.6195   3.2410   C.ar      1 RES1   0.0000
     8 C3       3.3023   6.1666  -1.2788   C.1       1 RES1   0.0000
     9 N3       4.8055   2.7621   2.6201   N.2       1 RES1   0.0000
    10 C4       5.0306   6.0797   3.1375   C.2       1 RES1   0.0000
    11 H1       5.0102   6.5805   3.9329   H         1 RES1   0.0000
    12 C5       3.7776   2.1998   3.1189   C.2       1 RES1   0.0000
    13 H2       3.8489   1.6773   3.8956   H         1 RES1   0.0000
    14 N4       6.1862   5.2130   1.2593   N.ar      1 RES1   0.0000
    15 N5       5.1760   2.9248  -0.4460   N.2       1 RES1   0.0000
    16 C6       2.4838   2.3807   2.4591   C.ar      1 RES1   0.0000
    17 C7       0.4202   5.8409   3.6005   C.ar      1 RES1   0.0000
    18 H3      -0.4043   5.9900   3.1748   H         1 RES1   0.0000
    19 C8       1.5904   5.7816   2.8594   C.ar      1 RES1   0.0000
    20 H4       1.5668   5.8858   1.9266   H         1 RES1   0.0000
    21 C9       0.4781   5.6789   4.9607   C.ar      1 RES1   0.0000
    22 C10      1.3804   3.2606   0.6512   C.ar      1 RES1   0.0000
    23 H5       1.3934   3.7570  -0.1475   H         1 RES1   0.0000
    24 C11      7.1491   2.2808   2.4320   C.ar      1 RES1   0.0000
    25 H6       7.0081   2.1013   1.5196   H         1 RES1   0.0000
    26 C12      5.8035   2.1419  -1.0142   C.1       1 RES1   0.0000
    27 C13      1.6597   5.4618   5.6018   C.ar      1 RES1   0.0000
    28 H7       1.6832   5.3561   6.5345   H         1 RES1   0.0000
    29 C14      6.2991   2.9060   4.5723   C.ar      1 RES1   0.0000
    30 H8       5.5831   3.1535   5.1286   H         1 RES1   0.0000
    31 C15      6.2672   5.9683   2.3676   C.ar      1 RES1   0.0000
    32 C16      7.5962   2.8250   5.0879   C.ar      1 RES1   0.0000
    33 H9       7.7557   3.0145   5.9935   H         1 RES1   0.0000
    34 N6      10.1591   2.2229   5.8324   N.2       1 RES1   0.0000
    35 C17     14.1719   1.7034   7.0874   C.ar      1 RES1   0.0000
    36 H10     15.0450   1.5543   7.3978   H         1 RES1   0.0000
    37 N7       3.4950   5.4343  -0.4002   N.2       1 RES1   0.0000
    38 C18      1.3234   1.8076   2.9357   C.ar      1 RES1   0.0000
    39 H11      1.3256   1.3097   3.7328   H         1 RES1   0.0000
    40 C19      8.6318   2.4689   4.2653   C.ar      1 RES1   0.0000
    41 N8      10.0969   2.3532   4.6639   N.2       1 RES1   0.0000
    42 N9      -1.5735   5.7208   5.3219   N.2       1 RES1   0.0000
    43 N10     -0.7218   5.8134   6.0291   N.2       1 RES1   0.0000
    44 C20      0.1828   2.7048   1.0617   C.ar      1 RES1   0.0000
    45 H12     -0.5981   2.8221   0.5546   H         1 RES1   0.0000
    46 C21     11.6253   2.0666   6.2106   C.ar      1 RES1   0.0000
    47 C22      8.4124   2.2041   2.9578   C.ar      1 RES1   0.0000
    48 H13      9.1343   1.9653   2.4032   H         1 RES1   0.0000
    49 C23      2.8063   5.4010   4.8759   C.ar      1 RES1   0.0000
    50 H14      3.6242   5.2418   5.3135   H         1 RES1   0.0000
    51 C24      0.1565   1.9812   2.2183   C.ar      1 RES1   0.0000
    52 H15     -0.6501   1.6050   2.5236   H         1 RES1   0.0000
    53 C25     12.6731   2.3445   5.3575   C.ar      1 RES1   0.0000
    54 H16     12.5133   2.6527   4.4841   H         1 RES1   0.0000
    55 C26      7.2728   5.1231   0.5071   C.ar      1 RES1   0.0000
    56 H17      7.2338   4.6094  -0.2798   H         1 RES1   0.0000
    57 C27     13.1249   1.4617   7.8981   C.ar      1 RES1   0.0000
    58 H18     13.2784   1.1592   8.7749   H         1 RES1   0.0000
    59 C28     13.9758   2.1578   5.8256   C.ar      1 RES1   0.0000
    60 H19     14.7114   2.3445   5.2694   H         1 RES1   0.0000
    61 C29     -2.8304   5.9162   6.2988   C.ar      1 RES1   0.0000
    62 C30     11.8474   1.6484   7.4673   C.ar      1 RES1   0.0000
    63 H20     11.1256   1.4863   8.0473   H         1 RES1   0.0000
    64 C31      8.4522   5.7454   0.8242   C.ar      1 RES1   0.0000
    65 H21      9.1976   5.6644   0.2561   H         1 RES1   0.0000
    66 C32      7.4243   6.6036   2.7627   C.ar      1 RES1   0.0000
    67 H22      7.4509   7.1087   3.5564   H         1 RES1   0.0000
    68 C33     -5.1796   6.3243   7.6386   C.ar      1 RES1   0.0000
    69 H23     -6.0024   6.4589   8.0745   H         1 RES1   0.0000
    70 C34     -3.9902   5.6412   5.7035   C.ar      1 RES1   0.0000
    71 H24     -4.0000   5.3156   4.8216   H         1 RES1   0.0000
    72 C35     -5.1500   5.8323   6.3633   C.ar      1 RES1   0.0000
    73 H25     -5.9608   5.6224   5.9359   H         1 RES1   0.0000
    74 C36     -3.9998   6.6210   8.2831   C.ar      1 RES1   0.0000
    75 H26     -4.0019   6.9596   9.1599   H         1 RES1   0.0000
    76 C37     -2.7841   6.4039   7.5945   C.ar      1 RES1   0.0000
    77 H27     -1.9604   6.5891   8.0083   H         1 RES1   0.0000
    78 C38      8.5384   6.4821   1.9690   C.ar      1 RES1   0.0000
    79 H28      9.3457   6.8989   2.2098   H         1 RES1   0.0000
@<TRIPOS>BOND
     1     1     4    1
     2     2     8    2
     3     3    26    2
     4     4    16   ar
     5     5     1    1
     6     6     5    1
     7     7     9    1
     8     8    37    2
     9     9     1    1
    10    10     5    2
    11    11    10    1
    12    12     9    2
    13    13    12    1
    14    14     1    1
    15    15     1    1
    16    16    12    1
    17    17    18    1
    18    19     6   ar
    19    20    19    1
    20    21    17   ar
    21    22     4   ar
    22    23    22    1
    23    24     7   ar
    24    25    24    1
    25    26    15    2
    26    27    21   ar
    27    28    27    1
    28    29     7   ar
    29    30    29    1
    30    31    10    1
    31    32    29   ar
    32    33    32    1
    33    34    41    2
    34    35    36    1
    35    37     1    1
    36    38    16   ar
    37    39    38    1
    38    40    32   ar
    39    41    40    1
    40    42    43    2
    41    43    21    1
    42    44    22   ar
    43    45    44    1
    44    46    34    1
    45    47    24   ar
    46    48    47    1
    47    49     6   ar
    48    50    49    1
    49    51    38   ar
    50    52    51    1
    51    53    46   ar
    52    54    53    1
    53    55    14   ar
    54    56    55    1
    55    57    35   ar
    56    58    57    1
    57    59    35   ar
    58    60    59    1
    59    61    42    1
    60    62    46   ar
    61    63    62    1
    62    64    55   ar
    63    65    64    1
    64    66    31   ar
    65    67    66    1
    66    68    69    1
    67    70    61   ar
    68    71    70    1
    69    72    68   ar
    70    73    72    1
    71    74    68   ar
    72    75    74    1
    73    76    61   ar
    74    77    76    1
    75    78    64   ar
    76    79    78    1
    77    14    31   ar
    78    17    19   ar
    79    27    49   ar
    80    40    47   ar
    81    44    51   ar
    82    53    59   ar
    83    57    62   ar
    84    66    78   ar
    85    70    72   ar
    86    74    76   ar
@<TRIPOS>SUBSTRUCTURE
     1 RES1        1 GROUP             0 ****  ****    0  
@<TRIPOS>CRYSIN
   15.1081   14.4721   16.9844   90.0000   93.0950   90.0000    14     1
