@<TRIPOS>MOLECULE
XECNAU19
    79    86     1     0     0
SMALL
NO_CHARGES
****
Generated from the CSD

@<TRIPOS>ATOM
     1 Fe1      4.3340   4.1041   1.1044   Fe        1 RES1   0.0000
     2 S1       3.0414   7.0389  -2.3865   S.2       1 RES1   0.0000
     3 S2       6.4658   1.0733  -1.8060   S.2       1 RES1   0.0000
     4 N1       2.6011   3.1552   1.3329   N.ar      1 RES1   0.0000
     5 N2       3.9588   5.4056   2.6136   N.2       1 RES1   0.0000
     6 C1       2.7574   5.4958   3.3984   C.ar      1 RES1   0.0000
     7 C2       6.1185   2.6660   3.1589   C.ar      1 RES1   0.0000
     8 C3       3.3917   6.0179  -1.1483   C.1       1 RES1   0.0000
     9 N3       4.8117   2.8142   2.5786   N.2       1 RES1   0.0000
    10 C4       4.9829   6.0741   3.0033   C.2       1 RES1   0.0000
    11 H1       4.9441   6.6404   3.7652   H         1 RES1   0.0000
    12 C5       3.8138   2.1919   3.0946   C.2       1 RES1   0.0000
    13 H2       3.9097   1.6457   3.8671   H         1 RES1   0.0000
    14 N4       6.0830   5.0747   1.1937   N.ar      1 RES1   0.0000
    15 N5       4.9873   2.8664  -0.2547   N.2       1 RES1   0.0000
    16 C6       2.5264   2.3677   2.4316   C.ar      1 RES1   0.0000
    17 C7       0.3869   5.7959   3.4865   C.ar      1 RES1   0.0000
    18 H3      -0.4436   5.9516   3.0509   H         1 RES1   0.0000
    19 C8       1.5556   5.7239   2.7540   C.ar      1 RES1   0.0000
    20 H4       1.5347   5.8320   1.8109   H         1 RES1   0.0000
    21 C9       0.4391   5.6374   4.8568   C.ar      1 RES1   0.0000
    22 C10      1.4980   3.2871   0.5943   C.ar      1 RES1   0.0000
    23 H5       1.5380   3.8145  -0.1953   H         1 RES1   0.0000
    24 C11      7.1572   2.2740   2.3292   C.ar      1 RES1   0.0000
    25 H6       6.9900   2.0622   1.4186   H         1 RES1   0.0000
    26 C12      5.5860   2.1198  -0.9141   C.1       1 RES1   0.0000
    27 C13      1.6328   5.4184   5.4960   C.ar      1 RES1   0.0000
    28 H7       1.6573   5.3262   6.4406   H         1 RES1   0.0000
    29 C14      6.3549   2.9743   4.4829   C.ar      1 RES1   0.0000
    30 H8       5.6420   3.2453   5.0470   H         1 RES1   0.0000
    31 C15      6.2027   5.9300   2.2299   C.ar      1 RES1   0.0000
    32 C16      7.6517   2.8821   4.9813   C.ar      1 RES1   0.0000
    33 H9       7.8236   3.0940   5.8915   H         1 RES1   0.0000
    34 N6      10.2244   2.2220   5.7814   N.2       1 RES1   0.0000
    35 C17     14.2043   1.6630   6.9864   C.ar      1 RES1   0.0000
    36 H10     15.0951   1.4958   7.2718   H         1 RES1   0.0000
    37 N7       3.6462   5.3175  -0.2599   N.2       1 RES1   0.0000
    38 C18      1.3575   1.7581   2.8396   C.ar      1 RES1   0.0000
    39 H11      1.3363   1.2307   3.6284   H         1 RES1   0.0000
    40 C19      8.6885   2.4844   4.1608   C.ar      1 RES1   0.0000
    41 N8      10.0710   2.3478   4.5528   N.2       1 RES1   0.0000
    42 N9      -1.7337   5.6700   5.1550   N.2       1 RES1   0.0000
    43 N10     -0.7192   5.7485   5.8011   N.2       1 RES1   0.0000
    44 C20      0.3017   2.6861   0.9313   C.ar      1 RES1   0.0000
    45 H12     -0.4600   2.7942   0.3722   H         1 RES1   0.0000
    46 C21     11.6214   2.0708   6.1502   C.ar      1 RES1   0.0000
    47 C22      8.4413   2.1947   2.8406   C.ar      1 RES1   0.0000
    48 H13      9.1591   1.9382   2.2732   H         1 RES1   0.0000
    49 C23      2.7866   5.3334   4.7666   C.ar      1 RES1   0.0000
    50 H14      3.6113   5.1619   5.2056   H         1 RES1   0.0000
    51 C24      0.2172   1.9339   2.0762   C.ar      1 RES1   0.0000
    52 H15     -0.6072   1.5419   2.3383   H         1 RES1   0.0000
    53 C25     12.6748   2.3446   5.2824   C.ar      1 RES1   0.0000
    54 H16     12.5044   2.6602   4.4028   H         1 RES1   0.0000
    55 C26      7.1352   4.9414   0.3855   C.ar      1 RES1   0.0000
    56 H17      7.0577   4.3679  -0.3672   H         1 RES1   0.0000
    57 C27     13.1620   1.4223   7.8326   C.ar      1 RES1   0.0000
    58 H18     13.3293   1.1067   8.7138   H         1 RES1   0.0000
    59 C28     13.9715   2.1472   5.7213   C.ar      1 RES1   0.0000
    60 H19     14.7029   2.3460   5.1472   H         1 RES1   0.0000
    61 C29     -2.9529   5.8478   6.0234   C.ar      1 RES1   0.0000
    62 C30     11.8688   1.6356   7.4153   C.ar      1 RES1   0.0000
    63 H20     11.1468   1.4785   8.0112   H         1 RES1   0.0000
    64 C31      8.3170   5.5913   0.5908   C.ar      1 RES1   0.0000
    65 H21      9.0393   5.4688  -0.0134   H         1 RES1   0.0000
    66 C32      7.3750   6.6073   2.5218   C.ar      1 RES1   0.0000
    67 H22      7.4373   7.1794   3.2779   H         1 RES1   0.0000
    68 C33     -5.2805   6.2787   7.3986   C.ar      1 RES1   0.0000
    69 H23     -6.1022   6.4199   7.8526   H         1 RES1   0.0000
    70 C34     -4.1175   5.6288   5.4042   C.ar      1 RES1   0.0000
    71 H24     -4.1380   5.3348   4.5013   H         1 RES1   0.0000
    72 C35     -5.2817   5.8377   6.1002   C.ar      1 RES1   0.0000
    73 H25     -6.1128   5.6720   5.6696   H         1 RES1   0.0000
    74 C36     -4.0900   6.5150   8.0429   C.ar      1 RES1   0.0000
    75 H26     -4.0813   6.8205   8.9408   H         1 RES1   0.0000
    76 C37     -2.8777   6.2946   7.3452   C.ar      1 RES1   0.0000
    77 H27     -2.0384   6.4473   7.7641   H         1 RES1   0.0000
    78 C38      8.4565   6.4214   1.6723   C.ar      1 RES1   0.0000
    79 H28      9.2810   6.8638   1.8392   H         1 RES1   0.0000
@<TRIPOS>BOND
     1     1     4    1
     2     2     8    2
     3     3    26    2
     4     4    16   ar
     5     5     1    1
     6     6     5    1
     7     7     9    1
     8     8    37    2
     9     9     1    1
    10    10     5    2
    11    11    10    1
    12    12     9    2
    13    13    12    1
    14    14     1    1
    15    15     1    1
    16    16    12    1
    17    17    18    1
    18    19     6   ar
    19    20    19    1
    20    21    17   ar
    21    22     4   ar
    22    23    22    1
    23    24     7   ar
    24    25    24    1
    25    26    15    2
    26    27    21   ar
    27    28    27    1
    28    29     7   ar
    29    30    29    1
    30    31    10    1
    31    32    29   ar
    32    33    32    1
    33    34    41    2
    34    35    36    1
    35    37     1    1
    36    38    16   ar
    37    39    38    1
    38    40    32   ar
    39    41    40    1
    40    42    43    2
    41    43    21    1
    42    44    22   ar
    43    45    44    1
    44    46    34    1
    45    47    24   ar
    46    48    47    1
    47    49     6   ar
    48    50    49    1
    49    51    38   ar
    50    52    51    1
    51    53    46   ar
    52    54    53    1
    53    55    14   ar
    54    56    55    1
    55    57    35   ar
    56    58    57    1
    57    59    35   ar
    58    60    59    1
    59    61    42    1
    60    62    46   ar
    61    63    62    1
    62    64    55   ar
    63    65    64    1
    64    66    31   ar
    65    67    66    1
    66    68    69    1
    67    70    61   ar
    68    71    70    1
    69    72    68   ar
    70    73    72    1
    71    74    68   ar
    72    75    74    1
    73    76    61   ar
    74    77    76    1
    75    78    64   ar
    76    79    78    1
    77    14    31   ar
    78    17    19   ar
    79    27    49   ar
    80    40    47   ar
    81    44    51   ar
    82    53    59   ar
    83    57    62   ar
    84    66    78   ar
    85    70    72   ar
    86    74    76   ar
@<TRIPOS>SUBSTRUCTURE
     1 RES1        1 GROUP             0 ****  ****    0  
@<TRIPOS>CRYSIN
   15.0294   14.4106   16.7098   90.0000   92.7960   90.0000    14     1
