@<TRIPOS>MOLECULE
XECNAU31
    79    86     1     0     0
SMALL
NO_CHARGES
****
Generated from the CSD

@<TRIPOS>ATOM
     1 Fe1      4.3387   4.1484   0.9681   Fe        1 RES1   0.0000
     2 S1       3.0017   7.1859  -2.4816   S.2       1 RES1   0.0000
     3 S2       6.6720   1.0535  -1.8029   S.2       1 RES1   0.0000
     4 N1       2.5200   3.1236   1.3360   N.ar      1 RES1   0.0000
     5 N2       3.9720   5.4816   2.7060   N.2       1 RES1   0.0000
     6 C1       2.7848   5.5572   3.5046   C.ar      1 RES1   0.0000
     7 C2       6.0809   2.6225   3.2303   C.ar      1 RES1   0.0000
     8 C3       3.2963   6.1467  -1.2698   C.1       1 RES1   0.0000
     9 N3       4.8024   2.7633   2.6142   N.2       1 RES1   0.0000
    10 C4       5.0241   6.0716   3.1202   C.2       1 RES1   0.0000
    11 H1       5.0038   6.5730   3.9143   H         1 RES1   0.0000
    12 C5       3.7803   2.1992   3.1185   C.2       1 RES1   0.0000
    13 H2       3.8529   1.6790   3.8973   H         1 RES1   0.0000
    14 N4       6.1759   5.1989   1.2510   N.ar      1 RES1   0.0000
    15 N5       5.1515   2.9144  -0.4317   N.2       1 RES1   0.0000
    16 C6       2.4846   2.3784   2.4583   C.ar      1 RES1   0.0000
    17 C7       0.4191   5.8245   3.5790   C.ar      1 RES1   0.0000
    18 H3      -0.4012   5.9676   3.1439   H         1 RES1   0.0000
    19 C8       1.5903   5.7711   2.8595   C.ar      1 RES1   0.0000
    20 H4       1.5744   5.8823   1.9267   H         1 RES1   0.0000
    21 C9       0.4663   5.6670   4.9385   C.ar      1 RES1   0.0000
    22 C10      1.3822   3.2627   0.6518   C.ar      1 RES1   0.0000
    23 H5       1.3934   3.7669  -0.1405   H         1 RES1   0.0000
    24 C11      7.1526   2.2815   2.4244   C.ar      1 RES1   0.0000
    25 H6       7.0102   2.0966   1.5136   H         1 RES1   0.0000
    26 C12      5.7852   2.1385  -1.0107   C.1       1 RES1   0.0000
    27 C13      1.6538   5.4517   5.5904   C.ar      1 RES1   0.0000
    28 H7       1.6726   5.3491   6.5249   H         1 RES1   0.0000
    29 C14      6.2955   2.9115   4.5644   C.ar      1 RES1   0.0000
    30 H8       5.5786   3.1601   5.1197   H         1 RES1   0.0000
    31 C15      6.2550   5.9603   2.3567   C.ar      1 RES1   0.0000
    32 C16      7.5979   2.8306   5.0740   C.ar      1 RES1   0.0000
    33 H9       7.7587   3.0213   5.9797   H         1 RES1   0.0000
    34 N6      10.1715   2.2165   5.8325   N.2       1 RES1   0.0000
    35 C17     14.1753   1.6906   7.0819   C.ar      1 RES1   0.0000
    36 H10     15.0476   1.5345   7.3934   H         1 RES1   0.0000
    37 N7       3.5022   5.4199  -0.3894   N.2       1 RES1   0.0000
    38 C18      1.3255   1.8018   2.9272   C.ar      1 RES1   0.0000
    39 H11      1.3308   1.2990   3.7213   H         1 RES1   0.0000
    40 C19      8.6401   2.4723   4.2546   C.ar      1 RES1   0.0000
    41 N8      10.0815   2.3538   4.6507   N.2       1 RES1   0.0000
    42 N9      -1.5901   5.7075   5.3059   N.2       1 RES1   0.0000
    43 N10     -0.7162   5.8014   6.0068   N.2       1 RES1   0.0000
    44 C20      0.1917   2.6962   1.0598   C.ar      1 RES1   0.0000
    45 H12     -0.5866   2.8075   0.5452   H         1 RES1   0.0000
    46 C21     11.6169   2.0648   6.2100   C.ar      1 RES1   0.0000
    47 C22      8.4214   2.2093   2.9408   C.ar      1 RES1   0.0000
    48 H13      9.1430   1.9781   2.3838   H         1 RES1   0.0000
    49 C23      2.8024   5.3881   4.8691   C.ar      1 RES1   0.0000
    50 H14      3.6196   5.2292   5.3059   H         1 RES1   0.0000
    51 C24      0.1534   1.9767   2.2128   C.ar      1 RES1   0.0000
    52 H15     -0.6541   1.6039   2.5175   H         1 RES1   0.0000
    53 C25     12.6734   2.3422   5.3499   C.ar      1 RES1   0.0000
    54 H16     12.5139   2.6486   4.4747   H         1 RES1   0.0000
    55 C26      7.2602   5.1064   0.4927   C.ar      1 RES1   0.0000
    56 H17      7.2182   4.5905  -0.2929   H         1 RES1   0.0000
    57 C27     13.1202   1.4536   7.8878   C.ar      1 RES1   0.0000
    58 H18     13.2720   1.1516   8.7648   H         1 RES1   0.0000
    59 C28     13.9766   2.1573   5.8155   C.ar      1 RES1   0.0000
    60 H19     14.7116   2.3523   5.2619   H         1 RES1   0.0000
    61 C29     -2.8376   5.9069   6.2930   C.ar      1 RES1   0.0000
    62 C30     11.8450   1.6414   7.4611   C.ar      1 RES1   0.0000
    63 H20     11.1251   1.4753   8.0435   H         1 RES1   0.0000
    64 C31      8.4434   5.7349   0.8059   C.ar      1 RES1   0.0000
    65 H21      9.1882   5.6555   0.2370   H         1 RES1   0.0000
    66 C32      7.4196   6.5903   2.7359   C.ar      1 RES1   0.0000
    67 H22      7.4505   7.0946   3.5299   H         1 RES1   0.0000
    68 C33     -5.1904   6.3158   7.6186   C.ar      1 RES1   0.0000
    69 H23     -6.0126   6.4473   8.0554   H         1 RES1   0.0000
    70 C34     -4.0026   5.6323   5.6716   C.ar      1 RES1   0.0000
    71 H24     -4.0092   5.3087   4.7896   H         1 RES1   0.0000
    72 C35     -5.1621   5.8317   6.3437   C.ar      1 RES1   0.0000
    73 H25     -5.9753   5.6309   5.9154   H         1 RES1   0.0000
    74 C36     -4.0130   6.6091   8.2619   C.ar      1 RES1   0.0000
    75 H26     -4.0212   6.9487   9.1389   H         1 RES1   0.0000
    76 C37     -2.7931   6.3938   7.5898   C.ar      1 RES1   0.0000
    77 H27     -1.9719   6.5773   8.0097   H         1 RES1   0.0000
    78 C38      8.5296   6.4747   1.9470   C.ar      1 RES1   0.0000
    79 H28      9.3348   6.8952   2.1857   H         1 RES1   0.0000
@<TRIPOS>BOND
     1     1     4    1
     2     2     8    2
     3     3    26    2
     4     4    16   ar
     5     5     1    1
     6     6     5    1
     7     7     9    1
     8     8    37    2
     9     9     1    1
    10    10     5    2
    11    11    10    1
    12    12     9    2
    13    13    12    1
    14    14     1    1
    15    15     1    1
    16    16    12    1
    17    17    18    1
    18    19     6   ar
    19    20    19    1
    20    21    17   ar
    21    22     4   ar
    22    23    22    1
    23    24     7   ar
    24    25    24    1
    25    26    15    2
    26    27    21   ar
    27    28    27    1
    28    29     7   ar
    29    30    29    1
    30    31    10    1
    31    32    29   ar
    32    33    32    1
    33    34    41    2
    34    35    36    1
    35    37     1    1
    36    38    16   ar
    37    39    38    1
    38    40    32   ar
    39    41    40    1
    40    42    43    2
    41    43    21    1
    42    44    22   ar
    43    45    44    1
    44    46    34    1
    45    47    24   ar
    46    48    47    1
    47    49     6   ar
    48    50    49    1
    49    51    38   ar
    50    52    51    1
    51    53    46   ar
    52    54    53    1
    53    55    14   ar
    54    56    55    1
    55    57    35   ar
    56    58    57    1
    57    59    35   ar
    58    60    59    1
    59    61    42    1
    60    62    46   ar
    61    63    62    1
    62    64    55   ar
    63    65    64    1
    64    66    31   ar
    65    67    66    1
    66    68    69    1
    67    70    61   ar
    68    71    70    1
    69    72    68   ar
    70    73    72    1
    71    74    68   ar
    72    75    74    1
    73    76    61   ar
    74    77    76    1
    75    78    64   ar
    76    79    78    1
    77    14    31   ar
    78    17    19   ar
    79    27    49   ar
    80    40    47   ar
    81    44    51   ar
    82    53    59   ar
    83    57    62   ar
    84    66    78   ar
    85    70    72   ar
    86    74    76   ar
@<TRIPOS>SUBSTRUCTURE
     1 RES1        1 GROUP             0 ****  ****    0  
@<TRIPOS>CRYSIN
   15.0961   14.4493   16.9550   90.0000   93.0990   90.0000    14     1
