@<TRIPOS>MOLECULE
XECNAU34
    79    86     1     0     0
SMALL
NO_CHARGES
****
Generated from the CSD

@<TRIPOS>ATOM
     1 Fe1      4.3626   4.1788   0.9433   Fe        1 RES1   0.0000
     2 S1       2.9841   7.2177  -2.4938   S.2       1 RES1   0.0000
     3 S2       6.6997   1.0573  -1.8076   S.2       1 RES1   0.0000
     4 N1       2.5267   3.1369   1.3297   N.ar      1 RES1   0.0000
     5 N2       3.9927   5.5192   2.7282   N.2       1 RES1   0.0000
     6 C1       2.7967   5.5967   3.5109   C.ar      1 RES1   0.0000
     7 C2       6.0910   2.6284   3.2526   C.ar      1 RES1   0.0000
     8 C3       3.2970   6.1837  -1.2864   C.1       1 RES1   0.0000
     9 N3       4.8181   2.7707   2.6185   N.2       1 RES1   0.0000
    10 C4       5.0476   6.0994   3.1421   C.2       1 RES1   0.0000
    11 H1       5.0272   6.5948   3.9306   H         1 RES1   0.0000
    12 C5       3.7868   2.2172   3.1115   C.2       1 RES1   0.0000
    13 H2       3.8518   1.7057   3.8864   H         1 RES1   0.0000
    14 N4       6.2115   5.2465   1.2745   N.ar      1 RES1   0.0000
    15 N5       5.2069   2.9480  -0.4605   N.2       1 RES1   0.0000
    16 C6       2.4928   2.3930   2.4471   C.ar      1 RES1   0.0000
    17 C7       0.4361   5.8582   3.5789   C.ar      1 RES1   0.0000
    18 H3      -0.3758   5.9991   3.1489   H         1 RES1   0.0000
    19 C8       1.6031   5.8001   2.8634   C.ar      1 RES1   0.0000
    20 H4       1.5867   5.9003   1.9390   H         1 RES1   0.0000
    21 C9       0.4824   5.7028   4.9400   C.ar      1 RES1   0.0000
    22 C10      1.3881   3.2735   0.6560   C.ar      1 RES1   0.0000
    23 H5       1.3978   3.7674  -0.1309   H         1 RES1   0.0000
    24 C11      7.1652   2.2927   2.4607   C.ar      1 RES1   0.0000
    25 H6       7.0329   2.1140   1.5566   H         1 RES1   0.0000
    26 C12      5.8290   2.1576  -1.0213   C.1       1 RES1   0.0000
    27 C13      1.6664   5.4950   5.5960   C.ar      1 RES1   0.0000
    28 H7       1.6828   5.3991   6.5204   H         1 RES1   0.0000
    29 C14      6.2869   2.9102   4.5866   C.ar      1 RES1   0.0000
    30 H8       5.5733   3.1485   5.1321   H         1 RES1   0.0000
    31 C15      6.2832   5.9890   2.3859   C.ar      1 RES1   0.0000
    32 C16      7.5798   2.8332   5.0981   C.ar      1 RES1   0.0000
    33 H9       7.7322   3.0250   5.9953   H         1 RES1   0.0000
    34 N6      10.1586   2.2361   5.8254   N.2       1 RES1   0.0000
    35 C17     14.1701   1.7145   7.1084   C.ar      1 RES1   0.0000
    36 H10     15.0300   1.5677   7.4313   H         1 RES1   0.0000
    37 N7       3.5125   5.4630  -0.4112   N.2       1 RES1   0.0000
    38 C18      1.3397   1.8234   2.9263   C.ar      1 RES1   0.0000
    39 H11      1.3466   1.3294   3.7148   H         1 RES1   0.0000
    40 C19      8.6305   2.4772   4.2943   C.ar      1 RES1   0.0000
    41 N8      10.1267   2.3567   4.6783   N.2       1 RES1   0.0000
    42 N9      -1.5316   5.7492   5.3173   N.2       1 RES1   0.0000
    43 N10     -0.7344   5.8437   6.0565   N.2       1 RES1   0.0000
    44 C20      0.1936   2.7184   1.0621   C.ar      1 RES1   0.0000
    45 H12     -0.5813   2.8376   0.5608   H         1 RES1   0.0000
    46 C21     11.6387   2.0748   6.1993   C.ar      1 RES1   0.0000
    47 C22      8.4227   2.2186   2.9858   C.ar      1 RES1   0.0000
    48 H13      9.1394   1.9876   2.4386   H         1 RES1   0.0000
    49 C23      2.8157   5.4311   4.8721   C.ar      1 RES1   0.0000
    50 H14      3.6230   5.2727   5.3054   H         1 RES1   0.0000
    51 C24      0.1707   1.9963   2.2143   C.ar      1 RES1   0.0000
    52 H15     -0.6254   1.6229   2.5185   H         1 RES1   0.0000
    53 C25     12.7035   2.3436   5.3564   C.ar      1 RES1   0.0000
    54 H16     12.5588   2.6385   4.4863   H         1 RES1   0.0000
    55 C26      7.3015   5.1594   0.5319   C.ar      1 RES1   0.0000
    56 H17      7.2687   4.6595  -0.2532   H         1 RES1   0.0000
    57 C27     13.1234   1.4863   7.8935   C.ar      1 RES1   0.0000
    58 H18     13.2619   1.1958   8.7670   H         1 RES1   0.0000
    59 C28     13.9979   2.1620   5.8407   C.ar      1 RES1   0.0000
    60 H19     14.7324   2.3436   5.3003   H         1 RES1   0.0000
    61 C29     -2.7987   5.9439   6.3556   C.ar      1 RES1   0.0000
    62 C30     11.8647   1.6665   7.4483   C.ar      1 RES1   0.0000
    63 H20     11.1470   1.5052   8.0159   H         1 RES1   0.0000
    64 C31      8.4838   5.7812   0.8769   C.ar      1 RES1   0.0000
    65 H21      9.2309   5.7028   0.3263   H         1 RES1   0.0000
    66 C32      7.4336   6.6166   2.7920   C.ar      1 RES1   0.0000
    67 H22      7.4495   7.1092   3.5805   H         1 RES1   0.0000
    68 C33     -5.1505   6.3493   7.6641   C.ar      1 RES1   0.0000
    69 H23     -5.9668   6.4786   8.0923   H         1 RES1   0.0000
    70 C34     -3.9543   5.6766   5.7336   C.ar      1 RES1   0.0000
    71 H24     -3.9536   5.3671   4.8568   H         1 RES1   0.0000
    72 C35     -5.1228   5.8597   6.3896   C.ar      1 RES1   0.0000
    73 H25     -5.9229   5.6475   5.9665   H         1 RES1   0.0000
    74 C36     -3.9856   6.6501   8.3099   C.ar      1 RES1   0.0000
    75 H26     -3.9994   6.9871   9.1765   H         1 RES1   0.0000
    76 C37     -2.7699   6.4423   7.6454   C.ar      1 RES1   0.0000
    77 H27     -1.9602   6.6355   8.0618   H         1 RES1   0.0000
    78 C38      8.5537   6.5077   2.0188   C.ar      1 RES1   0.0000
    79 H28      9.3478   6.9218   2.2703   H         1 RES1   0.0000
@<TRIPOS>BOND
     1     1     4    1
     2     2     8    2
     3     3    26    2
     4     4    16   ar
     5     5     1    1
     6     6     5    1
     7     7     9    1
     8     8    37    2
     9     9     1    1
    10    10     5    2
    11    11    10    1
    12    12     9    2
    13    13    12    1
    14    14     1    1
    15    15     1    1
    16    16    12    1
    17    17    18    1
    18    19     6   ar
    19    20    19    1
    20    21    17   ar
    21    22     4   ar
    22    23    22    1
    23    24     7   ar
    24    25    24    1
    25    26    15    2
    26    27    21   ar
    27    28    27    1
    28    29     7   ar
    29    30    29    1
    30    31    10    1
    31    32    29   ar
    32    33    32    1
    33    34    41    2
    34    35    36    1
    35    37     1    1
    36    38    16   ar
    37    39    38    1
    38    40    32   ar
    39    41    40    1
    40    42    43    2
    41    43    21    1
    42    44    22   ar
    43    45    44    1
    44    46    34    1
    45    47    24   ar
    46    48    47    1
    47    49     6   ar
    48    50    49    1
    49    51    38   ar
    50    52    51    1
    51    53    46   ar
    52    54    53    1
    53    55    14   ar
    54    56    55    1
    55    57    35   ar
    56    58    57    1
    57    59    35   ar
    58    60    59    1
    59    61    42    1
    60    62    46   ar
    61    63    62    1
    62    64    55   ar
    63    65    64    1
    64    66    31   ar
    65    67    66    1
    66    68    69    1
    67    70    61   ar
    68    71    70    1
    69    72    68   ar
    70    73    72    1
    71    74    68   ar
    72    75    74    1
    73    76    61   ar
    74    77    76    1
    75    78    64   ar
    76    79    78    1
    77    14    31   ar
    78    17    19   ar
    79    27    49   ar
    80    40    47   ar
    81    44    51   ar
    82    53    59   ar
    83    57    62   ar
    84    66    78   ar
    85    70    72   ar
    86    74    76   ar
@<TRIPOS>SUBSTRUCTURE
     1 RES1        1 GROUP             0 ****  ****    0  
@<TRIPOS>CRYSIN
   15.1186   14.5293   17.0171   90.0000   93.0120   90.0000    14     1
