@<TRIPOS>MOLECULE
XEFDER
    94   102     2     0     0
SMALL
USER_CHARGES
****
Generated from the CSD

@<TRIPOS>ATOM
     1 Fe1      0.0000   0.0000   0.0000   Fe        1 RES1   2.0000
     2 N1      -0.9343   0.1467  -1.9363   N.ar      1 RES1   0.0000
     3 N2      -1.0588  -1.0206  -2.6504   N.ar      1 RES1   0.0000
     4 N3       1.2386  -1.5211  -0.9489   N.ar      1 RES1   0.0000
     5 N4       0.5652  -2.4762  -1.6696   N.ar      1 RES1   0.0000
     6 N5      -1.4163  -1.6272   0.2946   N.ar      1 RES1   0.0000
     7 N6      -1.6607  -2.4189  -0.7996   N.ar      1 RES1   0.0000
     8 C1      -1.3697  -0.7886  -3.9456   C.ar      1 RES1   0.0000
     9 C2      -1.4628   0.5670  -4.0590   C.ar      1 RES1   0.0000
    10 H1      -1.6655   1.0394  -4.8342   H         1 RES1   0.0000
    11 C3      -1.2014   1.1143  -2.8149   C.ar      1 RES1   0.0000
    12 C4      -1.5838  -1.8654  -4.9542   C.3       1 RES1   0.0000
    13 H2      -1.4562  -2.7217  -4.5407   H         1 RES1   0.0000
    14 H3      -0.9584  -1.7593  -5.6741   H         1 RES1   0.0000
    15 H4      -2.4789  -1.8072  -5.2975   H         1 RES1   0.0000
    16 C5      -1.2028   2.5594  -2.4328   C.3       1 RES1   0.0000
    17 H5      -0.9913   2.6437  -1.4988   H         1 RES1   0.0000
    18 H6      -2.0714   2.9329  -2.5971   H         1 RES1   0.0000
    19 H7      -0.5486   3.0296  -2.9533   H         1 RES1   0.0000
    20 C6       1.3706  -3.5145  -2.0156   C.ar      1 RES1   0.0000
    21 C7       2.6134  -3.2096  -1.5117   C.ar      1 RES1   0.0000
    22 H8       3.3858  -3.7194  -1.5948   H         1 RES1   0.0000
    23 C8       2.4897  -1.9872  -0.8546   C.ar      1 RES1   0.0000
    24 C9       0.8957  -4.6953  -2.7724   C.3       1 RES1   0.0000
    25 H9      -0.0274  -4.5726  -3.0124   H         1 RES1   0.0000
    26 H10      0.9817  -5.4808  -2.2261   H         1 RES1   0.0000
    27 H11      1.4214  -4.7994  -3.5680   H         1 RES1   0.0000
    28 C10      3.5651  -1.2204  -0.1514   C.3       1 RES1   0.0000
    29 H12      4.3865  -1.7156  -0.1883   H         1 RES1   0.0000
    30 H13      3.3137  -1.0841   0.7642   H         1 RES1   0.0000
    31 H14      3.6852  -0.3704  -0.5814   H         1 RES1   0.0000
    32 C11     -2.6929  -3.2814  -0.5694   C.ar      1 RES1   0.0000
    33 C12     -3.1156  -3.0390   0.6977   C.ar      1 RES1   0.0000
    34 H15     -3.8133  -3.4656   1.1407   H         1 RES1   0.0000
    35 C13     -2.2977  -2.0246   1.2072   C.ar      1 RES1   0.0000
    36 C14     -3.1830  -4.2532  -1.5874   C.3       1 RES1   0.0000
    37 H16     -3.9059  -4.7661  -1.2164   H         1 RES1   0.0000
    38 H17     -2.4687  -4.8420  -1.8366   H         1 RES1   0.0000
    39 H18     -3.4920  -3.7777  -2.3608   H         1 RES1   0.0000
    40 C15     -2.3397  -1.4004   2.5805   C.3       1 RES1   0.0000
    41 H19     -1.6307  -0.7574   2.6598   H         1 RES1   0.0000
    42 H20     -2.2281  -2.0839   3.2450   H         1 RES1   0.0000
    43 H21     -3.1848  -0.9645   2.7078   H         1 RES1   0.0000
    44 C16     -0.8381  -2.2816  -1.9837   C.3       1 RES1   0.0000
    45 H22     -1.0901  -2.8923  -2.6008   H         1 RES1   0.0000
    46 N1D      0.9343  -0.1467   1.9363   N.ar      1 RES1   0.0000
    47 N2D      1.0588   1.0206   2.6504   N.ar      1 RES1   0.0000
    48 C1D      1.3697   0.7886   3.9456   C.ar      1 RES1   0.0000
    49 C2D      1.4628  -0.5670   4.0590   C.ar      1 RES1   0.0000
    50 H1D      1.6655  -1.0394   4.8342   H         1 RES1   0.0000
    51 C3D      1.2014  -1.1143   2.8149   C.ar      1 RES1   0.0000
    52 C5D      1.2028  -2.5594   2.4328   C.3       1 RES1   0.0000
    53 H5D      0.9913  -2.6437   1.4988   H         1 RES1   0.0000
    54 H6D      2.0714  -2.9329   2.5971   H         1 RES1   0.0000
    55 H7D      0.5486  -3.0296   2.9533   H         1 RES1   0.0000
    56 C4D      1.5838   1.8654   4.9542   C.3       1 RES1   0.0000
    57 H2D      1.4562   2.7217   4.5407   H         1 RES1   0.0000
    58 H3D      0.9584   1.7593   5.6741   H         1 RES1   0.0000
    59 H4D      2.4789   1.8072   5.2975   H         1 RES1   0.0000
    60 C16D     0.8381   2.2816   1.9837   C.3       1 RES1   0.0000
    61 N4D     -0.5652   2.4762   1.6696   N.ar      1 RES1   0.0000
    62 N3D     -1.2386   1.5211   0.9489   N.ar      1 RES1   0.0000
    63 N5D      1.4163   1.6272  -0.2946   N.ar      1 RES1   0.0000
    64 N6D      1.6607   2.4189   0.7996   N.ar      1 RES1   0.0000
    65 C11D     2.6929   3.2814   0.5694   C.ar      1 RES1   0.0000
    66 C12D     3.1156   3.0390  -0.6977   C.ar      1 RES1   0.0000
    67 H15D     3.8133   3.4656  -1.1407   H         1 RES1   0.0000
    68 C13D     2.2977   2.0246  -1.2072   C.ar      1 RES1   0.0000
    69 C15D     2.3397   1.4004  -2.5805   C.3       1 RES1   0.0000
    70 H19D     1.6307   0.7574  -2.6598   H         1 RES1   0.0000
    71 H20D     2.2281   2.0839  -3.2450   H         1 RES1   0.0000
    72 H21D     3.1848   0.9645  -2.7078   H         1 RES1   0.0000
    73 C14D     3.1830   4.2532   1.5874   C.3       1 RES1   0.0000
    74 H16D     3.9059   4.7661   1.2164   H         1 RES1   0.0000
    75 H17D     2.4687   4.8420   1.8366   H         1 RES1   0.0000
    76 H18D     3.4920   3.7777   2.3608   H         1 RES1   0.0000
    77 H22D     1.0901   2.8923   2.6008   H         1 RES1   0.0000
    78 C8D     -2.4897   1.9872   0.8546   C.ar      1 RES1   0.0000
    79 C7D     -2.6134   3.2096   1.5117   C.ar      1 RES1   0.0000
    80 C6D     -1.3706   3.5145   2.0156   C.ar      1 RES1   0.0000
    81 C9D     -0.8957   4.6953   2.7724   C.3       1 RES1   0.0000
    82 H9D      0.0274   4.5726   3.0124   H         1 RES1   0.0000
    83 H10D    -0.9817   5.4808   2.2261   H         1 RES1   0.0000
    84 H11D    -1.4214   4.7994   3.5680   H         1 RES1   0.0000
    85 H8D     -3.3858   3.7194   1.5948   H         1 RES1   0.0000
    86 C10D    -3.5651   1.2204   0.1514   C.3       1 RES1   0.0000
    87 H12D    -4.3865   1.7156   0.1883   H         1 RES1   0.0000
    88 H13D    -3.3137   1.0841  -0.7642   H         1 RES1   0.0000
    89 H14D    -3.6852   0.3704   0.5814   H         1 RES1   0.0000
    90 B1       1.5588   5.8044   5.6538   B         2 RES2  -1.0000
    91 F1       1.6762   4.9336   6.6764   F         2 RES2   0.0000
    92 F2       0.2301   6.1134   5.5203   F         2 RES2   0.0000
    93 F3       2.2313   6.9322   5.9343   F         2 RES2   0.0000
    94 F4       2.0151   5.2551   4.4758   F         2 RES2   0.0000
@<TRIPOS>BOND
     1     1     2    1
     2     2     3   ar
     3     3     8   ar
     4     4     1    1
     5     5     4   ar
     6     6     1    1
     7     7     6   ar
     8     8     9   ar
     9     9    10    1
    10    11     2   ar
    11    12     8    1
    12    13    12    1
    13    14    12    1
    14    15    12    1
    15    16    11    1
    16    17    16    1
    17    18    16    1
    18    19    16    1
    19    20     5   ar
    20    21    20   ar
    21    22    21    1
    22    23     4   ar
    23    24    20    1
    24    25    24    1
    25    26    24    1
    26    27    24    1
    27    28    23    1
    28    29    28    1
    29    30    28    1
    30    31    28    1
    31    32     7   ar
    32    33    32   ar
    33    34    33    1
    34    35     6   ar
    35    36    32    1
    36    37    36    1
    37    38    36    1
    38    39    36    1
    39    40    35    1
    40    41    40    1
    41    42    40    1
    42    43    40    1
    43    44     3    1
    44    45    44    1
    45    46     1    1
    46    47    46   ar
    47    48    47   ar
    48    49    48   ar
    49    50    49    1
    50    51    46   ar
    51    52    51    1
    52    53    52    1
    53    54    52    1
    54    55    52    1
    55    56    48    1
    56    57    56    1
    57    58    56    1
    58    59    56    1
    59    60    47    1
    60    61    60    1
    61    62     1    1
    62    63     1    1
    63    64    60    1
    64    65    64   ar
    65    66    65   ar
    66    67    66    1
    67    68    63   ar
    68    69    68    1
    69    70    69    1
    70    71    69    1
    71    72    69    1
    72    73    65    1
    73    74    73    1
    74    75    73    1
    75    76    73    1
    76    77    60    1
    77    78    62   ar
    78    79    78   ar
    79    80    61   ar
    80    81    80    1
    81    82    81    1
    82    83    81    1
    83    84    81    1
    84    85    79    1
    85    86    78    1
    86    87    86    1
    87    88    86    1
    88    89    86    1
    89     5    44    1
    90     7    44    1
    91     9    11   ar
    92    21    23   ar
    93    33    35   ar
    94    49    51   ar
    95    61    62   ar
    96    63    64   ar
    97    66    68   ar
    98    79    80   ar
    99    90    91    1
   100    92    90    1
   101    93    90    1
   102    94    90    1
@<TRIPOS>SUBSTRUCTURE
     1 RES1        1 GROUP             0 ****  ****    0  
     2 RES2       90 GROUP             0 ****  ****    0  
@<TRIPOS>CRYSIN
   20.4992   10.4040   19.8147   90.0000  111.3228   90.0000    15     1
