@<TRIPOS>MOLECULE
XEFDER03
    94   102     2     0     0
SMALL
USER_CHARGES
****
Generated from the CSD

@<TRIPOS>ATOM
     1 Fe1      6.6362   0.0000   9.1718   Fe        1 RES1   2.0000
     2 N1       7.8698  -1.5136   8.2152   N.ar      1 RES1   0.0000
     3 N2       7.1940  -2.4740   7.5079   N.ar      1 RES1   0.0000
     4 N3       5.6739   0.1397   7.2569   N.ar      1 RES1   0.0000
     5 N4       5.5608  -1.0245   6.5441   N.ar      1 RES1   0.0000
     6 N5       5.2420  -1.6329   9.4877   N.ar      1 RES1   0.0000
     7 N6       4.9790  -2.4212   8.3979   N.ar      1 RES1   0.0000
     8 C1       8.0026  -3.5092   7.1619   C.ar      1 RES1   0.0000
     9 C2       9.2429  -3.1994   7.6480   C.ar      1 RES1   0.0000
    10 H1      10.0226  -3.7162   7.5668   H         1 RES1   0.0000
    11 C3       9.1229  -1.9651   8.2899   C.ar      1 RES1   0.0000
    12 C4       7.5155  -4.7045   6.4243   C.3       1 RES1   0.0000
    13 H2       6.8083  -5.1314   6.9321   H         1 RES1   0.0000
    14 H3       8.2481  -5.3278   6.3010   H         1 RES1   0.0000
    15 H4       7.1734  -4.4326   5.5581   H         1 RES1   0.0000
    16 C5      10.1935  -1.1877   8.9811   C.3       1 RES1   0.0000
    17 H5       9.8871  -0.2791   9.1315   H         1 RES1   0.0000
    18 H6      10.9903  -1.1722   8.4289   H         1 RES1   0.0000
    19 H7      10.3981  -1.6054   9.8322   H         1 RES1   0.0000
    20 C6       5.2418  -0.7964   5.2412   C.ar      1 RES1   0.0000
    21 C7       5.1414   0.5624   5.1199   C.ar      1 RES1   0.0000
    22 H8       4.9363   1.0399   4.3364   H         1 RES1   0.0000
    23 C8       5.4011   1.1053   6.3759   C.ar      1 RES1   0.0000
    24 C9       5.0582  -1.8803   4.2431   C.3       1 RES1   0.0000
    25 H9       5.8862  -2.3745   4.1475   H         1 RES1   0.0000
    26 H10      4.8118  -1.4937   3.3881   H         1 RES1   0.0000
    27 H11      4.3565  -2.4799   4.5419   H         1 RES1   0.0000
    28 C10      5.3864   2.5450   6.7699   C.3       1 RES1   0.0000
    29 H12      5.7241   2.6360   7.6750   H         1 RES1   0.0000
    30 H13      4.4783   2.8830   6.7266   H         1 RES1   0.0000
    31 H14      5.9490   3.0526   6.1635   H         1 RES1   0.0000
    32 C11      3.9436  -3.2768   8.6300   C.ar      1 RES1   0.0000
    33 C12      3.5365  -3.0288   9.9100   C.ar      1 RES1   0.0000
    34 H15      2.8357  -3.4588  10.3678   H         1 RES1   0.0000
    35 C13      4.3579  -2.0147  10.4097   C.ar      1 RES1   0.0000
    36 C14      3.4364  -4.2465   7.6269   C.3       1 RES1   0.0000
    37 H16      3.0803  -3.7658   6.8642   H         1 RES1   0.0000
    38 H17      2.7361  -4.7872   8.0254   H         1 RES1   0.0000
    39 H18      4.1613  -4.8213   7.3375   H         1 RES1   0.0000
    40 C15      4.3334  -1.4059  11.7768   C.3       1 RES1   0.0000
    41 H19      5.0193  -0.7226  11.8390   H         1 RES1   0.0000
    42 H20      4.5024  -2.0943  12.4407   H         1 RES1   0.0000
    43 H21      3.4631  -1.0079  11.9381   H         1 RES1   0.0000
    44 C16      5.7848  -2.2876   7.2080   C.3       1 RES1   0.0000
    45 H22      5.5150  -3.0061   6.5817   H         1 RES1   0.0000
    46 N1D      5.4026   1.5136  10.1285   N.ar      1 RES1   0.0000
    47 N2D      6.0784   2.4740  10.8358   N.ar      1 RES1   0.0000
    48 C1D      5.2698   3.5092  11.1817   C.ar      1 RES1   0.0000
    49 C2D      4.0295   3.1994  10.6956   C.ar      1 RES1   0.0000
    50 H1D      3.2497   3.7162  10.7769   H         1 RES1   0.0000
    51 C3D      4.1495   1.9651  10.0538   C.ar      1 RES1   0.0000
    52 C5D      3.0788   1.1877   9.3626   C.3       1 RES1   0.0000
    53 H5D      3.3853   0.2791   9.2122   H         1 RES1   0.0000
    54 H6D      2.2820   1.1722   9.9148   H         1 RES1   0.0000
    55 H7D      2.8742   1.6054   8.5115   H         1 RES1   0.0000
    56 C4D      5.7569   4.7045  11.9193   C.3       1 RES1   0.0000
    57 H2D      6.4641   5.1314  11.4116   H         1 RES1   0.0000
    58 H3D      5.0242   5.3278  12.0426   H         1 RES1   0.0000
    59 H4D      6.0989   4.4326  12.7855   H         1 RES1   0.0000
    60 C16D     7.4876   2.2876  11.1357   C.3       1 RES1   0.0000
    61 N4D      7.7115   1.0245  11.7996   N.ar      1 RES1   0.0000
    62 N3D      7.5984  -0.1397  11.0867   N.ar      1 RES1   0.0000
    63 N5D      8.0304   1.6329   8.8560   N.ar      1 RES1   0.0000
    64 N6D      8.2933   2.4212   9.9458   N.ar      1 RES1   0.0000
    65 C11D     9.3288   3.2768   9.7137   C.ar      1 RES1   0.0000
    66 C12D     9.7358   3.0288   8.4337   C.ar      1 RES1   0.0000
    67 H15D    10.4366   3.4588   7.9758   H         1 RES1   0.0000
    68 C13D     8.9144   2.0147   7.9340   C.ar      1 RES1   0.0000
    69 C15D     8.9390   1.4059   6.5668   C.3       1 RES1   0.0000
    70 H19D     8.2530   0.7226   6.5047   H         1 RES1   0.0000
    71 H20D     8.7700   2.0943   5.9030   H         1 RES1   0.0000
    72 H21D     9.8092   1.0079   6.4056   H         1 RES1   0.0000
    73 C14D     9.8360   4.2465  10.7167   C.3       1 RES1   0.0000
    74 H16D    10.1921   3.7658  11.4795   H         1 RES1   0.0000
    75 H17D    10.5362   4.7872  10.3183   H         1 RES1   0.0000
    76 H18D     9.1110   4.8213  11.0062   H         1 RES1   0.0000
    77 H22D     7.7574   3.0061  11.7620   H         1 RES1   0.0000
    78 C8D      7.8713  -1.1053  11.9678   C.ar      1 RES1   0.0000
    79 C7D      8.1309  -0.5624  13.2238   C.ar      1 RES1   0.0000
    80 C6D      8.0306   0.7964  13.1025   C.ar      1 RES1   0.0000
    81 C9D      8.2141   1.8803  14.1006   C.3       1 RES1   0.0000
    82 H9D      7.3861   2.3745  14.1962   H         1 RES1   0.0000
    83 H10D     8.4606   1.4937  14.9556   H         1 RES1   0.0000
    84 H11D     8.9158   2.4799  13.8018   H         1 RES1   0.0000
    85 H8D      8.3360  -1.0399  14.0072   H         1 RES1   0.0000
    86 C10D     7.8859  -2.5450  11.5738   C.3       1 RES1   0.0000
    87 H12D     7.5483  -2.6360  10.6687   H         1 RES1   0.0000
    88 H13D     8.7940  -2.8830  11.6170   H         1 RES1   0.0000
    89 H14D     7.3234  -3.0526  12.1802   H         1 RES1   0.0000
    90 B1       1.5848  -0.6006   5.5937   B         2 RES2  -1.0000
    91 F1       0.2441  -0.9097   5.4580   F         2 RES2   0.0000
    92 F2       2.2785  -1.7492   5.8610   F         2 RES2   0.0000
    93 F3       2.0344  -0.0376   4.4117   F         2 RES2   0.0000
    94 F4       1.7412   0.2778   6.6250   F         2 RES2   0.0000
@<TRIPOS>BOND
     1     1     2    1
     2     2     3   ar
     3     3     8   ar
     4     4     1    1
     5     5     4   ar
     6     6     1    1
     7     7     6   ar
     8     8     9   ar
     9     9    10    1
    10    11     2   ar
    11    12     8    1
    12    13    12    1
    13    14    12    1
    14    15    12    1
    15    16    11    1
    16    17    16    1
    17    18    16    1
    18    19    16    1
    19    20     5   ar
    20    21    20   ar
    21    22    21    1
    22    23     4   ar
    23    24    20    1
    24    25    24    1
    25    26    24    1
    26    27    24    1
    27    28    23    1
    28    29    28    1
    29    30    28    1
    30    31    28    1
    31    32     7   ar
    32    33    32   ar
    33    34    33    1
    34    35     6   ar
    35    36    32    1
    36    37    36    1
    37    38    36    1
    38    39    36    1
    39    40    35    1
    40    41    40    1
    41    42    40    1
    42    43    40    1
    43    44     3    1
    44    45    44    1
    45    46     1    1
    46    47    46   ar
    47    48    47   ar
    48    49    48   ar
    49    50    49    1
    50    51    46   ar
    51    52    51    1
    52    53    52    1
    53    54    52    1
    54    55    52    1
    55    56    48    1
    56    57    56    1
    57    58    56    1
    58    59    56    1
    59    60    47    1
    60    61    60    1
    61    62     1    1
    62    63     1    1
    63    64    60    1
    64    65    64   ar
    65    66    65   ar
    66    67    66    1
    67    68    63   ar
    68    69    68    1
    69    70    69    1
    70    71    69    1
    71    72    69    1
    72    73    65    1
    73    74    73    1
    74    75    73    1
    75    76    73    1
    76    77    60    1
    77    78    62   ar
    78    79    78   ar
    79    80    61   ar
    80    81    80    1
    81    82    81    1
    82    83    81    1
    83    84    81    1
    84    85    79    1
    85    86    78    1
    86    87    86    1
    87    88    86    1
    88    89    86    1
    89     5    44    1
    90     7    44    1
    91     9    11   ar
    92    21    23   ar
    93    33    35   ar
    94    49    51   ar
    95    61    62   ar
    96    63    64   ar
    97    66    68   ar
    98    79    80   ar
    99    90    91    1
   100    92    90    1
   101    93    90    1
   102    94    90    1
@<TRIPOS>SUBSTRUCTURE
     1 RES1        1 GROUP             0 ****  ****    0  
     2 RES2       90 GROUP             0 ****  ****    0  
@<TRIPOS>CRYSIN
   20.3480   10.3372   19.6610   90.0000  111.0930   90.0000    15     1
