@<TRIPOS>MOLECULE
XEFDER04
    94   102     2     0     0
SMALL
USER_CHARGES
****
Generated from the CSD

@<TRIPOS>ATOM
     1 Fe1      6.6383   0.0000   9.1769   Fe        1 RES1   2.0000
     2 N1       7.8736  -1.5138   8.2205   N.ar      1 RES1   0.0000
     3 N2       7.1952  -2.4766   7.5133   N.ar      1 RES1   0.0000
     4 N3       5.6769   0.1398   7.2563   N.ar      1 RES1   0.0000
     5 N4       5.5629  -1.0244   6.5497   N.ar      1 RES1   0.0000
     6 N5       5.2434  -1.6358   9.4948   N.ar      1 RES1   0.0000
     7 N6       4.9821  -2.4226   8.4014   N.ar      1 RES1   0.0000
     8 C1       8.0020  -3.5079   7.1660   C.ar      1 RES1   0.0000
     9 C2       9.2461  -3.2018   7.6555   C.ar      1 RES1   0.0000
    10 H1      10.0249  -3.7220   7.5783   H         1 RES1   0.0000
    11 C3       9.1267  -1.9629   8.2931   C.ar      1 RES1   0.0000
    12 C4       7.5166  -4.7024   6.4258   C.3       1 RES1   0.0000
    13 H2       6.8031  -5.1254   6.9285   H         1 RES1   0.0000
    14 H3       8.2466  -5.3302   6.3100   H         1 RES1   0.0000
    15 H4       7.1832  -4.4294   5.5575   H         1 RES1   0.0000
    16 C5      10.1930  -1.1893   8.9898   C.3       1 RES1   0.0000
    17 H5       9.9029  -0.2699   9.1035   H         1 RES1   0.0000
    18 H6      11.0062  -1.2079   8.4592   H         1 RES1   0.0000
    19 H7      10.3644  -1.5844   9.8596   H         1 RES1   0.0000
    20 C6       5.2425  -0.7953   5.2433   C.ar      1 RES1   0.0000
    21 C7       5.1468   0.5626   5.1236   C.ar      1 RES1   0.0000
    22 H8       4.9433   1.0414   4.3407   H         1 RES1   0.0000
    23 C8       5.4059   1.1035   6.3792   C.ar      1 RES1   0.0000
    24 C9       5.0618  -1.8791   4.2482   C.3       1 RES1   0.0000
    25 H9       5.8879  -2.3796   4.1608   H         1 RES1   0.0000
    26 H10      4.8255  -1.4944   3.3899   H         1 RES1   0.0000
    27 H11      4.3546  -2.4738   4.5425   H         1 RES1   0.0000
    28 C10      5.3913   2.5462   6.7745   C.3       1 RES1   0.0000
    29 H12      5.7375   2.6382   7.6755   H         1 RES1   0.0000
    30 H13      4.4817   2.8812   6.7413   H         1 RES1   0.0000
    31 H14      5.9449   3.0550   6.1613   H         1 RES1   0.0000
    32 C11      3.9452  -3.2732   8.6329   C.ar      1 RES1   0.0000
    33 C12      3.5358  -3.0343   9.9147   C.ar      1 RES1   0.0000
    34 H15      2.8409  -3.4697  10.3735   H         1 RES1   0.0000
    35 C13      4.3577  -2.0135  10.4102   C.ar      1 RES1   0.0000
    36 C14      3.4389  -4.2494   7.6330   C.3       1 RES1   0.0000
    37 H16      3.1257  -3.7748   6.8478   H         1 RES1   0.0000
    38 H17      2.7068  -4.7572   8.0187   H         1 RES1   0.0000
    39 H18      4.1539  -4.8544   7.3800   H         1 RES1   0.0000
    40 C15      4.3388  -1.4127  11.7868   C.3       1 RES1   0.0000
    41 H19      5.1380  -0.8780  11.9171   H         1 RES1   0.0000
    42 H20      4.3119  -2.1211  12.4493   H         1 RES1   0.0000
    43 H21      3.5550  -0.8501  11.8840   H         1 RES1   0.0000
    44 C16      5.7852  -2.2887   7.2110   C.3       1 RES1   0.0000
    45 H22      5.5147  -3.0064   6.5853   H         1 RES1   0.0000
    46 N1D      5.4031   1.5138  10.1333   N.ar      1 RES1   0.0000
    47 N2D      6.0815   2.4766  10.8405   N.ar      1 RES1   0.0000
    48 C1D      5.2747   3.5079  11.1877   C.ar      1 RES1   0.0000
    49 C2D      4.0305   3.2018  10.6982   C.ar      1 RES1   0.0000
    50 H1D      3.2517   3.7220  10.7755   H         1 RES1   0.0000
    51 C3D      4.1500   1.9629  10.0606   C.ar      1 RES1   0.0000
    52 C5D      3.0836   1.1893   9.3639   C.3       1 RES1   0.0000
    53 H5D      3.3737   0.2699   9.2503   H         1 RES1   0.0000
    54 H6D      2.2705   1.2079   9.8945   H         1 RES1   0.0000
    55 H7D      2.9122   1.5844   8.4941   H         1 RES1   0.0000
    56 C4D      5.7601   4.7024  11.9279   C.3       1 RES1   0.0000
    57 H2D      6.4736   5.1254  11.4252   H         1 RES1   0.0000
    58 H3D      5.0301   5.3302  12.0437   H         1 RES1   0.0000
    59 H4D      6.0935   4.4294  12.7962   H         1 RES1   0.0000
    60 C16D     7.4915   2.2887  11.1427   C.3       1 RES1   0.0000
    61 N4D      7.7138   1.0244  11.8040   N.ar      1 RES1   0.0000
    62 N3D      7.5998  -0.1398  11.0974   N.ar      1 RES1   0.0000
    63 N5D      8.0332   1.6358   8.8590   N.ar      1 RES1   0.0000
    64 N6D      8.2945   2.4226   9.9523   N.ar      1 RES1   0.0000
    65 C11D     9.3314   3.2732   9.7209   C.ar      1 RES1   0.0000
    66 C12D     9.7409   3.0343   8.4390   C.ar      1 RES1   0.0000
    67 H15D    10.4358   3.4697   7.9802   H         1 RES1   0.0000
    68 C13D     8.9189   2.0135   7.9435   C.ar      1 RES1   0.0000
    69 C15D     8.9378   1.4127   6.5670   C.3       1 RES1   0.0000
    70 H19D     8.1387   0.8780   6.4367   H         1 RES1   0.0000
    71 H20D     8.9647   2.1211   5.9044   H         1 RES1   0.0000
    72 H21D     9.7217   0.8501   6.4697   H         1 RES1   0.0000
    73 C14D     9.8378   4.2494  10.7208   C.3       1 RES1   0.0000
    74 H16D    10.1509   3.7748  11.5060   H         1 RES1   0.0000
    75 H17D    10.5699   4.7572  10.3350   H         1 RES1   0.0000
    76 H18D     9.1227   4.8544  10.9737   H         1 RES1   0.0000
    77 H22D     7.7619   3.0064  11.7684   H         1 RES1   0.0000
    78 C8D      7.8707  -1.1035  11.9745   C.ar      1 RES1   0.0000
    79 C7D      8.1299  -0.5626  13.2301   C.ar      1 RES1   0.0000
    80 C6D      8.0342   0.7953  13.1104   C.ar      1 RES1   0.0000
    81 C9D      8.2149   1.8791  14.1056   C.3       1 RES1   0.0000
    82 H9D      7.3888   2.3796  14.1929   H         1 RES1   0.0000
    83 H10D     8.4512   1.4944  14.9638   H         1 RES1   0.0000
    84 H11D     8.9221   2.4738  13.8112   H         1 RES1   0.0000
    85 H8D      8.3334  -1.0414  14.0131   H         1 RES1   0.0000
    86 C10D     7.8854  -2.5462  11.5792   C.3       1 RES1   0.0000
    87 H12D     7.5391  -2.6382  10.6782   H         1 RES1   0.0000
    88 H13D     8.7950  -2.8812  11.6124   H         1 RES1   0.0000
    89 H14D     7.3318  -3.0550  12.1924   H         1 RES1   0.0000
    90 B1       1.5831  -0.6019   5.6001   B         2 RES2  -1.0000
    91 F1       0.2448  -0.9090   5.4617   F         2 RES2   0.0000
    92 F2       2.2815  -1.7497   5.8649   F         2 RES2   0.0000
    93 F3       2.0344  -0.0365   4.4159   F         2 RES2   0.0000
    94 F4       1.7402   0.2741   6.6310   F         2 RES2   0.0000
@<TRIPOS>BOND
     1     1     2    1
     2     2     3   ar
     3     3     8   ar
     4     4     1    1
     5     5     4   ar
     6     6     1    1
     7     7     6   ar
     8     8     9   ar
     9     9    10    1
    10    11     2   ar
    11    12     8    1
    12    13    12    1
    13    14    12    1
    14    15    12    1
    15    16    11    1
    16    17    16    1
    17    18    16    1
    18    19    16    1
    19    20     5   ar
    20    21    20   ar
    21    22    21    1
    22    23     4   ar
    23    24    20    1
    24    25    24    1
    25    26    24    1
    26    27    24    1
    27    28    23    1
    28    29    28    1
    29    30    28    1
    30    31    28    1
    31    32     7   ar
    32    33    32   ar
    33    34    33    1
    34    35     6   ar
    35    36    32    1
    36    37    36    1
    37    38    36    1
    38    39    36    1
    39    40    35    1
    40    41    40    1
    41    42    40    1
    42    43    40    1
    43    44     3    1
    44    45    44    1
    45    46     1    1
    46    47    46   ar
    47    48    47   ar
    48    49    48   ar
    49    50    49    1
    50    51    46   ar
    51    52    51    1
    52    53    52    1
    53    54    52    1
    54    55    52    1
    55    56    48    1
    56    57    56    1
    57    58    56    1
    58    59    56    1
    59    60    47    1
    60    61    60    1
    61    62     1    1
    62    63     1    1
    63    64    60    1
    64    65    64   ar
    65    66    65   ar
    66    67    66    1
    67    68    63   ar
    68    69    68    1
    69    70    69    1
    70    71    69    1
    71    72    69    1
    72    73    65    1
    73    74    73    1
    74    75    73    1
    75    76    73    1
    76    77    60    1
    77    78    62   ar
    78    79    78   ar
    79    80    61   ar
    80    81    80    1
    81    82    81    1
    82    83    81    1
    83    84    81    1
    84    85    79    1
    85    86    78    1
    86    87    86    1
    87    88    86    1
    88    89    86    1
    89     5    44    1
    90     7    44    1
    91     9    11   ar
    92    21    23   ar
    93    33    35   ar
    94    49    51   ar
    95    61    62   ar
    96    63    64   ar
    97    66    68   ar
    98    79    80   ar
    99    90    91    1
   100    92    90    1
   101    93    90    1
   102    94    90    1
@<TRIPOS>SUBSTRUCTURE
     1 RES1        1 GROUP             0 ****  ****    0  
     2 RES2       90 GROUP             0 ****  ****    0  
@<TRIPOS>CRYSIN
   20.3540   10.3418   19.6710   90.0000  111.0870   90.0000    15     1
