@<TRIPOS>MOLECULE
XEFDER02
    94   102     2     0     0
SMALL
USER_CHARGES
****
Generated from the CSD

@<TRIPOS>ATOM
     1 Fe1      6.6364   0.0000   9.1649   Fe        1 RES1   2.0000
     2 N1       7.8730  -1.5126   8.2086   N.ar      1 RES1   0.0000
     3 N2       7.1890  -2.4734   7.5035   N.ar      1 RES1   0.0000
     4 N3       5.6795   0.1426   7.2481   N.ar      1 RES1   0.0000
     5 N4       5.5579  -1.0280   6.5351   N.ar      1 RES1   0.0000
     6 N5       5.2417  -1.6304   9.4812   N.ar      1 RES1   0.0000
     7 N6       4.9780  -2.4207   8.3910   N.ar      1 RES1   0.0000
     8 C1       8.0033  -3.5056   7.1589   C.ar      1 RES1   0.0000
     9 C2       9.2342  -3.1987   7.6490   C.ar      1 RES1   0.0000
    10 H1      10.0204  -3.7256   7.5720   H         1 RES1   0.0000
    11 C3       9.1212  -1.9661   8.2814   C.ar      1 RES1   0.0000
    12 C4       7.5138  -4.6999   6.4191   C.3       1 RES1   0.0000
    13 H2       6.8027  -5.1339   6.9341   H         1 RES1   0.0000
    14 H3       8.2527  -5.3302   6.2908   H         1 RES1   0.0000
    15 H4       7.1627  -4.4230   5.5466   H         1 RES1   0.0000
    16 C5      10.1943  -1.1892   8.9834   C.3       1 RES1   0.0000
    17 H5       9.9073  -0.2583   9.0897   H         1 RES1   0.0000
    18 H6      11.0195  -1.2171   8.4518   H         1 RES1   0.0000
    19 H7      10.3609  -1.5828   9.8651   H         1 RES1   0.0000
    20 C6       5.2409  -0.7935   5.2375   C.ar      1 RES1   0.0000
    21 C7       5.1412   0.5610   5.1182   C.ar      1 RES1   0.0000
    22 H8       4.9336   1.0445   4.3276   H         1 RES1   0.0000
    23 C8       5.4022   1.1024   6.3714   C.ar      1 RES1   0.0000
    24 C9       5.0593  -1.8804   4.2442   C.3       1 RES1   0.0000
    25 H9       5.9091  -2.3536   4.1187   H         1 RES1   0.0000
    26 H10      4.7707  -1.4971   3.3892   H         1 RES1   0.0000
    27 H11      4.3794  -2.5086   4.5678   H         1 RES1   0.0000
    28 C10      5.3919   2.5437   6.7637   C.3       1 RES1   0.0000
    29 H12      5.7261   2.6356   7.6802   H         1 RES1   0.0000
    30 H13      4.4761   2.8898   6.7123   H         1 RES1   0.0000
    31 H14      5.9668   3.0520   6.1533   H         1 RES1   0.0000
    32 C11      3.9488  -3.2762   8.6214   C.ar      1 RES1   0.0000
    33 C12      3.5395  -3.0241   9.9023   C.ar      1 RES1   0.0000
    34 H15      2.8308  -3.4570  10.3636   H         1 RES1   0.0000
    35 C13      4.3575  -2.0147  10.4023   C.ar      1 RES1   0.0000
    36 C14      3.4360  -4.2484   7.6222   C.3       1 RES1   0.0000
    37 H16      3.0672  -3.7649   6.8535   H         1 RES1   0.0000
    38 H17      2.7336  -4.7971   8.0302   H         1 RES1   0.0000
    39 H18      4.1697  -4.8270   7.3227   H         1 RES1   0.0000
    40 C15      4.3343  -1.4051  11.7658   C.3       1 RES1   0.0000
    41 H19      5.1129  -0.8224  11.8777   H         1 RES1   0.0000
    42 H20      4.3563  -2.1139  12.4422   H         1 RES1   0.0000
    43 H21      3.5137  -0.8772  11.8740   H         1 RES1   0.0000
    44 C16      5.7862  -2.2864   7.1992   C.3       1 RES1   0.0000
    45 H22      5.5163  -3.0138   6.5675   H         1 RES1   0.0000
    46 N1D      5.3998   1.5126  10.1211   N.ar      1 RES1   0.0000
    47 N2D      6.0839   2.4734  10.8263   N.ar      1 RES1   0.0000
    48 C1D      5.2696   3.5056  11.1709   C.ar      1 RES1   0.0000
    49 C2D      4.0387   3.1987  10.6807   C.ar      1 RES1   0.0000
    50 H1D      3.2524   3.7256  10.7577   H         1 RES1   0.0000
    51 C3D      4.1517   1.9661  10.0484   C.ar      1 RES1   0.0000
    52 C5D      3.0785   1.1892   9.3463   C.3       1 RES1   0.0000
    53 H5D      3.3656   0.2583   9.2400   H         1 RES1   0.0000
    54 H6D      2.2533   1.2171   9.8779   H         1 RES1   0.0000
    55 H7D      2.9119   1.5828   8.4647   H         1 RES1   0.0000
    56 C4D      5.7591   4.6999  11.9106   C.3       1 RES1   0.0000
    57 H2D      6.4701   5.1339  11.3956   H         1 RES1   0.0000
    58 H3D      5.0202   5.3302  12.0390   H         1 RES1   0.0000
    59 H4D      6.1102   4.4230  12.7831   H         1 RES1   0.0000
    60 C16D     7.4867   2.2864  11.1305   C.3       1 RES1   0.0000
    61 N4D      7.7150   1.0280  11.7946   N.ar      1 RES1   0.0000
    62 N3D      7.5934  -0.1426  11.0816   N.ar      1 RES1   0.0000
    63 N5D      8.0311   1.6304   8.8485   N.ar      1 RES1   0.0000
    64 N6D      8.2949   2.4207   9.9387   N.ar      1 RES1   0.0000
    65 C11D     9.3241   3.2762   9.7083   C.ar      1 RES1   0.0000
    66 C12D     9.7334   3.0241   8.4275   C.ar      1 RES1   0.0000
    67 H15D    10.4421   3.4570   7.9661   H         1 RES1   0.0000
    68 C13D     8.9153   2.0147   7.9274   C.ar      1 RES1   0.0000
    69 C15D     8.9386   1.4051   6.5639   C.3       1 RES1   0.0000
    70 H19D     8.1600   0.8224   6.4521   H         1 RES1   0.0000
    71 H20D     8.9166   2.1139   5.8875   H         1 RES1   0.0000
    72 H21D     9.7592   0.8772   6.4557   H         1 RES1   0.0000
    73 C14D     9.8369   4.2484  10.7075   C.3       1 RES1   0.0000
    74 H16D    10.2056   3.7649  11.4762   H         1 RES1   0.0000
    75 H17D    10.5392   4.7971  10.2995   H         1 RES1   0.0000
    76 H18D     9.1032   4.8270  11.0070   H         1 RES1   0.0000
    77 H22D     7.7566   3.0138  11.7622   H         1 RES1   0.0000
    78 C8D      7.8707  -1.1024  11.9583   C.ar      1 RES1   0.0000
    79 C7D      8.1316  -0.5610  13.2115   C.ar      1 RES1   0.0000
    80 C6D      8.0320   0.7935  13.0922   C.ar      1 RES1   0.0000
    81 C9D      8.2135   1.8804  14.0855   C.3       1 RES1   0.0000
    82 H9D      7.3638   2.3536  14.2110   H         1 RES1   0.0000
    83 H10D     8.5022   1.4971  14.9406   H         1 RES1   0.0000
    84 H11D     8.8935   2.5086  13.7620   H         1 RES1   0.0000
    85 H8D      8.3392  -1.0445  14.0021   H         1 RES1   0.0000
    86 C10D     7.8810  -2.5437  11.5661   C.3       1 RES1   0.0000
    87 H12D     7.5468  -2.6356  10.6496   H         1 RES1   0.0000
    88 H13D     8.7967  -2.8898  11.6174   H         1 RES1   0.0000
    89 H14D     7.3061  -3.0520  12.1764   H         1 RES1   0.0000
    90 B1       1.5807  -0.5992   5.5814   B         2 RES2  -1.0000
    91 F1       0.2485  -0.9092   5.4558   F         2 RES2   0.0000
    92 F2       2.2793  -1.7450   5.8538   F         2 RES2   0.0000
    93 F3       2.0373  -0.0372   4.4090   F         2 RES2   0.0000
    94 F4       1.7446   0.2800   6.6187   F         2 RES2   0.0000
@<TRIPOS>BOND
     1     1     2    1
     2     2     3   ar
     3     3     8   ar
     4     4     1    1
     5     5     4   ar
     6     6     1    1
     7     7     6   ar
     8     8     9   ar
     9     9    10    1
    10    11     2   ar
    11    12     8    1
    12    13    12    1
    13    14    12    1
    14    15    12    1
    15    16    11    1
    16    17    16    1
    17    18    16    1
    18    19    16    1
    19    20     5   ar
    20    21    20   ar
    21    22    21    1
    22    23     4   ar
    23    24    20    1
    24    25    24    1
    25    26    24    1
    26    27    24    1
    27    28    23    1
    28    29    28    1
    29    30    28    1
    30    31    28    1
    31    32     7   ar
    32    33    32   ar
    33    34    33    1
    34    35     6   ar
    35    36    32    1
    36    37    36    1
    37    38    36    1
    38    39    36    1
    39    40    35    1
    40    41    40    1
    41    42    40    1
    42    43    40    1
    43    44     3    1
    44    45    44    1
    45    46     1    1
    46    47    46   ar
    47    48    47   ar
    48    49    48   ar
    49    50    49    1
    50    51    46   ar
    51    52    51    1
    52    53    52    1
    53    54    52    1
    54    55    52    1
    55    56    48    1
    56    57    56    1
    57    58    56    1
    58    59    56    1
    59    60    47    1
    60    61    60    1
    61    62     1    1
    62    63     1    1
    63    64    60    1
    64    65    64   ar
    65    66    65   ar
    66    67    66    1
    67    68    63   ar
    68    69    68    1
    69    70    69    1
    70    71    69    1
    71    72    69    1
    72    73    65    1
    73    74    73    1
    74    75    73    1
    75    76    73    1
    76    77    60    1
    77    78    62   ar
    78    79    78   ar
    79    80    61   ar
    80    81    80    1
    81    82    81    1
    82    83    81    1
    83    84    81    1
    84    85    79    1
    85    86    78    1
    86    87    86    1
    87    88    86    1
    88    89    86    1
    89     5    44    1
    90     7    44    1
    91     9    11   ar
    92    21    23   ar
    93    33    35   ar
    94    49    51   ar
    95    61    62   ar
    96    63    64   ar
    97    66    68   ar
    98    79    80   ar
    99    90    91    1
   100    92    90    1
   101    93    90    1
   102    94    90    1
@<TRIPOS>SUBSTRUCTURE
     1 RES1        1 GROUP             0 ****  ****    0  
     2 RES2       90 GROUP             0 ****  ****    0  
@<TRIPOS>CRYSIN
   20.3380   10.3318   19.6442   90.0000  111.0790   90.0000    15     1
