@<TRIPOS>MOLECULE
XEHQUW
    81    90     3     0     0
SMALL
USER_CHARGES
****
Generated from the CSD

@<TRIPOS>ATOM
     1 I1     -19.4081  -4.1010  -0.2482   I         1 RES1  -1.0000
     2 I2     -18.7940  -1.4454  -0.5652   I         1 RES1   0.0000
     3 I3     -18.2542   1.6920  -0.9720   I         1 RES1   0.0000
     4 I4     -15.6309   1.6833   0.4378   I         1 RES1   0.0000
     5 I5     -13.1047   1.5504   1.7288   I         1 RES1   0.0000
     6 I6     -12.4116   4.4143   0.2461   I         1 RES1   0.0000
     7 I7     -11.9751   6.8068  -1.0336   I         1 RES1   0.0000
     8 I8     -17.9909   7.7351  -9.6903   I         2 RES2   0.0000
     9 I9     -17.5822   8.4369  -7.0827   I         2 RES2   0.0000
    10 I10    -17.2024   9.2726  -3.8950   I         2 RES2   0.0000
    11 I11    -14.4259   9.6581  -3.4140   I         2 RES2   0.0000
    12 I12    -11.5154   9.8774  -2.7003   I         2 RES2   0.0000
    13 I13    -12.1940  12.7748  -1.5220   I         2 RES2   0.0000
    14 I14    -12.7977  15.3101  -0.6577   I         2 RES2  -1.0000
    15 Fe1     -7.1288   3.5132   6.5938   Fe        3 RES3   2.0000
    16 N1      -5.5318   3.1002   7.6655   N.ar      3 RES3   0.0000
    17 N2      -6.2598   5.2234   6.3702   N.ar      3 RES3   0.0000
    18 C1      -5.2305   2.0302   8.3710   C.ar      3 RES3   0.0000
    19 C2      -4.0118   1.8574   9.0530   C.ar      3 RES3   0.0000
    20 C3      -3.0461   2.8676   8.9690   C.ar      3 RES3   0.0000
    21 C4      -3.3426   3.9973   8.2363   C.ar      3 RES3   0.0000
    22 C5      -2.4784   5.1204   8.0307   C.ar      3 RES3   0.0000
    23 C6      -2.7845   6.2269   7.4043   C.ar      3 RES3   0.0000
    24 C7      -4.1026   6.3565   6.7992   C.ar      3 RES3   0.0000
    25 C8      -4.6097   7.4896   6.1255   C.ar      3 RES3   0.0000
    26 C9      -5.8406   7.4929   5.6587   C.ar      3 RES3   0.0000
    27 C10     -6.6462   6.3200   5.7532   C.ar      3 RES3   0.0000
    28 C11     -4.9821   5.2467   6.8961   C.ar      3 RES3   0.0000
    29 C12     -4.5829   4.1037   7.6288   C.ar      3 RES3   0.0000
    30 N3      -8.1595   4.2465   8.0838   N.ar      3 RES3   0.0000
    31 N4      -8.7476   3.9907   5.5582   N.ar      3 RES3   0.0000
    32 C13     -7.8155   4.4492   9.3780   C.ar      3 RES3   0.0000
    33 C14     -8.7323   4.9975  10.2643   C.ar      3 RES3   0.0000
    34 C15    -10.0223   5.2965   9.9535   C.ar      3 RES3   0.0000
    35 C16    -10.3911   5.1138   8.5743   C.ar      3 RES3   0.0000
    36 C17    -11.6897   5.3863   8.1240   C.ar      3 RES3   0.0000
    37 C18    -12.0068   5.2500   6.7921   C.ar      3 RES3   0.0000
    38 C19    -11.0178   4.7981   5.8312   C.ar      3 RES3   0.0000
    39 C20    -11.2837   4.6586   4.4721   C.ar      3 RES3   0.0000
    40 C21    -10.2248   4.2100   3.6720   C.ar      3 RES3   0.0000
    41 C22     -8.9951   3.9242   4.2759   C.ar      3 RES3   0.0000
    42 C23     -9.7519   4.4692   6.3666   C.ar      3 RES3   0.0000
    43 C24     -9.4480   4.5855   7.7080   C.ar      3 RES3   0.0000
    44 N5      -7.8368   1.6946   6.7590   N.ar      3 RES3   0.0000
    45 N6      -6.2605   2.7280   5.0016   N.ar      3 RES3   0.0000
    46 C25     -8.6608   1.1763   7.7340   C.ar      3 RES3   0.0000
    47 C26     -9.0661  -0.1229   7.6926   C.ar      3 RES3   0.0000
    48 C27     -8.6761  -0.9703   6.6656   C.ar      3 RES3   0.0000
    49 C28     -7.8545  -0.5017   5.7131   C.ar      3 RES3   0.0000
    50 C29     -7.3580  -1.2527   4.5749   C.ar      3 RES3   0.0000
    51 C30     -6.5550  -0.6745   3.6318   C.ar      3 RES3   0.0000
    52 C31     -6.1662   0.6579   3.7642   C.ar      3 RES3   0.0000
    53 C32     -5.3498   1.3092   2.7880   C.ar      3 RES3   0.0000
    54 C33     -5.0304   2.6250   2.9428   C.ar      3 RES3   0.0000
    55 C34     -5.5166   3.3394   4.0561   C.ar      3 RES3   0.0000
    56 C35     -6.5827   1.4354   4.7948   C.ar      3 RES3   0.0000
    57 C36     -7.4723   0.8340   5.7698   C.ar      3 RES3   0.0000
    58 H1      -5.9062   1.2959   8.4242   H         3 RES3   0.0000
    59 H2      -3.8391   1.0301   9.5872   H         3 RES3   0.0000
    60 H3      -2.1633   2.7745   9.4288   H         3 RES3   0.0000
    61 H4      -1.5523   5.0507   8.4006   H         3 RES3   0.0000
    62 H5      -2.1243   6.9746   7.3440   H         3 RES3   0.0000
    63 H6      -4.0300   8.2937   6.0026   H         3 RES3   0.0000
    64 H7      -6.2108   8.3203   5.2368   H         3 RES3   0.0000
    65 H8      -7.5512   6.3299   5.3278   H         3 RES3   0.0000
    66 H9      -6.9009   4.2033   9.6971   H         3 RES3   0.0000
    67 H10     -8.4215   5.1902  11.1956   H         3 RES3   0.0000
    68 H11    -10.6729   5.6222  10.6390   H         3 RES3   0.0000
    69 H12    -12.3900   5.6820   8.7740   H         3 RES3   0.0000
    70 H13    -12.9312   5.4693   6.4813   H         3 RES3   0.0000
    71 H14    -12.1825   4.8646   4.0868   H         3 RES3   0.0000
    72 H15    -10.3454   4.0970   2.6863   H         3 RES3   0.0000
    73 H16     -8.2441   3.6451   3.6779   H         3 RES3   0.0000
    74 H17     -8.9651   1.7611   8.4845   H         3 RES3   0.0000
    75 H18     -9.6585  -0.4718   8.4183   H         3 RES3   0.0000
    76 H19     -9.0028  -1.9139   6.6361   H         3 RES3   0.0000
    77 H20     -7.6080  -2.2163   4.4780   H         3 RES3   0.0000
    78 H21     -6.2464  -1.2095   2.8447   H         3 RES3   0.0000
    79 H22     -5.0135   0.8008   1.9950   H         3 RES3   0.0000
    80 H23     -4.4532   3.0836   2.2668   H         3 RES3   0.0000
    81 H24     -5.3058   4.3130   4.1471   H         3 RES3   0.0000
@<TRIPOS>BOND
     1     1     2    1
     2     2     3    1
     3     3     4    1
     4     4     5    1
     5     5     6    1
     6     6     7    1
     7     8     9    1
     8     9    10    1
     9    10    11    1
    10    11    12    1
    11    12    13    1
    12    13    14    1
    13    15    16    1
    14    16    18   ar
    15    17    15    1
    16    18    19   ar
    17    19    20   ar
    18    20    21   ar
    19    21    22   ar
    20    22    23   ar
    21    23    24   ar
    22    24    25   ar
    23    25    26   ar
    24    26    27   ar
    25    27    17   ar
    26    28    17   ar
    27    29    16   ar
    28    30    15    1
    29    31    15    1
    30    32    30   ar
    31    33    32   ar
    32    34    33   ar
    33    35    34   ar
    34    36    35   ar
    35    37    36   ar
    36    38    37   ar
    37    39    38   ar
    38    40    39   ar
    39    41    31   ar
    40    42    31   ar
    41    43    30   ar
    42    44    15    1
    43    45    15    1
    44    46    44   ar
    45    47    46   ar
    46    48    47   ar
    47    49    48   ar
    48    50    49   ar
    49    51    50   ar
    50    52    51   ar
    51    53    52   ar
    52    54    53   ar
    53    55    45   ar
    54    56    45   ar
    55    57    44   ar
    56    58    18    1
    57    59    19    1
    58    60    20    1
    59    61    22    1
    60    62    23    1
    61    63    25    1
    62    64    26    1
    63    65    27    1
    64    66    32    1
    65    67    33    1
    66    68    34    1
    67    69    36    1
    68    70    37    1
    69    71    39    1
    70    72    40    1
    71    73    41    1
    72    74    46    1
    73    75    47    1
    74    76    48    1
    75    77    50    1
    76    78    51    1
    77    79    53    1
    78    80    54    1
    79    81    55    1
    80    21    29   ar
    81    24    28   ar
    82    28    29   ar
    83    35    43   ar
    84    38    42   ar
    85    40    41   ar
    86    42    43   ar
    87    49    57   ar
    88    52    56   ar
    89    54    55   ar
    90    56    57   ar
@<TRIPOS>SUBSTRUCTURE
     1 RES1        1 GROUP             0 ****  ****    0  
     2 RES2        8 GROUP             0 ****  ****    0  
     3 RES3       15 GROUP             0 ****  ****    0  
@<TRIPOS>CRYSIN
   13.6910   33.2280   13.3630   90.0000  117.8200   90.0000    14     1
