@<TRIPOS>MOLECULE
XEHQIK
    75    85     2     0     0
SMALL
USER_CHARGES
****
Generated from the CSD

@<TRIPOS>ATOM
     1 Fe1      6.8554   5.9602   8.2308   Fe        1 RES1   2.0000
     2 N1       5.6457   4.5540   8.9419   N.ar      1 RES1   0.0000
     3 N2       5.6817   5.8390   6.6499   N.ar      1 RES1   0.0000
     4 C1       5.6444   3.9256  10.1026   C.ar      1 RES1   0.0000
     5 C2       4.7191   2.9254  10.4151   C.ar      1 RES1   0.0000
     6 C3       3.7672   2.5465   9.5022   C.ar      1 RES1   0.0000
     7 C4       3.7524   3.1749   8.2477   C.ar      1 RES1   0.0000
     8 C5       2.8503   2.8524   7.1917   C.ar      1 RES1   0.0000
     9 C6       2.8886   3.4832   6.0064   C.ar      1 RES1   0.0000
    10 C7       3.8334   4.5234   5.7663   C.ar      1 RES1   0.0000
    11 C8       3.9396   5.2154   4.5364   C.ar      1 RES1   0.0000
    12 C9       4.8940   6.2321   4.4179   C.ar      1 RES1   0.0000
    13 C10      5.7296   6.4957   5.5139   C.ar      1 RES1   0.0000
    14 C11      4.7234   4.8647   6.7699   C.ar      1 RES1   0.0000
    15 C12      4.7203   4.1822   8.0260   C.ar      1 RES1   0.0000
    16 N3       5.8192   7.4582   9.0020   N.ar      1 RES1   0.0000
    17 N4       7.9328   7.4253   7.4488   N.ar      1 RES1   0.0000
    18 C13      4.7749   7.4488   9.8117   C.ar      1 RES1   0.0000
    19 C14      4.2035   8.6091  10.3165   C.ar      1 RES1   0.0000
    20 C15      4.6930   9.8353   9.9425   C.ar      1 RES1   0.0000
    21 C16      5.7704   9.8988   9.0451   C.ar      1 RES1   0.0000
    22 C17      6.3231  11.0897   8.5294   C.ar      1 RES1   0.0000
    23 C18      7.3553  11.0944   7.6350   C.ar      1 RES1   0.0000
    24 C19      7.9624   9.8470   7.2425   C.ar      1 RES1   0.0000
    25 C20      9.0488   9.7364   6.3636   C.ar      1 RES1   0.0000
    26 C21      9.5726   8.5008   6.0957   C.ar      1 RES1   0.0000
    27 C22      8.9796   7.3688   6.6637   C.ar      1 RES1   0.0000
    28 C23      7.4133   8.6609   7.7397   C.ar      1 RES1   0.0000
    29 C24      6.3037   8.6726   8.6110   C.ar      1 RES1   0.0000
    30 N5       8.0598   5.8555   9.7901   N.ar      1 RES1   0.0000
    31 N6       8.0675   4.5799   7.4996   N.ar      1 RES1   0.0000
    32 C25      8.0232   6.4980  10.9523   C.ar      1 RES1   0.0000
    33 C26      8.9220   6.2815  11.9790   C.ar      1 RES1   0.0000
    34 C27      9.9206   5.3613  11.7989   C.ar      1 RES1   0.0000
    35 C28     10.0278   4.6693  10.5875   C.ar      1 RES1   0.0000
    36 C29     11.0521   3.7044  10.2888   C.ar      1 RES1   0.0000
    37 C30     11.0865   3.0901   9.0866   C.ar      1 RES1   0.0000
    38 C31     10.0989   3.3608   8.0614   C.ar      1 RES1   0.0000
    39 C32     10.0764   2.7442   6.8161   C.ar      1 RES1   0.0000
    40 C33      9.0422   3.0313   5.9603   C.ar      1 RES1   0.0000
    41 C34      8.0508   3.9539   6.3297   C.ar      1 RES1   0.0000
    42 C35      9.0828   4.2763   8.3816   C.ar      1 RES1   0.0000
    43 C36      9.0691   4.9471   9.6023   C.ar      1 RES1   0.0000
    44 H1       6.3327   4.1728  10.7845   H         1 RES1   0.0000
    45 H2       4.7501   2.4829  11.3110   H         1 RES1   0.0000
    46 H3       3.0987   1.8381   9.7254   H         1 RES1   0.0000
    47 H4       2.1688   2.1346   7.3364   H         1 RES1   0.0000
    48 H5       2.2464   3.2219   5.2860   H         1 RES1   0.0000
    49 H6       3.3459   4.9824   3.7667   H         1 RES1   0.0000
    50 H7       4.9768   6.7593   3.5728   H         1 RES1   0.0000
    51 H8       6.4053   7.2276   5.4230   H         1 RES1   0.0000
    52 H9       4.3799   6.5686  10.0733   H         1 RES1   0.0000
    53 H10      3.4352   8.5526  10.9523   H         1 RES1   0.0000
    54 H11      4.2866  10.6755  10.3042   H         1 RES1   0.0000
    55 H12      5.9436  11.9652   8.8296   H         1 RES1   0.0000
    56 H13      7.6894  11.9558   7.2564   H         1 RES1   0.0000
    57 H14      9.4367  10.5531   5.9372   H         1 RES1   0.0000
    58 H15     10.3709   8.4067   5.5000   H         1 RES1   0.0000
    59 H16      9.3725   6.4721   6.4590   H         1 RES1   0.0000
    60 H17      7.3030   7.1782  11.0908   H         1 RES1   0.0000
    61 H18      8.8435   6.7851  12.8395   H         1 RES1   0.0000
    62 H19     10.5741   5.1848  12.5347   H         1 RES1   0.0000
    63 H20     11.7431   3.4855  10.9769   H         1 RES1   0.0000
    64 H21     11.8133   2.4288   8.8988   H         1 RES1   0.0000
    65 H22     10.7973   2.1040   6.5498   H         1 RES1   0.0000
    66 H23      8.9963   2.5818   5.0675   H         1 RES1   0.0000
    67 H24      7.3072   4.1469   5.6893   H         1 RES1   0.0000
    68 I1      -1.4548  12.4382  17.4036   I         2 RES2  -1.0000
    69 I2      -2.8186  12.5842  14.9438   I         2 RES2   0.0000
    70 I3      -4.3500  12.6524  12.3300   I         2 RES2   0.0000
    71 I4      -2.2640  10.4637  11.0924   I         2 RES2   0.0000
    72 I5      -0.5999   8.7362   9.7070   I         2 RES2   0.0000
    73 I6       1.2625   6.3733   8.1292   I         2 RES2   0.0000
    74 I7       2.7855   8.5432   6.7238   I         2 RES2   0.0000
    75 I8       4.3713  10.3836   5.2429   I         2 RES2  -1.0000
@<TRIPOS>BOND
     1     1     2    1
     2     2     4   ar
     3     3     1    1
     4     4     5   ar
     5     5     6   ar
     6     6     7   ar
     7     7     8   ar
     8     8     9   ar
     9     9    10   ar
    10    10    11   ar
    11    11    12   ar
    12    12    13   ar
    13    13     3   ar
    14    14     3   ar
    15    15     2   ar
    16    16     1    1
    17    17     1    1
    18    18    16   ar
    19    19    18   ar
    20    20    19   ar
    21    21    20   ar
    22    22    21   ar
    23    23    22   ar
    24    24    23   ar
    25    25    24   ar
    26    26    25   ar
    27    27    17   ar
    28    28    17   ar
    29    29    16   ar
    30    30     1    1
    31    31     1    1
    32    32    30   ar
    33    33    32   ar
    34    34    33   ar
    35    35    34   ar
    36    36    35   ar
    37    37    36   ar
    38    38    37   ar
    39    39    38   ar
    40    40    39   ar
    41    41    31   ar
    42    42    31   ar
    43    43    30   ar
    44    44     4    1
    45    45     5    1
    46    46     6    1
    47    47     8    1
    48    48     9    1
    49    49    11    1
    50    50    12    1
    51    51    13    1
    52    52    18    1
    53    53    19    1
    54    54    20    1
    55    55    22    1
    56    56    23    1
    57    57    25    1
    58    58    26    1
    59    59    27    1
    60    60    32    1
    61    61    33    1
    62    62    34    1
    63    63    36    1
    64    64    37    1
    65    65    39    1
    66    66    40    1
    67    67    41    1
    68     7    15   ar
    69    10    14   ar
    70    14    15   ar
    71    21    29   ar
    72    24    28   ar
    73    26    27   ar
    74    28    29   ar
    75    35    43   ar
    76    38    42   ar
    77    40    41   ar
    78    42    43   ar
    79    68    69    1
    80    69    70    1
    81    70    71    1
    82    71    72    1
    83    72    73    1
    84    73    74    1
    85    74    75    1
@<TRIPOS>SUBSTRUCTURE
     1 RES1        1 GROUP             0 ****  ****    0  
     2 RES2       68 GROUP             0 ****  ****    0  
@<TRIPOS>CRYSIN
   11.6240   23.5350   16.1790   90.0000  107.9300   90.0000    14     1
