@<TRIPOS>MOLECULE
XEKVES
    88    90     8     0     0
SMALL
USER_CHARGES
****
Generated from the CSD

@<TRIPOS>ATOM
     1 I1       3.7397   6.9076   6.7530   I         1 RES1   0.0000
     2 I2       1.5985   5.2372   5.8716   I         1 RES1   0.0000
     3 I3      -0.7364   3.7107   4.6511   I         1 RES1  -1.0000
     4 I4      -0.4256   5.5792   2.0917   I         1 RES1   0.0000
     5 I5      -0.3107   7.3638  -0.0019   I         1 RES1   0.0000
     6 I6      -5.8492   4.0092   3.4529   I         2 RES2  -1.0000
     7 I7      -3.6863   2.6675   2.0231   I         2 RES2   0.0000
     8 I8      -1.5711   1.5277   0.3983   I         2 RES2   0.0000
     9 I9      -5.0524   1.0520   8.5794   I         2 RES2   0.0000
    10 I10     -5.3145   2.5631   6.3084   I         2 RES2   0.0000
    11 I11     -0.7669  -0.7249   2.6562   I         3 RES3   0.0000
    12 I12     -0.2215  -2.5430   4.6390   I         3 RES3   0.0000
    13 I13     -0.7928   2.6642   8.2184   I         4 RES4   0.0000
    14 I14     -1.5251   1.4374  10.6596   I         4 RES4  -1.0000
    15 I15     -2.5911   0.1432  13.2020   I         4 RES4   0.0000
    16 I16     -5.0217  -1.2283  11.3020   I         5 RES5   0.0000
    17 I16A    -7.2008  -2.3117   9.9204   I         5 RES5   0.0000
    18 Fe1     -0.0749  10.5345   4.4707   Fe        6 RES6   2.0000
    19 O1       0.7966  12.0334   0.8234   O.2       6 RES6   0.0000
    20 N1       1.2471   9.5798   3.3744   N.ar      6 RES6   0.0000
    21 N2      -0.1320  11.7091   2.9244   N.2       6 RES6   0.0000
    22 N3      -1.4003  11.8817   5.0743   N.ar      6 RES6   0.0000
    23 N4      -1.2512  13.5071   1.9185   N.pl3     6 RES6   0.0000
    24 H1      -0.7788  13.4253   1.1805   H         6 RES6   0.0000
    25 H2      -1.8640  14.1351   1.9816   H         6 RES6   0.0000
    26 N5      -1.4999   9.2634   3.9219   N.ar      6 RES6   0.0000
    27 N6      -0.0863   9.4228   5.9317   N.ar      6 RES6   0.0000
    28 N7       1.3583  11.4142   5.5390   N.ar      6 RES6   0.0000
    29 N8      -1.0110   7.6234   7.1180   N.ar      6 RES6   0.0000
    30 N9       0.8438   8.8513   8.0475   N.ar      6 RES6   0.0000
    31 N10     -1.1591   6.2106   9.4228   N.ar      6 RES6   1.0000
    32 H3      -1.6777   6.0351   8.7649   H         6 RES6   0.0000
    33 C1       1.4857  10.1952   2.1562   C.ar      6 RES6   0.0000
    34 C2       2.3991   9.6702   1.2797   C.ar      6 RES6   0.0000
    35 H4       2.5637  10.0937   0.4452   H         6 RES6   0.0000
    36 C3       3.0689   8.5302   1.6193   C.ar      6 RES6   0.0000
    37 H5       3.7213   8.1786   1.0249   H         6 RES6   0.0000
    38 C4       2.8131   7.8658   2.8332   C.ar      6 RES6   0.0000
    39 H6       3.2491   7.0543   3.0622   H         6 RES6   0.0000
    40 C5       1.8679   8.4787   3.6927   C.ar      6 RES6   0.0000
    41 H7       1.6798   8.0733   4.5310   H         6 RES6   0.0000
    42 C6       0.6987  11.3884   1.8973   C.2       6 RES6   0.0000
    43 C7      -1.0426  12.7026   2.9138   C.2       6 RES6   0.0000
    44 C8      -1.7619  12.8298   4.1829   C.ar      6 RES6   0.0000
    45 C9      -2.7231  13.8155   4.5013   C.ar      6 RES6   0.0000
    46 H8      -2.9776  14.4561   3.8473   H         6 RES6   0.0000
    47 C10     -3.2801  13.8520   5.7258   C.ar      6 RES6   0.0000
    48 H9      -3.9255  14.5132   5.9468   H         6 RES6   0.0000
    49 C11     -2.8927  12.9080   6.6553   C.ar      6 RES6   0.0000
    50 H10     -3.2654  12.9117   7.5298   H         6 RES6   0.0000
    51 C12     -1.9496  11.9516   6.2946   C.ar      6 RES6   0.0000
    52 H11     -1.6813  11.3153   6.9460   H         6 RES6   0.0000
    53 C13     -1.8113   8.3097   4.8705   C.ar      6 RES6   0.0000
    54 C14     -2.7733   7.3462   4.6774   C.ar      6 RES6   0.0000
    55 H12     -2.9618   6.7034   5.3512   H         6 RES6   0.0000
    56 C15     -3.4751   7.3389   3.4508   C.ar      6 RES6   0.0000
    57 H13     -4.1502   6.6918   3.2823   H         6 RES6   0.0000
    58 C16     -3.1604   8.2880   2.5064   C.ar      6 RES6   0.0000
    59 H14     -3.6169   8.2926   1.6721   H         6 RES6   0.0000
    60 C17     -2.1814   9.2429   2.7589   C.ar      6 RES6   0.0000
    61 H15     -1.9879   9.8953   2.0970   H         6 RES6   0.0000
    62 C18     -0.9569   8.4163   6.0590   C.ar      6 RES6   0.0000
    63 C19      0.8123   9.6211   6.9546   C.ar      6 RES6   0.0000
    64 C20      1.6640  10.7554   6.7275   C.ar      6 RES6   0.0000
    65 C21      2.6474  11.2018   7.5891   C.ar      6 RES6   0.0000
    66 H16      2.8273  10.7384   8.3986   H         6 RES6   0.0000
    67 C22      3.3650  12.3329   7.2559   C.ar      6 RES6   0.0000
    68 H17      4.0719  12.6351   7.8128   H         6 RES6   0.0000
    69 C23      3.0376  13.0327   6.0802   C.ar      6 RES6   0.0000
    70 H18      3.4922  13.8360   5.8545   H         6 RES6   0.0000
    71 C24      2.0256  12.5259   5.2441   C.ar      6 RES6   0.0000
    72 H19      1.8128  12.9917   4.4439   H         6 RES6   0.0000
    73 C25     -0.0884   7.8653   8.0369   C.ar      6 RES6   0.0000
    74 C26     -0.0804   7.0190   9.2508   C.ar      6 RES6   0.0000
    75 C27      0.9424   6.9966  10.1698   C.ar      6 RES6   0.0000
    76 H20      1.6996   7.5623  10.0756   H         6 RES6   0.0000
    77 C28      0.8280   6.1115  11.2479   C.ar      6 RES6   0.0000
    78 H21      1.5279   6.0748  11.8895   H         6 RES6   0.0000
    79 C29     -0.2399   5.3160  11.4049   C.ar      6 RES6   0.0000
    80 H22     -0.2958   4.7175  12.1400   H         6 RES6   0.0000
    81 C30     -1.2560   5.3841  10.4711   C.ar      6 RES6   0.0000
    82 H23     -2.0290   4.8420  10.5736   H         6 RES6   0.0000
    83 O2      -3.5020   5.4104   8.2428   O.3       7 RES7   0.0000
    84 H24     -3.3760   4.6671   7.7886   H         7 RES7   0.0000
    85 H25     -4.1469   5.8376   7.8311   H         7 RES7   0.0000
    86 O3      -3.2478  15.5684   1.6171   O.3       8 RES8   0.0000
    87 H26     -4.0404  15.5014   1.2733   H         8 RES8   0.0000
    88 H27     -3.0803  16.4043   1.7827   H         8 RES8   0.0000
@<TRIPOS>BOND
     1     1     2    1
     2     2     3    1
     3     3     4    1
     4     4     5    1
     5     6     7    1
     6     7     8    1
     7     9    10    1
     8    10     6    1
     9    11    12    1
    10    13    14    1
    11    14    15    1
    12    16    17    1
    13    18    20    1
    14    19    42    2
    15    20    33   ar
    16    21    18    1
    17    22    18    1
    18    23    24    1
    19    25    23    1
    20    26    18    1
    21    27    18    1
    22    28    18    1
    23    29    62   ar
    24    30    63   ar
    25    31    32    1
    26    33    34   ar
    27    34    35    1
    28    36    34   ar
    29    37    36    1
    30    38    36   ar
    31    39    38    1
    32    40    20   ar
    33    41    40    1
    34    42    21    1
    35    43    21    2
    36    44    22   ar
    37    45    44   ar
    38    46    45    1
    39    47    45   ar
    40    48    47    1
    41    49    47   ar
    42    50    49    1
    43    51    22   ar
    44    52    51    1
    45    53    26   ar
    46    54    53   ar
    47    55    54    1
    48    56    54   ar
    49    57    56    1
    50    58    56   ar
    51    59    58    1
    52    60    26   ar
    53    61    60    1
    54    62    27   ar
    55    63    27   ar
    56    64    28   ar
    57    65    64   ar
    58    66    65    1
    59    67    65   ar
    60    68    67    1
    61    69    67   ar
    62    70    69    1
    63    71    28   ar
    64    72    71    1
    65    73    29   ar
    66    74    31   ar
    67    75    74   ar
    68    76    75    1
    69    77    75   ar
    70    78    77    1
    71    79    77   ar
    72    80    79    1
    73    81    31   ar
    74    82    81    1
    75    23    43    1
    76    30    73   ar
    77    33    42    1
    78    38    40   ar
    79    43    44    1
    80    49    51   ar
    81    53    62    1
    82    58    60   ar
    83    63    64    1
    84    69    71   ar
    85    73    74    1
    86    79    81   ar
    87    83    84    1
    88    85    83    1
    89    86    87    1
    90    88    86    1
@<TRIPOS>SUBSTRUCTURE
     1 RES1        1 GROUP             0 ****  ****    0  
     2 RES2        6 GROUP             0 ****  ****    0  
     3 RES3       11 GROUP             0 ****  ****    0  
     4 RES4       13 GROUP             0 ****  ****    0  
     5 RES5       16 GROUP             0 ****  ****    0  
     6 RES6       18 GROUP             0 ****  ****    0  
     7 RES7       83 GROUP             0 ****  ****    0  
     8 RES8       86 GROUP             0 ****  ****    0  
@<TRIPOS>CRYSIN
   10.3658   13.9906   21.5956   97.0570   94.9320  110.7400     2     1
