@<TRIPOS>MOLECULE
XEMFII
   139   148     1     0     0
SMALL
NO_CHARGES
****
Generated from the CSD

@<TRIPOS>ATOM
     1 Fe1      5.3321  11.9609   9.8627   Fe        1 RES1   0.0000
     2 P1       7.2512  12.9613  10.5868   P.3       1 RES1   0.0000
     3 P2       4.6104  14.0157  10.5233   P.3       1 RES1   0.0000
     4 O1       5.3670  10.6104   7.2881   O.2       1 RES1   0.0000
     5 N1       5.4309  14.9206   7.3351   N.pl3     1 RES1   0.0000
     6 O2       3.7873   9.6584  10.7506   O.2       1 RES1   0.0000
     7 N2       6.4405  11.8192  13.6463   N.pl3     1 RES1   0.0000
     8 N3       4.4949  12.7730  13.7371   N.pl3     1 RES1   0.0000
     9 N4       7.5248  14.3386   7.5001   N.pl3     1 RES1   0.0000
    10 C1       6.3349  14.3491   8.1824   C.2       1 RES1   0.0000
    11 C2       5.9153  11.5717  14.9146   C.2       1 RES1   0.0000
    12 H1       6.3333  11.0769  15.6098   H         1 RES1   0.0000
    13 C3       4.7165  12.1599  14.9712   C.2       1 RES1   0.0000
    14 H2       4.1247  12.1605  15.7141   H         1 RES1   0.0000
    15 C4       8.8231  14.0775   8.0932   C.ar      1 RES1   0.0000
    16 C5       9.3903  12.8106   7.9435   C.ar      1 RES1   0.0000
    17 C6       7.3360  14.8727   6.2336   C.2       1 RES1   0.0000
    18 H3       8.0025  14.9696   5.5630   H         1 RES1   0.0000
    19 C7       6.1139  13.8946   9.4885   C.ar      1 RES1   0.0000
    20 C8       8.7150  13.6041  13.8446   C.3       1 RES1   0.0000
    21 H4       7.8029  13.9335  13.5987   H         1 RES1   0.0000
    22 C9       3.6823  15.0583  13.6496   C.ar      1 RES1   0.0000
    23 C10      5.5621  12.5619  12.9216   C.2       1 RES1   0.0000
    24 C11      7.7335  11.3294  13.2098   C.ar      1 RES1   0.0000
    25 C12      9.4589  15.1340   8.7534   C.ar      1 RES1   0.0000
    26 C13      7.8044  10.0219  12.7305   C.ar      1 RES1   0.0000
    27 C14      5.0021  15.5767  14.1806   C.3       1 RES1   0.0000
    28 H5       5.6057  14.7882  14.2994   H         1 RES1   0.0000
    29 C15      5.7442  13.0663  11.6089   C.ar      1 RES1   0.0000
    30 C16      6.5762   9.1463  12.5762   C.3       1 RES1   0.0000
    31 H6       5.7850   9.7518  12.4909   H         1 RES1   0.0000
    32 C17      4.4205  10.5918  10.4296   C.1       1 RES1   0.0000
    33 C18      5.3606  11.1942   8.3146   C.1       1 RES1   0.0000
    34 C19      9.0747   9.5456  12.4015   C.ar      1 RES1   0.0000
    35 H7       9.1684   8.6582  12.0754   H         1 RES1   0.0000
    36 C20      2.6405  15.9364  13.3356   C.ar      1 RES1   0.0000
    37 H8       2.7689  16.8716  13.4413   H         1 RES1   0.0000
    38 C21      4.0889  15.3321   7.6842   C.ar      1 RES1   0.0000
    39 C22     11.2917  13.6225   9.1990   C.ar      1 RES1   0.0000
    40 H9      12.1424  13.4597   9.5905   H         1 RES1   0.0000
    41 C23      3.4267  13.6892  13.4501   C.ar      1 RES1   0.0000
    42 C24      1.7306  14.9875   7.6544   C.ar      1 RES1   0.0000
    43 H10      0.9704  14.4584   7.4441   H         1 RES1   0.0000
    44 C25      1.4197  15.4628  12.8720   C.ar      1 RES1   0.0000
    45 H11      0.7232  16.0770  12.6725   H         1 RES1   0.0000
    46 C26      6.6361   8.2878  11.3093   C.3       1 RES1   0.0000
    47 H12      6.7983   8.8629  10.5324   H         1 RES1   0.0000
    48 H13      5.7857   7.8152  11.1941   H         1 RES1   0.0000
    49 H14      7.3638   7.6361  11.3905   H         1 RES1   0.0000
    50 C27      8.8325  12.1773  13.3432   C.ar      1 RES1   0.0000
    51 C28     10.6509  12.6085   8.5149   C.ar      1 RES1   0.0000
    52 H15     11.0719  11.7611   8.4315   H         1 RES1   0.0000
    53 C29      6.0511  15.2270   6.1243   C.2       1 RES1   0.0000
    54 H16      5.6378  15.6157   5.3625   H         1 RES1   0.0000
    55 C30      2.2134  13.1854  12.9832   C.ar      1 RES1   0.0000
    56 C31     10.7145  14.8698   9.3212   C.ar      1 RES1   0.0000
    57 H17     11.1708  15.5558   9.7942   H         1 RES1   0.0000
    58 C32     10.1987  10.3378  12.5401   C.ar      1 RES1   0.0000
    59 H18     11.0534   9.9863  12.3197   H         1 RES1   0.0000
    60 C33      3.0147  14.5144   7.3372   C.ar      1 RES1   0.0000
    61 C34      1.9779  11.6956  12.7990   C.3       1 RES1   0.0000
    62 H19      2.8734  11.2549  12.7367   H         1 RES1   0.0000
    63 C35      1.2080  14.1099  12.6979   C.ar      1 RES1   0.0000
    64 H20      0.3665  13.8044  12.3796   H         1 RES1   0.0000
    65 C36      1.5612  16.2103   8.2670   C.ar      1 RES1   0.0000
    66 H21      0.6837  16.5160   8.4612   H         1 RES1   0.0000
    67 C37      8.7096  11.6819   7.1748   C.3       1 RES1   0.0000
    68 H22      7.7659  11.9557   6.9920   H         1 RES1   0.0000
    69 C38      1.2187  11.3831  11.5034   C.3       1 RES1   0.0000
    70 H23      0.3015  11.7194  11.5722   H         1 RES1   0.0000
    71 H24      1.2023  10.4138  11.3596   H         1 RES1   0.0000
    72 H25      1.6697  11.8168  10.7479   H         1 RES1   0.0000
    73 C39      9.7326  14.5495  13.2019   C.3       1 RES1   0.0000
    74 H26     10.6248  14.3604  13.5594   H         1 RES1   0.0000
    75 H27      9.4891  15.4771  13.4039   H         1 RES1   0.0000
    76 H28      9.7341  14.4163  12.2310   H         1 RES1   0.0000
    77 C40      6.3617   8.2801  13.8274   C.3       1 RES1   0.0000
    78 H29      7.1638   7.7429  13.9945   H         1 RES1   0.0000
    79 H30      5.5944   7.6868  13.6863   H         1 RES1   0.0000
    80 H31      6.1891   8.8587  14.5994   H         1 RES1   0.0000
    81 C41      5.1354  17.4185   8.7373   C.3       1 RES1   0.0000
    82 H32      5.8809  16.7886   8.9573   H         1 RES1   0.0000
    83 C42      3.9408  16.5750   8.3326   C.ar      1 RES1   0.0000
    84 C43      5.6272  18.3194   7.6022   C.3       1 RES1   0.0000
    85 H33      5.8625  17.7681   6.8260   H         1 RES1   0.0000
    86 H34      6.4152  18.8196   7.8984   H         1 RES1   0.0000
    87 H35      4.9164  18.9468   7.3519   H         1 RES1   0.0000
    88 C44      8.5471  16.8645  10.3434   C.3       1 RES1   0.0000
    89 H36      7.9211  16.2036  10.7064   H         1 RES1   0.0000
    90 H37      8.1447  17.7569  10.3929   H         1 RES1   0.0000
    91 H38      9.3762  16.8506  10.8654   H         1 RES1   0.0000
    92 C45      8.6803  10.3800   7.9724   C.3       1 RES1   0.0000
    93 H39      8.1676   9.7061   7.4789   H         1 RES1   0.0000
    94 H40      8.2577  10.5394   8.8422   H         1 RES1   0.0000
    95 H41      9.5961  10.0588   8.1081   H         1 RES1   0.0000
    96 C46      8.8262  13.6601  15.3636   C.3       1 RES1   0.0000
    97 H42      8.1310  13.0962  15.7631   H         1 RES1   0.0000
    98 H43      8.7095  14.5851  15.6657   H         1 RES1   0.0000
    99 H44      9.7085  13.3351  15.6387   H         1 RES1   0.0000
   100 C47      5.6917  16.5343  13.2178   C.3       1 RES1   0.0000
   101 H45      5.1735  17.3635  13.1561   H         1 RES1   0.0000
   102 H46      5.7524  16.1192  12.3328   H         1 RES1   0.0000
   103 H47      6.5924  16.7354  13.5476   H         1 RES1   0.0000
   104 C48      8.8591  16.5232   8.8741   C.3       1 RES1   0.0000
   105 H48      7.9962  16.5281   8.3690   H         1 RES1   0.0000
   106 C49      3.1832  13.1875   6.6167   C.3       1 RES1   0.0000
   107 H49      4.1363  12.9060   6.7266   H         1 RES1   0.0000
   108 C50      2.3103  12.0798   7.1938   C.3       1 RES1   0.0000
   109 H50      1.3694  12.2703   6.9988   H         1 RES1   0.0000
   110 H51      2.4412  12.0321   8.1631   H         1 RES1   0.0000
   111 H52      2.5608  11.2228   6.7876   H         1 RES1   0.0000
   112 C51      2.9237  13.3528   5.1157   C.3       1 RES1   0.0000
   113 H53      3.0978  12.5047   4.6582   H         1 RES1   0.0000
   114 H54      3.5172  14.0460   4.7563   H         1 RES1   0.0000
   115 H55      1.9908  13.6168   4.9724   H         1 RES1   0.0000
   116 C52      9.4120  11.4695   5.8301   C.3       1 RES1   0.0000
   117 H56     10.3496  11.2292   5.9854   H         1 RES1   0.0000
   118 H57      9.3697  12.2961   5.3053   H         1 RES1   0.0000
   119 H58      8.9670  10.7476   5.3394   H         1 RES1   0.0000
   120 C53     10.0877  11.6419  12.9987   C.ar      1 RES1   0.0000
   121 H59     10.8673  12.1791  13.0813   H         1 RES1   0.0000
   122 C54      2.6318  16.9879   8.6003   C.ar      1 RES1   0.0000
   123 H60      2.4854  17.8270   9.0219   H         1 RES1   0.0000
   124 C55      1.2621  11.1141  14.0224   C.3       1 RES1   0.0000
   125 H61      1.8175  11.2442  14.8193   H         1 RES1   0.0000
   126 H62      1.1067  10.1557  13.8860   H         1 RES1   0.0000
   127 H63      0.4026  11.5691  14.1458   H         1 RES1   0.0000
   128 C56      4.8437  16.2333  15.5428   C.3       1 RES1   0.0000
   129 H64      5.7222  16.5116  15.8757   H         1 RES1   0.0000
   130 H65      4.4430  15.5958  16.1687   H         1 RES1   0.0000
   131 H66      4.2626  17.0193  15.4601   H         1 RES1   0.0000
   132 C57      9.7572  17.6066   8.2748   C.3       1 RES1   0.0000
   133 H67     10.6097  17.6261   8.7580   H         1 RES1   0.0000
   134 H68      9.3154  18.4769   8.3555   H         1 RES1   0.0000
   135 H69      9.9210  17.4079   7.3301   H         1 RES1   0.0000
   136 C58      4.8656  18.2630  10.0015   C.3       1 RES1   0.0000
   137 H70      4.2532  18.9953   9.7794   H         1 RES1   0.0000
   138 H71      5.7098  18.6322  10.3340   H         1 RES1   0.0000
   139 H72      4.4614  17.6970  10.6915   H         1 RES1   0.0000
@<TRIPOS>BOND
     1     1     2   un
     2     2    19   ar
     3     3     1   un
     4     4    33    3
     5     5    10    1
     6     6    32    3
     7     7    11    1
     8     8    13    1
     9     9    10    1
    10    10    19    1
    11    11    12    1
    12    13    11    2
    13    14    13    1
    14    15     9    1
    15    16    15   ar
    16    17     9    1
    17    18    17    1
    18    19     1   un
    19    20    21    1
    20    22    27    1
    21    23     7    1
    22    24     7    1
    23    25    15   ar
    24    26    24   ar
    25    27    28    1
    26    29     1   un
    27    30    26    1
    28    31    30    1
    29    32     1    1
    30    33     1    1
    31    34    26   ar
    32    35    34    1
    33    36    22   ar
    34    37    36    1
    35    38     5    1
    36    39    40    1
    37    41     8    1
    38    42    43    1
    39    44    36   ar
    40    45    44    1
    41    46    30    1
    42    47    46    1
    43    48    46    1
    44    49    46    1
    45    50    20    1
    46    51    16   ar
    47    52    51    1
    48    53     5    1
    49    54    53    1
    50    55    41   ar
    51    56    25   ar
    52    57    56    1
    53    58    34   ar
    54    59    58    1
    55    60    38   ar
    56    61    55    1
    57    62    61    1
    58    63    44   ar
    59    64    63    1
    60    65    42   ar
    61    66    65    1
    62    67    16    1
    63    68    67    1
    64    69    61    1
    65    70    69    1
    66    71    69    1
    67    72    69    1
    68    73    20    1
    69    74    73    1
    70    75    73    1
    71    76    73    1
    72    77    30    1
    73    78    77    1
    74    79    77    1
    75    80    77    1
    76    81    82    1
    77    83    38   ar
    78    84    81    1
    79    85    84    1
    80    86    84    1
    81    87    84    1
    82    88    89    1
    83    90    88    1
    84    91    88    1
    85    92    67    1
    86    93    92    1
    87    94    92    1
    88    95    92    1
    89    96    20    1
    90    97    96    1
    91    98    96    1
    92    99    96    1
    93   100    27    1
    94   101   100    1
    95   102   100    1
    96   103   100    1
    97   104    25    1
    98   105   104    1
    99   106    60    1
   100   107   106    1
   101   108   106    1
   102   109   108    1
   103   110   108    1
   104   111   108    1
   105   112   106    1
   106   113   112    1
   107   114   112    1
   108   115   112    1
   109   116    67    1
   110   117   116    1
   111   118   116    1
   112   119   116    1
   113   120    50   ar
   114   121   120    1
   115   122    65   ar
   116   123   122    1
   117   124    61    1
   118   125   124    1
   119   126   124    1
   120   127   124    1
   121   128    27    1
   122   129   128    1
   123   130   128    1
   124   131   128    1
   125   132   104    1
   126   133   132    1
   127   134   132    1
   128   135   132    1
   129   136    81    1
   130   137   136    1
   131   138   136    1
   132   139   136    1
   133     2    29   ar
   134     3    19   ar
   135     3    29   ar
   136     8    23    1
   137    17    53    2
   138    22    41   ar
   139    23    29    1
   140    24    50   ar
   141    39    51   ar
   142    39    56   ar
   143    42    60   ar
   144    55    63   ar
   145    58   120   ar
   146    81    83    1
   147    83   122   ar
   148    88   104    1
@<TRIPOS>SUBSTRUCTURE
     1 RES1        1 GROUP             0 ****  ****    0  
@<TRIPOS>CRYSIN
   12.5648   20.9030   20.6304   90.0000   90.2130   90.0000     9     1
