@<TRIPOS>MOLECULE
XEMRAM
    80    89     3     0     0
SMALL
USER_CHARGES
****
Generated from the CSD

@<TRIPOS>ATOM
     1 Fe1      6.9075   3.9873   4.9456   Fe        1 RES1   2.0000
     2 N1       8.5555   2.8484   2.8086   N.2       1 RES1   0.0000
     3 N2       8.4056   3.5602   3.8636   N.2       1 RES1   0.0000
     4 N3       9.5701   4.2469   4.1790   N.pl3     1 RES1   0.0000
     5 N4       8.2931   4.9874   5.9303   N.ar      1 RES1   0.0000
     6 C1       9.8519   3.0290   2.3845   C.ar      1 RES1   0.0000
     7 C2       9.4907   5.0424   5.3100   C.ar      1 RES1   0.0000
     8 C3       8.1639   5.6872   7.0741   C.ar      1 RES1   0.0000
     9 H1       7.3441   5.6621   7.5543   H         1 RES1   0.0000
    10 C4       9.2490   6.4612   7.5671   C.ar      1 RES1   0.0000
    11 H2       9.1633   6.9182   8.3955   H         1 RES1   0.0000
    12 C5      10.5854   5.8523   5.7142   C.ar      1 RES1   0.0000
    13 H3      11.3928   5.9037   5.2153   H         1 RES1   0.0000
    14 C6      10.3927   6.5521   6.8743   C.ar      1 RES1   0.0000
    15 H4      11.0869   7.1156   7.1956   H         1 RES1   0.0000
    16 C7      10.5357   3.8976   3.2351   C.ar      1 RES1   0.0000
    17 C8      12.4524   3.6403   1.9546   C.ar      1 RES1   0.0000
    18 H5      13.3641   3.8437   1.7805   H         1 RES1   0.0000
    19 C9      11.8708   4.2241   3.0318   C.ar      1 RES1   0.0000
    20 H6      12.3425   4.8139   3.6077   H         1 RES1   0.0000
    21 C10     10.4894   2.4512   1.2676   C.ar      1 RES1   0.0000
    22 H7      10.0281   1.8746   0.6694   H         1 RES1   0.0000
    23 C11     11.8086   2.7694   1.0912   C.ar      1 RES1   0.0000
    24 H8      12.2907   2.3866   0.3668   H         1 RES1   0.0000
    25 N1A      7.0692   5.9851   2.8086   N.2       1 RES1   0.0000
    26 N2A      6.5277   5.4994   3.8636   N.2       1 RES1   0.0000
    27 N3A      5.3507   6.1645   4.1790   N.pl3     1 RES1   0.0000
    28 N4A      5.3480   4.6883   5.9303   N.ar      1 RES1   0.0000
    29 C1A      6.2645   7.0175   2.3845   C.ar      1 RES1   0.0000
    30 C2A      4.7015   5.6980   5.3100   C.ar      1 RES1   0.0000
    31 C3A      4.8065   4.2265   7.0741   C.ar      1 RES1   0.0000
    32 H1A      5.2382   3.5291   7.5543   H         1 RES1   0.0000
    33 C4A      3.5936   4.7792   7.5671   C.ar      1 RES1   0.0000
    34 H2A      3.2407   4.4766   8.3955   H         1 RES1   0.0000
    35 C5A      3.4527   6.2411   5.7142   C.ar      1 RES1   0.0000
    36 H3A      3.0045   6.9146   5.2153   H         1 RES1   0.0000
    37 C6A      2.9430   5.7243   6.8743   C.ar      1 RES1   0.0000
    38 H4A      2.1080   6.0437   7.1956   H         1 RES1   0.0000
    39 C7A      5.1705   7.1754   3.2351   C.ar      1 RES1   0.0000
    40 C8A      4.4349   8.9639   1.9546   C.ar      1 RES1   0.0000
    41 H5A      3.8029   9.6518   1.7805   H         1 RES1   0.0000
    42 C9A      4.2201   8.1683   3.0318   C.ar      1 RES1   0.0000
    43 H6A      3.4735   8.2820   3.6077   H         1 RES1   0.0000
    44 C10A     6.4462   7.8585   1.2676   C.ar      1 RES1   0.0000
    45 H7A      7.1762   7.7472   0.6694   H         1 RES1   0.0000
    46 C11A     5.5110   8.8419   1.0912   C.ar      1 RES1   0.0000
    47 H8A      5.6015   9.4508   0.3668   H         1 RES1   0.0000
    48 N1B      5.0959   3.1295   2.8086   N.2       1 RES1   0.0000
    49 N2B      5.7872   2.9034   3.8636   N.2       1 RES1   0.0000
    50 N3B      5.7997   1.5516   4.1790   N.pl3     1 RES1   0.0000
    51 N4B      7.0795   2.2873   5.9303   N.ar      1 RES1   0.0000
    52 C1B      4.6041   1.9165   2.3845   C.ar      1 RES1   0.0000
    53 C2B      6.5284   1.2226   5.3100   C.ar      1 RES1   0.0000
    54 C3B      7.7502   2.0493   7.0741   C.ar      1 RES1   0.0000
    55 H1B      8.1383   2.7718   7.5543   H         1 RES1   0.0000
    56 C4B      7.8780   0.7226   7.5671   C.ar      1 RES1   0.0000
    57 H2B      8.3165   0.5682   8.3955   H         1 RES1   0.0000
    58 C5B      6.6824  -0.1304   5.7142   C.ar      1 RES1   0.0000
    59 H3B      6.3232  -0.8554   5.2153   H         1 RES1   0.0000
    60 C6B      7.3848  -0.3134   6.8743   C.ar      1 RES1   0.0000
    61 H4B      7.5257  -1.1963   7.1956   H         1 RES1   0.0000
    62 C7B      5.0144   0.8900   3.2351   C.ar      1 RES1   0.0000
    63 C8B      3.8333  -0.6412   1.9546   C.ar      1 RES1   0.0000
    64 H5B      3.5536  -1.5325   1.7805   H         1 RES1   0.0000
    65 C9B      4.6297  -0.4295   3.0318   C.ar      1 RES1   0.0000
    66 H6B      4.9046  -1.1329   3.6077   H         1 RES1   0.0000
    67 C10B     3.7850   1.6533   1.2676   C.ar      1 RES1   0.0000
    68 H7B      3.5163   2.3412   0.6694   H         1 RES1   0.0000
    69 C11B     3.4009   0.3517   1.0912   C.ar      1 RES1   0.0000
    70 H8B      2.8284   0.1256   0.3668   H         1 RES1   0.0000
    71 Cl1     13.8130   7.9757   4.7340   Cl        2 RES2   0.0000
    72 O1      13.7515   6.6610   4.2690   O.3       2 RES2  -1.0000
    73 O2      13.8130   7.9757   6.0857   O.2       2 RES2   0.0000
    74 O1A     14.9830   8.5787   4.2690   O.2       2 RES2   0.0000
    75 O1B     12.7065   8.6863   4.2690   O.2       2 RES2   0.0000
    76 Cl2     10.8824   0.4283   4.6172   Cl        3 RES3   0.0000
    77 O3      10.3071  -0.7214   4.3344   O.2       3 RES3   0.0000
    78 O4      11.8591   0.1555   5.4911   O.2       3 RES3   0.0000
    79 O5      10.1344   1.3004   5.0635   O.2       3 RES3   0.0000
    80 O6      11.9005   0.5383   3.6919   O.3       3 RES3  -1.0000
@<TRIPOS>BOND
     1     1     3    1
     2     2     3    2
     3     3     4    1
     4     4     7    1
     5     5     1    1
     6     6     2    1
     7     7     5   ar
     8     8     5   ar
     9     9     8    1
    10    10     8   ar
    11    11    10    1
    12    12     7   ar
    13    13    12    1
    14    14    10   ar
    15    15    14    1
    16    16     4    1
    17    17    18    1
    18    19    16   ar
    19    20    19    1
    20    21     6   ar
    21    22    21    1
    22    23    17   ar
    23    24    23    1
    24    25    26    2
    25    26     1    1
    26    27    26    1
    27    28     1    1
    28    29    25    1
    29    30    27    1
    30    31    28   ar
    31    32    31    1
    32    33    31   ar
    33    34    33    1
    34    35    30   ar
    35    36    35    1
    36    37    33   ar
    37    38    37    1
    38    39    27    1
    39    40    41    1
    40    42    39   ar
    41    43    42    1
    42    44    29   ar
    43    45    44    1
    44    46    40   ar
    45    47    46    1
    46    48    49    2
    47    49     1    1
    48    50    49    1
    49    51     1    1
    50    52    48    1
    51    53    50    1
    52    54    51   ar
    53    55    54    1
    54    56    54   ar
    55    57    56    1
    56    58    53   ar
    57    59    58    1
    58    60    56   ar
    59    61    60    1
    60    62    50    1
    61    63    64    1
    62    65    62   ar
    63    66    65    1
    64    67    52   ar
    65    68    67    1
    66    69    63   ar
    67    70    69    1
    68     6    16   ar
    69    12    14   ar
    70    17    19   ar
    71    21    23   ar
    72    28    30   ar
    73    29    39   ar
    74    35    37   ar
    75    40    42   ar
    76    44    46   ar
    77    51    53   ar
    78    52    62   ar
    79    58    60   ar
    80    63    65   ar
    81    67    69   ar
    82    71    72    1
    83    73    71    2
    84    74    71    2
    85    75    71    2
    86    76    77    2
    87    78    76    2
    88    79    76    2
    89    80    76    1
@<TRIPOS>SUBSTRUCTURE
     1 RES1        1 GROUP             0 ****  ****    0  
     2 RES2       71 GROUP             0 ****  ****    0  
     3 RES3       76 GROUP             0 ****  ****    0  
@<TRIPOS>CRYSIN
   13.8137   13.8137   11.6831   90.0000   90.0000  120.0000   159     1
