@<TRIPOS>MOLECULE
XENPAI
    76    77     4     0     0
SMALL
USER_CHARGES
****
Generated from the CSD

@<TRIPOS>ATOM
     1 Fe1      4.7472   2.2745   1.7036   Fe        1 RES1   1.0000
     2 S1       3.6799   0.9605   3.1936   S.2       1 RES1   0.0000
     3 S2       4.3535   0.8666   0.1010   S.3       1 RES1   0.0000
     4 O1       3.4120   1.7733   4.4857   O.2       1 RES1   0.0000
     5 N1       6.3646   1.3776   2.2596   N.2       1 RES1   0.0000
     6 N2       4.8272   3.7093   3.1208   N.3       1 RES1   0.0000
     7 H1       4.5585   3.3781   3.9132   H         1 RES1   0.0000
     8 H2       5.6686   4.0178   3.2096   H         1 RES1   0.0000
     9 N3       3.0717   3.0924   1.2386   N.2       1 RES1   0.0000
    10 C1       7.2519   2.6114   0.3973   C.3       1 RES1   0.0000
    11 H3       7.9798   3.1777   0.0910   H         1 RES1   0.0000
    12 H4       7.0943   1.9271  -0.2708   H         1 RES1   0.0000
    13 C2       7.6088   1.9796   1.7313   C.3       1 RES1   0.0000
    14 H5       8.2841   1.2933   1.6048   H         1 RES1   0.0000
    15 H6       7.9563   2.6451   2.3439   H         1 RES1   0.0000
    16 C3       6.4035   0.3590   3.0520   C.2       1 RES1   0.0000
    17 C4       5.0963  -0.1656   3.5869   C.3       1 RES1   0.0000
    18 C5       7.6897  -0.3372   3.4094   C.3       1 RES1   0.0000
    19 H7       8.0293  -0.7964   2.6369   H         1 RES1   0.0000
    20 H8       7.5208  -0.9700   4.1085   H         1 RES1   0.0000
    21 H9       8.3378   0.3055   3.7090   H         1 RES1   0.0000
    22 C6       4.7675  -1.5343   2.9432   C.3       1 RES1   0.0000
    23 H10      4.5352  -1.4034   2.0221   H         1 RES1   0.0000
    24 H11      4.0256  -1.9291   3.4071   H         1 RES1   0.0000
    25 H12      5.5277  -2.1165   3.0032   H         1 RES1   0.0000
    26 C7       5.1606  -0.2866   5.1140   C.3       1 RES1   0.0000
    27 H13      5.8512  -0.9075   5.3604   H         1 RES1   0.0000
    28 H14      4.3156  -0.6010   5.4448   H         1 RES1   0.0000
    29 H15      5.3528   0.5733   5.4958   H         1 RES1   0.0000
    30 C8       3.9183   4.8023   2.6969   C.3       1 RES1   0.0000
    31 H16      4.3439   5.3319   2.0043   H         1 RES1   0.0000
    32 H17      3.7176   5.3835   3.4471   H         1 RES1   0.0000
    33 C9       2.6497   4.1705   2.1619   C.3       1 RES1   0.0000
    34 H18      2.1179   3.8135   2.8922   H         1 RES1   0.0000
    35 H19      2.1212   4.8330   1.6891   H         1 RES1   0.0000
    36 C10      2.2711   2.6481   0.3551   C.2       1 RES1   0.0000
    37 C11      2.7370   1.4619  -0.5172   C.3       1 RES1   0.0000
    38 C12      0.8756   3.1738   0.1354   C.3       1 RES1   0.0000
    39 H20      0.3190   2.9209   0.8768   H         1 RES1   0.0000
    40 H21      0.5207   2.7989  -0.6748   H         1 RES1   0.0000
    41 H22      0.8973   4.1308   0.0621   H         1 RES1   0.0000
    42 C13      2.8651   1.9350  -1.9710   C.3       1 RES1   0.0000
    43 H23      3.0669   1.1842  -2.5326   H         1 RES1   0.0000
    44 H24      3.5723   2.5817  -2.0310   H         1 RES1   0.0000
    45 H25      2.0409   2.3357  -2.2551   H         1 RES1   0.0000
    46 C14      1.7152   0.3084  -0.4306   C.3       1 RES1   0.0000
    47 H26      0.8654   0.6139  -0.7569   H         1 RES1   0.0000
    48 H27      1.6230   0.0288   0.4839   H         1 RES1   0.0000
    49 H28      2.0159  -0.4304  -0.9633   H         1 RES1   0.0000
    50 N4       6.0261   3.4168   0.5949   N.3       1 RES1   0.0000
    51 H29      5.6539   3.6240  -0.1975   H         1 RES1   0.0000
    52 H30      6.2242   4.1814   1.0255   H         1 RES1   0.0000
    53 Cl1      0.2566   0.5996   8.4652   Cl        2 RES2  -1.0000
    54 S3      -0.3373  11.0824   4.3250   S.o2      3 RES3   0.0000
    55 O2       0.1116  11.5703   3.0322   O.2       3 RES3   0.0000
    56 O3      -1.6603  11.4216   4.7766   O.2       3 RES3   0.0000
    57 C15     -0.2632   9.3219   4.2905   C.ar      3 RES3   0.0000
    58 C16      0.7028   8.6951   3.5070   C.ar      3 RES3   0.0000
    59 H31      1.2908   9.1980   2.9898   H         3 RES3   0.0000
    60 C17      0.7927   7.3006   3.4981   C.ar      3 RES3   0.0000
    61 H32      1.4303   6.8732   2.9743   H         3 RES3   0.0000
    62 C18     -0.0978   6.5548   4.2772   C.ar      3 RES3   0.0000
    63 H33     -0.0274   5.6275   4.2905   H         3 RES3   0.0000
    64 C19     -1.0577   7.1747   5.0386   C.ar      3 RES3   0.0000
    65 H34     -1.6597   6.6679   5.5358   H         3 RES3   0.0000
    66 C20     -1.1343   8.5573   5.0452   C.ar      3 RES3   0.0000
    67 H35     -1.7788   8.9778   5.5668   H         3 RES3   0.0000
    68 N5       0.7216  11.5951   5.4092   N.pl3     3 RES3   0.0000
    69 H36      1.5448  11.3958   5.1362   H         3 RES3   0.0000
    70 H37      0.5599  11.1895   6.1861   H         3 RES3   0.0000
    71 N6       2.7218  -3.3602  -0.1376   N.1       4 RES4   0.0000
    72 C21      2.6813  -4.0525  -2.6436   C.3       4 RES4   0.0000
    73 H38      3.5381  -4.4105  -2.8900   H         4 RES4   0.0000
    74 H39      2.4878  -3.2848  -3.1874   H         4 RES4   0.0000
    75 H40      2.0061  -4.7200  -2.7812   H         4 RES4   0.0000
    76 C22      2.7121  -3.6627  -1.2319   C.1       4 RES4   0.0000
@<TRIPOS>BOND
     1     1     2    1
     2     2     4    2
     3     3     1    1
     4     5     1    1
     5     6     1    1
     6     7     6    1
     7     8     6    1
     8     9     1    1
     9    10    11    1
    10    12    10    1
    11    13     5    1
    12    14    13    1
    13    15    13    1
    14    16     5    2
    15    17     2    1
    16    18    16    1
    17    19    18    1
    18    20    18    1
    19    21    18    1
    20    22    17    1
    21    23    22    1
    22    24    22    1
    23    25    22    1
    24    26    17    1
    25    27    26    1
    26    28    26    1
    27    29    26    1
    28    30     6    1
    29    31    30    1
    30    32    30    1
    31    33     9    1
    32    34    33    1
    33    35    33    1
    34    36     9    2
    35    37     3    1
    36    38    36    1
    37    39    38    1
    38    40    38    1
    39    41    38    1
    40    42    37    1
    41    43    42    1
    42    44    42    1
    43    45    42    1
    44    46    37    1
    45    47    46    1
    46    48    46    1
    47    49    46    1
    48    50     1    1
    49    51    50    1
    50    52    50    1
    51    10    13    1
    52    10    50    1
    53    16    17    1
    54    30    33    1
    55    36    37    1
    56    54    55    2
    57    56    54    2
    58    57    54    1
    59    58    57   ar
    60    59    58    1
    61    60    58   ar
    62    61    60    1
    63    62    60   ar
    64    63    62    1
    65    64    62   ar
    66    65    64    1
    67    66    57   ar
    68    67    66    1
    69    68    54    1
    70    69    68    1
    71    70    68    1
    72    64    66   ar
    73    71    76    3
    74    72    73    1
    75    74    72    1
    76    75    72    1
    77    76    72    1
@<TRIPOS>SUBSTRUCTURE
     1 RES1        1 GROUP             0 ****  ****    0  
     2 RES2       53 GROUP             0 ****  ****    0  
     3 RES3       54 GROUP             0 ****  ****    0  
     4 RES4       71 GROUP             0 ****  ****    0  
@<TRIPOS>CRYSIN
   13.5500    9.9180   25.0040   90.0000  117.4130   90.0000    14     1
