@<TRIPOS>MOLECULE
XESNER
    95    96     8     0     0
SMALL
USER_CHARGES
****
Generated from the CSD

@<TRIPOS>ATOM
     1 Fe1      4.1213  18.0318   1.7010   Fe        1 RES1  -1.0000
     2 C1       2.8925  18.4614   3.0604   C.1       1 RES1   0.0000
     3 C2       2.7692  18.0346   0.3610   C.1       1 RES1   0.0000
     4 C3       5.4119  17.5728   0.3572   C.1       1 RES1  -1.0000
     5 C4       5.5040  18.0271   3.0287   C.1       1 RES1  -1.0000
     6 C5       3.8237  16.1725   2.0363   C.1       1 RES1  -1.0000
     7 C6       4.3968  19.8567   1.3663   C.1       1 RES1   0.0000
     8 N1       2.1694  18.7244   3.8970   N.1       1 RES1   1.0000
     9 N2       1.9639  18.0692  -0.4496   N.1       1 RES1   1.0000
    10 N3       6.2133  17.3008  -0.4212   N.1       1 RES1   0.0000
    11 N4       6.3249  18.0390   3.8361   N.1       1 RES1   0.0000
    12 N5       3.6481  15.0620   2.2504   N.1       1 RES1   0.0000
    13 N6       4.5524  20.9630   1.1465   N.1       1 RES1   1.0000
    14 H1       1.3231  18.1623  -1.1344   H         1 RES1   0.0000
    15 H2       1.5568  18.8054   4.5352   H         1 RES1   0.0000
    16 H3       4.6402  21.8180   0.9800   H         1 RES1   0.0000
    17 C7      -7.7811  25.3808   6.3722   C.ar      2 RES2   0.0000
    18 H4      -8.4195  25.2464   5.7100   H         2 RES2   0.0000
    19 C8      -7.3091  26.6124   6.5920   C.ar      2 RES2   0.0000
    20 H5      -7.6123  27.3208   6.0714   H         2 RES2   0.0000
    21 C9      -6.3730  26.8457   7.5843   C.ar      2 RES2   0.0000
    22 H6      -6.0626  27.7125   7.7227   H         2 RES2   0.0000
    23 C10     -5.9021  25.8445   8.3512   C.ar      2 RES2   0.0000
    24 H7      -5.2632  26.0225   9.0029   H         2 RES2   0.0000
    25 C11     -6.3711  24.5239   8.1721   C.ar      2 RES2   0.0000
    26 C12     -7.3224  24.2821   7.1329   C.ar      2 RES2   0.0000
    27 C13     -5.9161  21.2118   9.4488   C.ar      2 RES2   0.0000
    28 H8      -5.3249  21.3465  10.1532   H         2 RES2   0.0000
    29 C14     -6.3290  19.9805   9.1646   C.ar      2 RES2   0.0000
    30 H9      -6.0185  19.2793   9.6902   H         2 RES2   0.0000
    31 C15     -7.2080  19.6848   8.1123   C.ar      2 RES2   0.0000
    32 H10     -7.4547  18.8054   7.9335   H         2 RES2   0.0000
    33 C16     -7.7021  20.7343   7.3381   C.ar      2 RES2   0.0000
    34 H11     -8.2933  20.5680   6.6398   H         2 RES2   0.0000
    35 C17     -7.2927  22.0481   7.6333   C.ar      2 RES2   0.0000
    36 C18     -6.3662  22.3209   8.6905   C.ar      2 RES2   0.0000
    37 N7      -7.7832  23.0525   6.8741   N.ar      2 RES2   0.0000
    38 N8      -5.9252  23.5365   8.9534   N.ar      2 RES2   0.0000
    39 C19     -2.6334  26.0619   1.7459   C.ar      3 RES3   0.0000
    40 H12     -3.1671  26.3803   1.0535   H         3 RES3   0.0000
    41 C20     -1.8790  26.9139   2.4489   C.ar      3 RES3   0.0000
    42 H13     -1.8928  27.8189   2.2369   H         3 RES3   0.0000
    43 C21     -1.0645  26.4639   3.5024   C.ar      3 RES3   0.0000
    44 H14     -0.5470  27.0742   3.9753   H         3 RES3   0.0000
    45 C22     -1.0234  25.1567   3.8388   C.ar      3 RES3   0.0000
    46 H15     -0.4838  24.8740   4.5413   H         3 RES3   0.0000
    47 C23     -1.8053  24.2152   3.1203   C.ar      3 RES3   0.0000
    48 C24     -2.6278  24.6787   2.0500   C.ar      3 RES3   0.0000
    49 C25     -2.5272  20.6891   3.0786   C.ar      3 RES3   0.0000
    50 H16     -1.9981  20.3697   3.7732   H         3 RES3   0.0000
    51 C26     -3.3068  19.8385   2.3803   C.ar      3 RES3   0.0000
    52 H17     -3.3110  18.9360   2.6069   H         3 RES3   0.0000
    53 C27     -4.1167  20.2853   1.3133   C.ar      3 RES3   0.0000
    54 H18     -4.6450  19.6758   0.8490   H         3 RES3   0.0000
    55 C28     -4.1321  21.5924   0.9604   C.ar      3 RES3   0.0000
    56 H19     -4.6603  21.8760   0.2487   H         3 RES3   0.0000
    57 C29     -3.3394  22.5322   1.6791   C.ar      3 RES3   0.0000
    58 C30     -2.5171  22.0696   2.7547   C.ar      3 RES3   0.0000
    59 N9      -3.3858  23.8291   1.3307   N.ar      3 RES3   0.0000
    60 N10     -1.7528  22.9161   3.4524   N.ar      3 RES3   0.0000
    61 C31     -0.9343  21.6270  -0.5482   C.ar      4 RES4   0.0000
    62 H20     -1.5595  21.4746  -1.2189   H         4 RES4   0.0000
    63 C32     -0.4599  20.5953   0.1789   C.ar      4 RES4   0.0000
    64 H21     -0.7661  19.7338   0.0049   H         4 RES4   0.0000
    65 C33      0.4889  20.7998   1.1969   C.ar      4 RES4   0.0000
    66 H22      0.7952  20.0723   1.6881   H         4 RES4   0.0000
    67 C34      0.9606  22.0271   1.4719   C.ar      4 RES4   0.0000
    68 H23      1.5956  22.1419   2.1414   H         4 RES4   0.0000
    69 C35      0.4892  23.1492   0.7393   C.ar      4 RES4   0.0000
    70 C36     -0.4776  22.9466  -0.2914   C.ar      4 RES4   0.0000
    71 N11     -0.9510  23.9741  -1.0170   N.ar      4 RES4   0.0000
    72 C31B     0.9343  26.7284   0.5482   C.ar      4 RES4   0.0000
    73 H20B     1.5595  26.8808   1.2189   H         4 RES4   0.0000
    74 C32B     0.4599  27.7601  -0.1789   C.ar      4 RES4   0.0000
    75 H21B     0.7661  28.6216  -0.0049   H         4 RES4   0.0000
    76 C33B    -0.4889  27.5556  -1.1969   C.ar      4 RES4   0.0000
    77 H22B    -0.7952  28.2831  -1.6881   H         4 RES4   0.0000
    78 C34B    -0.9606  26.3283  -1.4719   C.ar      4 RES4   0.0000
    79 H23B    -1.5956  26.2135  -2.1414   H         4 RES4   0.0000
    80 C35B    -0.4892  25.2062  -0.7393   C.ar      4 RES4   0.0000
    81 C36B     0.4776  25.4088   0.2914   C.ar      4 RES4   0.0000
    82 N11B     0.9510  24.3813   1.0170   N.ar      4 RES4   0.0000
    83 O1      -4.6250  24.8643  11.4120   O.3       5 RES5   0.0000
    84 H24     -4.1114  24.4533  11.9651   H         5 RES5   0.0000
    85 H25     -4.7662  24.3445  10.7437   H         5 RES5   0.0000
    86 O2      -2.4923  23.6090   9.2085   O.3       6 RES6   1.0000
    87 H26     -1.8742  23.7570   9.9291   H         6 RES6   0.0000
    88 H27     -2.4760  22.7125   8.8657   H         6 RES6   0.0000
    89 H28     -2.4631  24.2841   8.5276   H         6 RES6   0.0000
    90 O3       0.1376  22.0489   5.4172   O.3       7 RES7   0.0000
    91 H29     -0.5559  22.2749   4.9615   H         7 RES7   0.0000
    92 H30      0.0482  21.2232   5.6352   H         7 RES7   0.0000
    93 O4       2.6052  22.7938   4.6888   O.3       8 RES8   0.0000
    94 H31      3.1798  22.8262   5.3265   H         8 RES8   0.0000
    95 H32      1.8183  22.7730   5.0411   H         8 RES8   0.0000
@<TRIPOS>BOND
     1     1     2    1
     2     2     8    3
     3     3     1    1
     4     4     1    1
     5     5     1    1
     6     6     1    1
     7     7     1    1
     8     8    15    1
     9     9     3    3
    10    10     4    3
    11    11     5    3
    12    12     6    3
    13    13     7    3
    14    14     9    1
    15    16    13    1
    16    17    18    1
    17    19    17   ar
    18    20    19    1
    19    21    19   ar
    20    22    21    1
    21    23    21   ar
    22    24    23    1
    23    25    23   ar
    24    26    17   ar
    25    27    28    1
    26    29    27   ar
    27    30    29    1
    28    31    29   ar
    29    32    31    1
    30    33    31   ar
    31    34    33    1
    32    35    33   ar
    33    36    27   ar
    34    37    26   ar
    35    38    25   ar
    36    25    26   ar
    37    35    36   ar
    38    35    37   ar
    39    36    38   ar
    40    39    40    1
    41    41    39   ar
    42    42    41    1
    43    43    41   ar
    44    44    43    1
    45    45    43   ar
    46    46    45    1
    47    47    45   ar
    48    48    39   ar
    49    49    50    1
    50    51    49   ar
    51    52    51    1
    52    53    51   ar
    53    54    53    1
    54    55    53   ar
    55    56    55    1
    56    57    55   ar
    57    58    49   ar
    58    59    48   ar
    59    60    47   ar
    60    47    48   ar
    61    57    58   ar
    62    57    59   ar
    63    58    60   ar
    64    61    62    1
    65    63    61   ar
    66    64    63    1
    67    65    63   ar
    68    66    65    1
    69    67    65   ar
    70    68    67    1
    71    69    67   ar
    72    70    61   ar
    73    71    70   ar
    74    72    73    1
    75    74    72   ar
    76    75    74    1
    77    76    74   ar
    78    77    76    1
    79    78    76   ar
    80    79    78    1
    81    80    71   ar
    82    81    72   ar
    83    82    69   ar
    84    69    70   ar
    85    78    80   ar
    86    80    81   ar
    87    81    82   ar
    88    83    84    1
    89    85    83    1
    90    86    87    1
    91    88    86    1
    92    89    86    1
    93    90    91    1
    94    92    90    1
    95    93    94    1
    96    95    93    1
@<TRIPOS>SUBSTRUCTURE
     1 RES1        1 GROUP             0 ****  ****    0  
     2 RES2       17 GROUP             0 ****  ****    0  
     3 RES3       39 GROUP             0 ****  ****    0  
     4 RES4       61 GROUP             0 ****  ****    0  
     5 RES5       83 GROUP             0 ****  ****    0  
     6 RES6       86 GROUP             0 ****  ****    0  
     7 RES7       90 GROUP             0 ****  ****    0  
     8 RES8       93 GROUP             0 ****  ****    0  
@<TRIPOS>CRYSIN
   12.1613   24.1777   17.0958   90.0000  134.2270   90.0000    14     1
