@<TRIPOS>MOLECULE
XETFUA
    84    92     4     0     0
SMALL
USER_CHARGES
****
Generated from the CSD

@<TRIPOS>ATOM
     1 Fe1      4.4922   5.3211  16.7393   Fe        1 RES1   2.0000
     2 O1       6.5707   8.1598  14.7624   O.3       1 RES1   0.0000
     3 O2       0.4505   5.3234  16.9189   O.3       1 RES1   0.0000
     4 O3       5.9597   5.8850  20.4493   O.3       1 RES1   0.0000
     5 O4       5.3093   2.0518  14.5255   O.3       1 RES1   0.0000
     6 N1       5.9791   6.3384  15.9525   N.2       1 RES1   0.0000
     7 N2       3.5371   6.7373  15.9196   N.ar      1 RES1   0.0000
     8 N3       2.6311   4.8236  17.2118   N.2       1 RES1   0.0000
     9 N4      -0.0478  11.8607  12.6558   N.ar      1 RES1   0.0000
    10 N5       4.8379   6.0913  18.5060   N.2       1 RES1   0.0000
    11 N6       5.6220   3.9925  17.4728   N.ar      1 RES1   0.0000
    12 N7       4.4818   4.0100  15.2771   N.2       1 RES1   0.0000
    13 N8      10.6299  -0.4539  19.8077   N.ar      1 RES1   0.0000
    14 C1       7.4412   6.2046  15.7987   C.3       1 RES1   0.0000
    15 H1       7.6696   5.4709  15.1744   H         1 RES1   0.0000
    16 H2       7.8788   6.0374  16.6710   H         1 RES1   0.0000
    17 C2       7.8426   7.5628  15.2293   C.3       1 RES1   0.0000
    18 H3       8.2618   8.1263  15.9264   H         1 RES1   0.0000
    19 H4       8.4791   7.4555  14.4779   H         1 RES1   0.0000
    20 C3       5.6258   7.4113  15.3381   C.2       1 RES1   0.0000
    21 C4       4.2021   7.7160  15.2746   C.ar      1 RES1   0.0000
    22 C5       3.5530   8.7595  14.6504   C.ar      1 RES1   0.0000
    23 H5       4.0453   9.4363  14.2007   H         1 RES1   0.0000
    24 C6       2.1550   8.8001  14.6916   C.ar      1 RES1   0.0000
    25 C7       1.4080   9.8684  13.9914   C.ar      1 RES1   0.0000
    26 C8       1.8409  11.1914  13.9934   C.ar      1 RES1   0.0000
    27 H6       2.6399  11.4394  14.4446   H         1 RES1   0.0000
    28 C9       1.0804  12.1423  13.3211   C.ar      1 RES1   0.0000
    29 H7       1.3782  13.0438  13.3342   H         1 RES1   0.0000
    30 C10     -0.4385  10.5804  12.6426   C.ar      1 RES1   0.0000
    31 H8      -1.2269  10.3549  12.1628   H         1 RES1   0.0000
    32 C11      0.2432   9.5691  13.2904   C.ar      1 RES1   0.0000
    33 H9      -0.0799   8.6760  13.2585   H         1 RES1   0.0000
    34 C12      1.4710   7.7972  15.3858   C.ar      1 RES1   0.0000
    35 H10      0.5233   7.8132  15.4460   H         1 RES1   0.0000
    36 C13      2.1910   6.7824  15.9839   C.ar      1 RES1   0.0000
    37 C14      1.7294   5.6064  16.7334   C.2       1 RES1   0.0000
    38 C15      0.4453   4.1315  17.7947   C.3       1 RES1   0.0000
    39 H11     -0.1081   3.4100  17.4045   H         1 RES1   0.0000
    40 H12      0.0942   4.3548  18.6923   H         1 RES1   0.0000
    41 C16      1.9268   3.7070  17.8751   C.3       1 RES1   0.0000
    42 H13      2.2191   3.6094  18.8161   H         1 RES1   0.0000
    43 H14      2.0803   2.8529  17.3971   H         1 RES1   0.0000
    44 C17      4.3514   7.2326  19.3090   C.3       1 RES1   0.0000
    45 H15      3.4078   7.1051  19.5828   H         1 RES1   0.0000
    46 H16      4.4324   8.0834  18.8105   H         1 RES1   0.0000
    47 C18      5.2910   7.2022  20.5201   C.3       1 RES1   0.0000
    48 H17      5.9548   7.9362  20.4678   H         1 RES1   0.0000
    49 H18      4.7810   7.2915  21.3639   H         1 RES1   0.0000
    50 C19      5.6701   5.4307  19.2277   C.2       1 RES1   0.0000
    51 C20      6.2214   4.2113  18.6614   C.ar      1 RES1   0.0000
    52 C21      7.2022   3.3662  19.1440   C.ar      1 RES1   0.0000
    53 H19      7.6230   3.5479  19.9764   H         1 RES1   0.0000
    54 C22      7.5726   2.2374  18.3967   C.ar      1 RES1   0.0000
    55 C23      8.6181   1.3038  18.8787   C.ar      1 RES1   0.0000
    56 C24      8.9971   1.2677  20.2228   C.ar      1 RES1   0.0000
    57 H20      8.5788   1.8392  20.8540   H         1 RES1   0.0000
    58 C25      9.9898   0.3883  20.6251   C.ar      1 RES1   0.0000
    59 H21     10.2322   0.3839  21.5431   H         1 RES1   0.0000
    60 C26     10.2691  -0.4066  18.5136   C.ar      1 RES1   0.0000
    61 H22     10.7090  -0.9876  17.9052   H         1 RES1   0.0000
    62 C27      9.2915   0.4385  18.0175   C.ar      1 RES1   0.0000
    63 H23      9.0805   0.4286  17.0922   H         1 RES1   0.0000
    64 C28      6.9376   2.0319  17.1562   C.ar      1 RES1   0.0000
    65 H24      7.1628   1.2802  16.6211   H         1 RES1   0.0000
    66 C29      5.9847   2.9349  16.7262   C.ar      1 RES1   0.0000
    67 C30      5.2415   2.9913  15.4743   C.2       1 RES1   0.0000
    68 C31      4.2997   2.4586  13.5149   C.3       1 RES1   0.0000
    69 H25      3.5417   1.8224  13.5005   H         1 RES1   0.0000
    70 H26      4.7032   2.4970  12.6118   H         1 RES1   0.0000
    71 C32      3.8314   3.8507  13.9607   C.3       1 RES1   0.0000
    72 H27      4.1300   4.5486  13.3268   H         1 RES1   0.0000
    73 H28      2.8449   3.8871  14.0418   H         1 RES1   0.0000
    74 Cl1     -0.1610   5.8816  12.1927   Cl        2 RES2   0.0000
    75 O5      -0.4542   4.5525  11.7214   O.2       2 RES2   0.0000
    76 O6       0.8751   6.4630  11.4099   O.2       2 RES2   0.0000
    77 O7      -1.3624   6.6986  12.0509   O.3       2 RES2  -1.0000
    78 O8       0.2077   5.8498  13.5746   O.2       2 RES2   0.0000
    79 Cl2      5.8191   1.6918   9.9854   Cl        3 RES3   0.0000
    80 O9       4.8579   2.7234   9.7157   O.2       3 RES3   0.0000
    81 O10      6.3577   1.1972   8.7577   O.2       3 RES3   0.0000
    82 O11      6.8700   2.2577  10.8004   O.3       3 RES3  -1.0000
    83 O12      5.1816   0.6213  10.7001   O.2       3 RES3   0.0000
    84 O13      6.3637   4.8920  12.1937   O.3       4 RES4   0.0000
@<TRIPOS>BOND
     1     1     6    1
     2     2    17    1
     3     3    37    1
     4     4    47    1
     5     5    67    1
     6     6    14    1
     7     7     1    1
     8     8     1    1
     9     9    28   ar
    10    10     1    1
    11    11     1    1
    12    12     1    1
    13    13    58   ar
    14    14    15    1
    15    16    14    1
    16    17    14    1
    17    18    17    1
    18    19    17    1
    19    20     2    1
    20    21     7   ar
    21    22    21   ar
    22    23    22    1
    23    24    22   ar
    24    25    24    1
    25    26    25   ar
    26    27    26    1
    27    28    26   ar
    28    29    28    1
    29    30     9   ar
    30    31    30    1
    31    32    25   ar
    32    33    32    1
    33    34    24   ar
    34    35    34    1
    35    36     7   ar
    36    37     8    2
    37    38     3    1
    38    39    38    1
    39    40    38    1
    40    41     8    1
    41    42    41    1
    42    43    41    1
    43    44    10    1
    44    45    44    1
    45    46    44    1
    46    47    44    1
    47    48    47    1
    48    49    47    1
    49    50     4    1
    50    51    11   ar
    51    52    51   ar
    52    53    52    1
    53    54    52   ar
    54    55    54    1
    55    56    55   ar
    56    57    56    1
    57    58    56   ar
    58    59    58    1
    59    60    13   ar
    60    61    60    1
    61    62    55   ar
    62    63    62    1
    63    64    54   ar
    64    65    64    1
    65    66    11   ar
    66    67    12    2
    67    68     5    1
    68    69    68    1
    69    70    68    1
    70    71    12    1
    71    72    71    1
    72    73    71    1
    73     6    20    2
    74    10    50    2
    75    20    21    1
    76    30    32   ar
    77    34    36   ar
    78    36    37    1
    79    38    41    1
    80    50    51    1
    81    60    62   ar
    82    64    66   ar
    83    66    67    1
    84    68    71    1
    85    74    75    2
    86    76    74    2
    87    77    74    1
    88    78    74    2
    89    79    80    2
    90    81    79    2
    91    82    79    1
    92    83    79    2
@<TRIPOS>SUBSTRUCTURE
     1 RES1        1 GROUP             0 ****  ****    0  
     2 RES2       74 GROUP             0 ****  ****    0  
     3 RES3       79 GROUP             0 ****  ****    0  
     4 RES4       84 GROUP             0 ****  ****    0  
@<TRIPOS>CRYSIN
   10.0977   18.6340   18.7125   90.0000   99.1170   90.0000   231     1
