@<TRIPOS>MOLECULE
XEZPUR
   120   128     2     0     0
SMALL
USER_CHARGES
****
Generated from the CSD

@<TRIPOS>ATOM
     1 Fe1     -0.3166   5.6100   0.0000   Fe        1 RES1   2.0000
     2 P1       1.4655   4.2341  -0.2328   P.3       1 RES1   0.0000
     3 P2       1.2954   6.6890  -1.1560   P.3       1 RES1   0.0000
     4 N1       2.4281   5.4451  -0.9333   N.3       1 RES1   0.0000
     5 N2      -1.0161   4.9386  -1.6436   N.1       1 RES1   0.0000
     6 C1       1.3071   2.8520  -1.3974   C.ar      1 RES1   0.0000
     7 C2       0.2242   1.9804  -1.2384   C.ar      1 RES1   0.0000
     8 H1      -0.3661   2.0864  -0.5017   H         1 RES1   0.0000
     9 C3       0.0116   0.9618  -2.1552   C.ar      1 RES1   0.0000
    10 H2      -0.7208   0.3677  -2.0402   H         1 RES1   0.0000
    11 C4       0.8636   0.8057  -3.2403   C.ar      1 RES1   0.0000
    12 H3       0.7055   0.1162  -3.8743   H         1 RES1   0.0000
    13 C5       1.9442   1.6573  -3.3963   C.ar      1 RES1   0.0000
    14 H4       2.5327   1.5441  -4.1335   H         1 RES1   0.0000
    15 C6       2.1726   2.6795  -2.4772   C.ar      1 RES1   0.0000
    16 H5       2.9177   3.2587  -2.5861   H         1 RES1   0.0000
    17 C7       2.3952   3.5493   1.1693   C.ar      1 RES1   0.0000
    18 C8       2.2882   2.1959   1.5068   C.ar      1 RES1   0.0000
    19 H6       1.8285   1.6010   0.9262   H         1 RES1   0.0000
    20 C9       2.8498   1.7127   2.6869   C.ar      1 RES1   0.0000
    21 H7       2.7554   0.7959   2.9174   H         1 RES1   0.0000
    22 C10      3.5457   2.5692   3.5238   C.ar      1 RES1   0.0000
    23 H8       3.9207   2.2418   4.3329   H         1 RES1   0.0000
    24 C11      3.6954   3.9069   3.1805   C.ar      1 RES1   0.0000
    25 H9       4.1950   4.4882   3.7418   H         1 RES1   0.0000
    26 C12      3.1133   4.3962   2.0138   C.ar      1 RES1   0.0000
    27 H10      3.2061   5.3150   1.7910   H         1 RES1   0.0000
    28 C13      2.1495   8.2080  -0.6378   C.ar      1 RES1   0.0000
    29 C14      2.0664   9.4030  -1.3586   C.ar      1 RES1   0.0000
    30 H11      1.5986   9.4263  -2.1851   H         1 RES1   0.0000
    31 C15      2.6661  10.5561  -0.8691   C.ar      1 RES1   0.0000
    32 H12      2.6005  11.3671  -1.3595   H         1 RES1   0.0000
    33 C16      3.3588  10.5305   0.3284   C.ar      1 RES1   0.0000
    34 H13      3.7618  11.3247   0.6590   H         1 RES1   0.0000
    35 C17      3.4672   9.3464   1.0496   C.ar      1 RES1   0.0000
    36 H14      3.9534   9.3257   1.8656   H         1 RES1   0.0000
    37 C18      2.8594   8.1951   0.5684   C.ar      1 RES1   0.0000
    38 H15      2.9263   7.3876   1.0642   H         1 RES1   0.0000
    39 C19      0.9352   6.8891  -2.9241   C.ar      1 RES1   0.0000
    40 C20     -0.0775   7.7853  -3.2879   C.ar      1 RES1   0.0000
    41 H16     -0.4828   8.3322  -2.6253   H         1 RES1   0.0000
    42 C21     -0.4941   7.8812  -4.6085   C.ar      1 RES1   0.0000
    43 H17     -1.1671   8.5061  -4.8517   H         1 RES1   0.0000
    44 C22      0.0771   7.0595  -5.5748   C.ar      1 RES1   0.0000
    45 H18     -0.2074   7.1198  -6.4792   H         1 RES1   0.0000
    46 C23      1.0595   6.1549  -5.2168   C.ar      1 RES1   0.0000
    47 H19      1.4388   5.5874  -5.8774   H         1 RES1   0.0000
    48 C24      1.4994   6.0665  -3.8968   C.ar      1 RES1   0.0000
    49 H20      2.1811   5.4480  -3.6617   H         1 RES1   0.0000
    50 C25      3.8611   5.4456  -1.2637   C.3       1 RES1   0.0000
    51 H21      3.9719   5.4717  -2.2371   H         1 RES1   0.0000
    52 H22      4.2784   4.6331  -0.9090   H         1 RES1   0.0000
    53 H23      4.2878   6.2328  -0.8652   H         1 RES1   0.0000
    54 C26     -1.3319   4.4962  -2.6495   C.1       1 RES1   0.0000
    55 C27     -1.7083   3.8993  -3.9278   C.3       1 RES1   0.0000
    56 H24     -1.8038   2.9299  -3.8201   H         1 RES1   0.0000
    57 H25     -1.0138   4.0872  -4.5931   H         1 RES1   0.0000
    58 H26     -2.5599   4.2801  -4.2279   H         1 RES1   0.0000
    59 P1A     -2.0987   6.9858   0.2328   P.3       1 RES1   0.0000
    60 P2A     -1.9285   4.5310   1.1560   P.3       1 RES1   0.0000
    61 N1A     -3.0613   5.7749   0.9333   N.3       1 RES1   0.0000
    62 N2A      0.3829   6.2813   1.6436   N.1       1 RES1   0.0000
    63 C1A     -1.9403   8.3679   1.3974   C.ar      1 RES1   0.0000
    64 C2A     -0.8574   9.2396   1.2384   C.ar      1 RES1   0.0000
    65 H1A     -0.2671   9.1335   0.5017   H         1 RES1   0.0000
    66 C3A     -0.6448  10.2582   2.1552   C.ar      1 RES1   0.0000
    67 H2A      0.0876  10.8522   2.0402   H         1 RES1   0.0000
    68 C4A     -1.4968  10.4142   3.2403   C.ar      1 RES1   0.0000
    69 H3A     -1.3386  11.1038   3.8743   H         1 RES1   0.0000
    70 C5A     -2.5773   9.5627   3.3963   C.ar      1 RES1   0.0000
    71 H4A     -3.1659   9.6758   4.1335   H         1 RES1   0.0000
    72 C6A     -2.8058   8.5404   2.4772   C.ar      1 RES1   0.0000
    73 H5A     -3.5509   7.9613   2.5861   H         1 RES1   0.0000
    74 C7A     -3.0284   7.6707  -1.1693   C.ar      1 RES1   0.0000
    75 C8A     -2.9214   9.0240  -1.5068   C.ar      1 RES1   0.0000
    76 H6A     -2.4616   9.6190  -0.9262   H         1 RES1   0.0000
    77 C9A     -3.4830   9.5072  -2.6869   C.ar      1 RES1   0.0000
    78 H7A     -3.3886  10.4241  -2.9174   H         1 RES1   0.0000
    79 C10A    -4.1789   8.6507  -3.5238   C.ar      1 RES1   0.0000
    80 H8A     -4.5539   8.9781  -4.3329   H         1 RES1   0.0000
    81 C11A    -4.3286   7.3130  -3.1805   C.ar      1 RES1   0.0000
    82 H9A     -4.8281   6.7317  -3.7418   H         1 RES1   0.0000
    83 C12A    -3.7465   6.8238  -2.0138   C.ar      1 RES1   0.0000
    84 H10A    -3.8393   5.9050  -1.7910   H         1 RES1   0.0000
    85 C13A    -2.7827   3.0119   0.6378   C.ar      1 RES1   0.0000
    86 C14A    -2.6996   1.8170   1.3586   C.ar      1 RES1   0.0000
    87 H11A    -2.2318   1.7937   2.1851   H         1 RES1   0.0000
    88 C15A    -3.2993   0.6639   0.8691   C.ar      1 RES1   0.0000
    89 H12A    -3.2336  -0.1472   1.3595   H         1 RES1   0.0000
    90 C16A    -3.9920   0.6895  -0.3284   C.ar      1 RES1   0.0000
    91 H13A    -4.3950  -0.1048  -0.6590   H         1 RES1   0.0000
    92 C17A    -4.1004   1.8735  -1.0496   C.ar      1 RES1   0.0000
    93 H14A    -4.5866   1.8942  -1.8656   H         1 RES1   0.0000
    94 C18A    -3.4926   3.0248  -0.5684   C.ar      1 RES1   0.0000
    95 H15A    -3.5595   3.8324  -1.0642   H         1 RES1   0.0000
    96 C19A    -1.5684   4.3308   2.9241   C.ar      1 RES1   0.0000
    97 C20A    -0.5557   3.4346   3.2879   C.ar      1 RES1   0.0000
    98 H16A    -0.1503   2.8877   2.6253   H         1 RES1   0.0000
    99 C21A    -0.1391   3.3387   4.6085   C.ar      1 RES1   0.0000
   100 H17A     0.5339   2.7138   4.8517   H         1 RES1   0.0000
   101 C22A    -0.7103   4.1604   5.5748   C.ar      1 RES1   0.0000
   102 H18A    -0.4258   4.1001   6.4792   H         1 RES1   0.0000
   103 C23A    -1.6927   5.0650   5.2168   C.ar      1 RES1   0.0000
   104 H19A    -2.0720   5.6326   5.8774   H         1 RES1   0.0000
   105 C24A    -2.1326   5.1535   3.8968   C.ar      1 RES1   0.0000
   106 H20A    -2.8143   5.7719   3.6617   H         1 RES1   0.0000
   107 C25A    -4.4943   5.7743   1.2637   C.3       1 RES1   0.0000
   108 H21A    -4.6050   5.7483   2.2371   H         1 RES1   0.0000
   109 H22A    -4.9116   6.5869   0.9090   H         1 RES1   0.0000
   110 H23A    -4.9210   4.9872   0.8652   H         1 RES1   0.0000
   111 C26A     0.6987   6.7238   2.6495   C.1       1 RES1   0.0000
   112 C27A     1.0751   7.3207   3.9278   C.3       1 RES1   0.0000
   113 H24A     1.1706   8.2900   3.8201   H         1 RES1   0.0000
   114 H25A     0.3806   7.1327   4.5931   H         1 RES1   0.0000
   115 H26A     1.9267   6.9398   4.2279   H         1 RES1   0.0000
   116 B1       4.9480   7.3947   4.3234   B         2 RES2  -1.0000
   117 F1       4.2036   7.1051   3.1751   F         2 RES2   0.0000
   118 F2       4.1398   7.3294   5.4458   F         2 RES2   0.0000
   119 F3       5.4992   8.6526   4.2026   F         2 RES2   0.0000
   120 F4       5.9738   6.4433   4.4277   F         2 RES2   0.0000
@<TRIPOS>BOND
     1     1     2    1
     2     2     4    1
     3     3     1    1
     4     4     3    1
     5     5     1    1
     6     6     2    1
     7     7     6   ar
     8     8     7    1
     9     9     7   ar
    10    10     9    1
    11    11     9   ar
    12    12    11    1
    13    13    11   ar
    14    14    13    1
    15    15     6   ar
    16    16    15    1
    17    17     2    1
    18    18    17   ar
    19    19    18    1
    20    20    18   ar
    21    21    20    1
    22    22    20   ar
    23    23    22    1
    24    24    22   ar
    25    25    24    1
    26    26    17   ar
    27    27    26    1
    28    28     3    1
    29    29    28   ar
    30    30    29    1
    31    31    29   ar
    32    32    31    1
    33    33    31   ar
    34    34    33    1
    35    35    33   ar
    36    36    35    1
    37    37    28   ar
    38    38    37    1
    39    39     3    1
    40    40    39   ar
    41    41    40    1
    42    42    40   ar
    43    43    42    1
    44    44    42   ar
    45    45    44    1
    46    46    44   ar
    47    47    46    1
    48    48    39   ar
    49    49    48    1
    50    50     4    1
    51    51    50    1
    52    52    50    1
    53    53    50    1
    54    54     5    3
    55    55    54    1
    56    56    55    1
    57    57    55    1
    58    58    55    1
    59    59     1    1
    60    60     1    1
    61    61    59    1
    62    62     1    1
    63    63    59    1
    64    64    63   ar
    65    65    64    1
    66    66    64   ar
    67    67    66    1
    68    68    66   ar
    69    69    68    1
    70    70    68   ar
    71    71    70    1
    72    72    63   ar
    73    73    72    1
    74    74    59    1
    75    75    74   ar
    76    76    75    1
    77    77    75   ar
    78    78    77    1
    79    79    77   ar
    80    80    79    1
    81    81    79   ar
    82    82    81    1
    83    83    74   ar
    84    84    83    1
    85    85    60    1
    86    86    85   ar
    87    87    86    1
    88    88    86   ar
    89    89    88    1
    90    90    88   ar
    91    91    90    1
    92    92    90   ar
    93    93    92    1
    94    94    85   ar
    95    95    94    1
    96    96    60    1
    97    97    96   ar
    98    98    97    1
    99    99    97   ar
   100   100    99    1
   101   101    99   ar
   102   102   101    1
   103   103   101   ar
   104   104   103    1
   105   105    96   ar
   106   106   105    1
   107   107    61    1
   108   108   107    1
   109   109   107    1
   110   110   107    1
   111   111    62    3
   112   112   111    1
   113   113   112    1
   114   114   112    1
   115   115   112    1
   116    13    15   ar
   117    24    26   ar
   118    35    37   ar
   119    46    48   ar
   120    60    61    1
   121    70    72   ar
   122    81    83   ar
   123    92    94   ar
   124   103   105   ar
   125   116   117    1
   126   118   116    1
   127   119   116    1
   128   120   116    1
@<TRIPOS>SUBSTRUCTURE
     1 RES1        1 GROUP             0 ****  ****    0  
     2 RES2      116 GROUP             0 ****  ****    0  
@<TRIPOS>CRYSIN
   11.1287   11.2378   12.1358  110.4310  110.4350   93.2300     2     1
