@<TRIPOS>MOLECULE
XEZWOS
    85    86     3     0     0
SMALL
NO_CHARGES
****
Generated from the CSD

@<TRIPOS>ATOM
     1 Fe1      7.1023   5.8588   4.1500   Fe        1 RES1   0.0000
     2 H1       7.2201   7.2179   4.7299   H         1 RES1   0.0000
     3 P1       7.3225   6.9893   2.2408   P.3       1 RES1   0.0000
     4 P2       7.2216   5.3693   6.3210   P.3       1 RES1   0.0000
     5 P3       9.3201   5.9879   4.2502   P.3       1 RES1   0.0000
     6 O1       4.2217   6.2821   4.2467   O.2       1 RES1   0.0000
     7 O2       7.1241   3.9449   3.4026   O.co2     1 RES1   0.0000
     8 O3       6.2149   2.1781   2.3972   O.co2     1 RES1   0.0000
     9 C1       8.9479   7.8389   2.2713   C.ar      1 RES1   0.0000
    10 C2       9.2959   8.8924   1.4175   C.ar      1 RES1   0.0000
    11 H2       8.6571   9.2317   0.8016   H         1 RES1   0.0000
    12 C3      10.5680   9.4441   1.4654   C.ar      1 RES1   0.0000
    13 H3      10.7863  10.1808   0.9067   H         1 RES1   0.0000
    14 C4      11.5222   8.9223   2.3273   C.ar      1 RES1   0.0000
    15 H4      12.3974   9.2912   2.3460   H         1 RES1   0.0000
    16 C5      11.1987   7.8635   3.1604   C.ar      1 RES1   0.0000
    17 H5      11.8633   7.4877   3.7258   H         1 RES1   0.0000
    18 C6       9.9027   7.3454   3.1743   C.ar      1 RES1   0.0000
    19 C7       9.8094   6.2965   5.9833   C.ar      1 RES1   0.0000
    20 C8      11.0514   6.7905   6.3889   C.ar      1 RES1   0.0000
    21 H6      11.7044   7.0188   5.7378   H         1 RES1   0.0000
    22 C9      11.3365   6.9497   7.7351   C.ar      1 RES1   0.0000
    23 H7      12.1690   7.3198   8.0042   H         1 RES1   0.0000
    24 C10     10.4080   6.5693   8.6873   C.ar      1 RES1   0.0000
    25 H8      10.6111   6.6668   9.6102   H         1 RES1   0.0000
    26 C11      9.1807   6.0457   8.3021   C.ar      1 RES1   0.0000
    27 H9       8.5547   5.7724   8.9624   H         1 RES1   0.0000
    28 C12      8.8618   5.9186   6.9422   C.ar      1 RES1   0.0000
    29 C13      6.1636   8.3799   1.8406   C.3       1 RES1   0.0000
    30 H10      6.5537   8.8574   1.0533   H         1 RES1   0.0000
    31 C14      6.0867   9.4009   2.9732   C.3       1 RES1   0.0000
    32 H11      6.9830   9.7511   3.1588   H         1 RES1   0.0000
    33 H12      5.7314   8.9695   3.7783   H         1 RES1   0.0000
    34 H13      5.4963  10.1373   2.7097   H         1 RES1   0.0000
    35 C15      4.7723   7.9009   1.4140   C.3       1 RES1   0.0000
    36 H14      4.8622   7.1873   0.7485   H         1 RES1   0.0000
    37 H15      4.2743   8.6500   1.0245   H         1 RES1   0.0000
    38 H16      4.2902   7.5598   2.1960   H         1 RES1   0.0000
    39 C16      7.3674   6.0008   0.6586   C.3       1 RES1   0.0000
    40 H17      6.5150   5.4791   0.6217   H         1 RES1   0.0000
    41 C17      8.5021   4.9826   0.6995   C.3       1 RES1   0.0000
    42 H18      8.3999   4.4105   1.4884   H         1 RES1   0.0000
    43 H19      9.3612   5.4526   0.7461   H         1 RES1   0.0000
    44 H20      8.4757   4.4308  -0.1100   H         1 RES1   0.0000
    45 C18      7.4403   6.8179  -0.6377   C.3       1 RES1   0.0000
    46 H21      6.6887   7.4460  -0.6705   H         1 RES1   0.0000
    47 H22      7.3946   6.2134  -1.4078   H         1 RES1   0.0000
    48 H23      8.2837   7.3160  -0.6629   H         1 RES1   0.0000
    49 C19      6.1102   6.2507   7.5195   C.3       1 RES1   0.0000
    50 H24      6.4282   6.0054   8.4354   H         1 RES1   0.0000
    51 C20      6.2633   7.7690   7.3978   C.3       1 RES1   0.0000
    52 H25      7.2112   8.0083   7.4654   H         1 RES1   0.0000
    53 H26      5.7637   8.2065   8.1185   H         1 RES1   0.0000
    54 H27      5.9128   8.0642   6.5315   H         1 RES1   0.0000
    55 C21      4.6433   5.8121   7.4352   C.3       1 RES1   0.0000
    56 H28      4.5991   4.8399   7.3201   H         1 RES1   0.0000
    57 H29      4.2145   6.2513   6.6712   H         1 RES1   0.0000
    58 H30      4.1788   6.0649   8.2602   H         1 RES1   0.0000
    59 C22      7.0493   3.5795   6.8080   C.3       1 RES1   0.0000
    60 H31      6.2056   3.2503   6.3841   H         1 RES1   0.0000
    61 C23      8.1872   2.7541   6.2064   C.3       1 RES1   0.0000
    62 H32      8.2221   2.9026   5.2383   H         1 RES1   0.0000
    63 H33      8.0313   1.8033   6.3856   H         1 RES1   0.0000
    64 H34      9.0376   3.0274   6.6096   H         1 RES1   0.0000
    65 C24      6.9225   3.2932   8.3057   C.3       1 RES1   0.0000
    66 H35      6.1577   3.7878   8.6687   H         1 RES1   0.0000
    67 H36      7.7413   3.5773   8.7630   H         1 RES1   0.0000
    68 H37      6.7863   2.3332   8.4446   H         1 RES1   0.0000
    69 C25      5.3600   6.0863   4.1979   C.1       1 RES1   0.0000
    70 C26      6.1593   3.3177   2.9307   C.2       1 RES1   0.0000
    71 H38      5.3067   3.7342   2.9767   H         1 RES1   0.0000
    72 C27     10.4798   4.6372   3.8144   C.3       1 RES1   0.0000
    73 H39     10.3648   4.3999   2.8705   H         1 RES1   0.0000
    74 H40     10.2938   3.8540   4.3732   H         1 RES1   0.0000
    75 H41     11.4008   4.9358   3.9664   H         1 RES1   0.0000
    76 O4       3.5668  -0.0330   2.5809   O.2       2 RES2   0.0000
    77 C28      3.3518   0.5328   1.5639   C.2       2 RES2   0.0000
    78 H42      2.5639   0.2914   1.0913   H         2 RES2   0.0000
    79 O5       4.1011   1.4544   1.0384   O.3       2 RES2   0.0000
    80 H43      4.7651   1.5920   1.5341   H         2 RES2   0.0000
    81 O6      10.5911   1.3186   1.8608   O.2       3 RES3   0.0000
    82 C29      9.4535   1.5471   2.1449   C.2       3 RES3   0.0000
    83 H44      9.2914   2.1853   2.8297   H         3 RES3   0.0000
    84 O7       8.4238   0.9889   1.5881   O.3       3 RES3   0.0000
    85 H45      7.7205   1.2906   1.9345   H         3 RES3   0.0000
@<TRIPOS>BOND
     1     1     2    1
     2     3     1    1
     3     4     1    1
     4     5     1    1
     5     6    69    3
     6     7     1    1
     7     8    70    2
     8     9     3    1
     9    10     9   ar
    10    11    10    1
    11    12    10   ar
    12    13    12    1
    13    14    12   ar
    14    15    14    1
    15    16    14   ar
    16    17    16    1
    17    18     5    1
    18    19     5    1
    19    20    19   ar
    20    21    20    1
    21    22    20   ar
    22    23    22    1
    23    24    22   ar
    24    25    24    1
    25    26    24   ar
    26    27    26    1
    27    28     4    1
    28    29     3    1
    29    30    29    1
    30    31    29    1
    31    32    31    1
    32    33    31    1
    33    34    31    1
    34    35    29    1
    35    36    35    1
    36    37    35    1
    37    38    35    1
    38    39     3    1
    39    40    39    1
    40    41    39    1
    41    42    41    1
    42    43    41    1
    43    44    41    1
    44    45    39    1
    45    46    45    1
    46    47    45    1
    47    48    45    1
    48    49     4    1
    49    50    49    1
    50    51    49    1
    51    52    51    1
    52    53    51    1
    53    54    51    1
    54    55    49    1
    55    56    55    1
    56    57    55    1
    57    58    55    1
    58    59     4    1
    59    60    59    1
    60    61    59    1
    61    62    61    1
    62    63    61    1
    63    64    61    1
    64    65    59    1
    65    66    65    1
    66    67    65    1
    67    68    65    1
    68    69     1    1
    69    70     7    1
    70    71    70    1
    71    72     5    1
    72    73    72    1
    73    74    72    1
    74    75    72    1
    75     9    18   ar
    76    16    18   ar
    77    19    28   ar
    78    26    28   ar
    79    76    77    2
    80    77    78    1
    81    79    77    1
    82    80    79    1
    83    81    82    2
    84    82    83    1
    85    84    82    1
    86    85    84    1
@<TRIPOS>SUBSTRUCTURE
     1 RES1        1 GROUP             0 ****  ****    0  
     2 RES2       76 GROUP             0 ****  ****    0  
     3 RES3       81 GROUP             0 ****  ****    0  
@<TRIPOS>CRYSIN
   10.3925   11.5312   14.6090  112.9701   90.1760   91.8800     2     1
