@<TRIPOS>MOLECULE
XEZWIM
    90    93     2     0     0
SMALL
NO_CHARGES
****
Generated from the CSD

@<TRIPOS>ATOM
     1 Fe1      5.6346   3.5774  11.1312   Fe        1 RES1   0.0000
     2 H1       4.5720   3.5774  12.1601   H         1 RES1   0.0000
     3 P1       5.3009   5.7338  11.5348   P.3       1 RES1   0.0000
     4 P2       6.9147   3.5774  12.8584   P.3       1 RES1   0.0000
     5 S1       3.9540   3.5774   9.5718   S.3       1 RES1   0.0000
     6 S2       3.6105   3.5774   6.6155   S.2       1 RES1   0.0000
     7 O1       7.8776   3.5774   9.2632   O.2       1 RES1   0.0000
     8 C1       5.9494   6.1029  13.2126   C.ar      1 RES1   0.0000
     9 C2       5.8175   7.3462  13.8351   C.ar      1 RES1   0.0000
    10 H2       5.3755   8.0550  13.3825   H         1 RES1   0.0000
    11 C3       6.3270   7.5552  15.1104   C.ar      1 RES1   0.0000
    12 H3       6.2098   8.3954  15.5379   H         1 RES1   0.0000
    13 C4       7.0009   6.5443  15.7524   C.ar      1 RES1   0.0000
    14 H4       7.3419   6.6865  16.6276   H         1 RES1   0.0000
    15 C5       7.1871   5.3175  15.1320   C.ar      1 RES1   0.0000
    16 H5       7.6827   4.6356  15.5701   H         1 RES1   0.0000
    17 C6       6.6463   5.0808  13.8613   C.ar      1 RES1   0.0000
    18 C7       3.5143   6.2848  11.5845   C.3       1 RES1   0.0000
    19 H6       3.0763   5.8799  10.7819   H         1 RES1   0.0000
    20 C8       3.2410   7.7895  11.5044   C.3       1 RES1   0.0000
    21 H7       2.2740   7.9445  11.4695   H         1 RES1   0.0000
    22 H8       3.6598   8.1550  10.6973   H         1 RES1   0.0000
    23 H9       3.6144   8.2319  12.2951   H         1 RES1   0.0000
    24 C9       6.1357   7.0266  10.5025   C.3       1 RES1   0.0000
    25 H10      5.8519   7.9230  10.8430   H         1 RES1   0.0000
    26 C10      2.7984   5.6954  12.8020   C.3       1 RES1   0.0000
    27 H11      1.8455   5.9209  12.7614   H         1 RES1   0.0000
    28 H12      3.1874   6.0669  13.6212   H         1 RES1   0.0000
    29 H13      2.9038   4.7211  12.8030   H         1 RES1   0.0000
    30 C11      5.7090   6.9226   9.0365   C.3       1 RES1   0.0000
    31 H14      6.0992   7.6648   8.5292   H         1 RES1   0.0000
    32 H15      4.7316   6.9646   8.9770   H         1 RES1   0.0000
    33 H16      6.0227   6.0721   8.6644   H         1 RES1   0.0000
    34 C12      7.6542   6.9381  10.6221   C.3       1 RES1   0.0000
    35 H17      8.0652   7.6653  10.1097   H         1 RES1   0.0000
    36 H18      7.9600   6.0764  10.2692   H         1 RES1   0.0000
    37 H19      7.9128   7.0155  11.5642   H         1 RES1   0.0000
    38 C13      4.5285   3.5774   7.9919   C.2       1 RES1   0.0000
    39 H20      5.4717   3.5774   7.8786   H         1 RES1   0.0000
    40 C14      6.9697   3.5774   9.9757   C.1       1 RES1   0.0000
    41 C15      8.7355   3.5774  12.6800   C.3       1 RES1   0.0000
    42 H21      9.1584   3.5774  13.5640   H         1 RES1   0.0000
    43 H22      9.0187   2.7801  12.1856   H         1 RES1   0.0000
    44 P1F      5.3009   1.4211  11.5348   P.3       1 RES1   0.0000
    45 C1F      5.9494   1.0519  13.2126   C.ar      1 RES1   0.0000
    46 C2F      5.8175  -0.1913  13.8351   C.ar      1 RES1   0.0000
    47 H2F      5.3755  -0.9001  13.3825   H         1 RES1   0.0000
    48 C3F      6.3270  -0.4004  15.1104   C.ar      1 RES1   0.0000
    49 H3F      6.2098  -1.2406  15.5379   H         1 RES1   0.0000
    50 C4F      7.0009   0.6106  15.7524   C.ar      1 RES1   0.0000
    51 H4F      7.3419   0.4684  16.6276   H         1 RES1   0.0000
    52 C5F      7.1871   1.8374  15.1320   C.ar      1 RES1   0.0000
    53 H5F      7.6827   2.5192  15.5701   H         1 RES1   0.0000
    54 C6F      6.6463   2.0740  13.8613   C.ar      1 RES1   0.0000
    55 C7F      3.5143   0.8700  11.5845   C.3       1 RES1   0.0000
    56 H6F      3.0763   1.2750  10.7819   H         1 RES1   0.0000
    57 C8F      3.2410  -0.6346  11.5044   C.3       1 RES1   0.0000
    58 H7F      2.2740  -0.7896  11.4695   H         1 RES1   0.0000
    59 H8F      3.6598  -1.0001  10.6973   H         1 RES1   0.0000
    60 H9F      3.6144  -1.0770  12.2951   H         1 RES1   0.0000
    61 C9F      6.1357   0.1282  10.5025   C.3       1 RES1   0.0000
    62 H10F     5.8519  -0.7681  10.8430   H         1 RES1   0.0000
    63 C10F     2.7984   1.4594  12.8020   C.3       1 RES1   0.0000
    64 H11F     1.8455   1.2340  12.7614   H         1 RES1   0.0000
    65 H12F     3.1874   1.0879  13.6212   H         1 RES1   0.0000
    66 H13F     2.9038   2.4337  12.8030   H         1 RES1   0.0000
    67 C11F     5.7090   0.2322   9.0365   C.3       1 RES1   0.0000
    68 H14F     6.0992  -0.5100   8.5292   H         1 RES1   0.0000
    69 H15F     4.7316   0.1903   8.9770   H         1 RES1   0.0000
    70 H16F     6.0227   1.0828   8.6644   H         1 RES1   0.0000
    71 C12F     7.6542   0.2168  10.6221   C.3       1 RES1   0.0000
    72 H17F     8.0652  -0.5104  10.1097   H         1 RES1   0.0000
    73 H18F     7.9600   1.0785  10.2692   H         1 RES1   0.0000
    74 H19F     7.9128   0.1393  11.5642   H         1 RES1   0.0000
    75 H22F     9.0187   4.3748  12.1856   H         1 RES1   0.0000
    76 C16     10.6869   3.5774   5.5008   C.ar      2 RES2   0.0000
    77 C17      9.5377   3.5774   6.2350   C.ar      2 RES2   0.0000
    78 H23      9.5872   3.5774   7.1831   H         2 RES2   0.0000
    79 C18      8.3131   3.5774   5.6212   C.ar      2 RES2   0.0000
    80 H24      7.5234   3.5774   6.1505   H         2 RES2   0.0000
    81 C19      8.2071   3.5774   4.2162   C.ar      2 RES2   0.0000
    82 H25      7.3574   3.5774   3.7922   H         2 RES2   0.0000
    83 C20      9.3745   3.5774   3.4669   C.ar      2 RES2   0.0000
    84 H26      9.3383   3.5774   2.5170   H         2 RES2   0.0000
    85 C21     10.5838   3.5774   4.1160   C.ar      2 RES2   0.0000
    86 H27     11.3806   3.5774   3.5986   H         2 RES2   0.0000
    87 C22     12.0340   3.5774   6.1828   C.3       2 RES2   0.0000
    88 H28     11.9270   3.5774   7.1575   H         2 RES2   0.0000
    89 H29     12.5467   2.7835   5.9238   H         2 RES2   0.0000
    90 H29F    12.5467   4.3713   5.9238   H         2 RES2   0.0000
@<TRIPOS>BOND
     1     1     2    1
     2     3     1    1
     3     4     1    1
     4     5     1    1
     5     6    38    2
     6     7    40    3
     7     8     3    1
     8     9     8   ar
     9    10     9    1
    10    11     9   ar
    11    12    11    1
    12    13    11   ar
    13    14    13    1
    14    15    13   ar
    15    16    15    1
    16    17     4    1
    17    18     3    1
    18    19    18    1
    19    20    18    1
    20    21    20    1
    21    22    20    1
    22    23    20    1
    23    24     3    1
    24    25    24    1
    25    26    18    1
    26    27    26    1
    27    28    26    1
    28    29    26    1
    29    30    24    1
    30    31    30    1
    31    32    30    1
    32    33    30    1
    33    34    24    1
    34    35    34    1
    35    36    34    1
    36    37    34    1
    37    38     5    1
    38    39    38    1
    39    40     1    1
    40    41     4    1
    41    42    41    1
    42    43    41    1
    43    44     1    1
    44    45    44    1
    45    46    45   ar
    46    47    46    1
    47    48    46   ar
    48    49    48    1
    49    50    48   ar
    50    51    50    1
    51    52    50   ar
    52    53    52    1
    53    54     4    1
    54    55    44    1
    55    56    55    1
    56    57    55    1
    57    58    57    1
    58    59    57    1
    59    60    57    1
    60    61    44    1
    61    62    61    1
    62    63    55    1
    63    64    63    1
    64    65    63    1
    65    66    63    1
    66    67    61    1
    67    68    67    1
    68    69    67    1
    69    70    67    1
    70    71    61    1
    71    72    71    1
    72    73    71    1
    73    74    71    1
    74    75    41    1
    75     8    17   ar
    76    15    17   ar
    77    45    54   ar
    78    52    54   ar
    79    76    77   ar
    80    77    78    1
    81    79    77   ar
    82    80    79    1
    83    81    79   ar
    84    82    81    1
    85    83    81   ar
    86    84    83    1
    87    85    76   ar
    88    86    85    1
    89    87    76    1
    90    88    87    1
    91    89    87    1
    92    90    87    1
    93    83    85   ar
@<TRIPOS>SUBSTRUCTURE
     1 RES1        1 GROUP             0 ****  ****    0  
     2 RES2       76 GROUP             0 ****  ****    0  
@<TRIPOS>CRYSIN
   16.8213   14.3097   14.8984   90.0000   90.0000   90.0000    62     1
