@<TRIPOS>MOLECULE
XIDPAC
   105   109     2     0     0
SMALL
USER_CHARGES
****
Generated from the CSD

@<TRIPOS>ATOM
     1 Fe1      7.2781  -0.0853   7.8021   Fe        1 RES1   1.0000
     2 H1       7.2781   1.3853   7.6240   H         1 RES1   0.0000
     3 P1       5.0034   0.1963   7.8121   P.3       1 RES1   0.0000
     4 O1       7.2781  -3.0120   7.5824   O.2       1 RES1   0.0000
     5 O2       7.2781   0.1508  10.7102   O.2       1 RES1   0.0000
     6 O3       7.2781   0.6550   4.9706   O.2       1 RES1   0.0000
     7 C1       7.2781  -1.8936   7.6540   C.1       1 RES1   0.0000
     8 C2       7.2781   0.0825   9.5849   C.1       1 RES1   0.0000
     9 C3       7.2781   0.4339   6.0892   C.1       1 RES1   0.0000
    10 C4       4.0946  -0.6366   9.1804   C.ar      1 RES1   0.0000
    11 C5       4.6157  -1.7897   9.7547   C.ar      1 RES1   0.0000
    12 H2       5.4556  -2.1268   9.4668   H         1 RES1   0.0000
    13 C6       3.9083  -2.4497  10.7518   C.ar      1 RES1   0.0000
    14 H3       4.2635  -3.2381  11.1464   H         1 RES1   0.0000
    15 C7       2.6783  -1.9577  11.1747   C.ar      1 RES1   0.0000
    16 H4       2.1951  -2.4080  11.8555   H         1 RES1   0.0000
    17 C8       2.1572  -0.8047  10.5987   C.ar      1 RES1   0.0000
    18 H5       1.3173  -0.4675  10.8867   H         1 RES1   0.0000
    19 C9       2.8661  -0.1446   9.6016   C.ar      1 RES1   0.0000
    20 H6       2.5095   0.6438   9.2087   H         1 RES1   0.0000
    21 C10      4.1441  -0.4074   6.3056   C.3       1 RES1   0.0000
    22 H7       4.6332   0.0194   5.5465   H         1 RES1   0.0000
    23 C11      4.2824  -1.9068   6.0593   C.3       1 RES1   0.0000
    24 H8       5.2446  -2.1228   5.9660   H         1 RES1   0.0000
    25 H9       3.9447  -2.3886   6.8549   H         1 RES1   0.0000
    26 C12      3.5604  -2.4192   4.8491   C.3       1 RES1   0.0000
    27 H10      3.5459  -3.4093   4.8674   H         1 RES1   0.0000
    28 H11      4.0422  -2.1350   4.0317   H         1 RES1   0.0000
    29 C13      2.1397  -1.8926   4.8058   C.3       1 RES1   0.0000
    30 H12      1.7162  -2.1808   3.9585   H         1 RES1   0.0000
    31 H13      1.6259  -2.2929   5.5515   H         1 RES1   0.0000
    32 C14      2.0626  -0.4635   4.9023   C.3       1 RES1   0.0000
    33 H14      1.1106  -0.1915   4.8740   H         1 RES1   0.0000
    34 H15      2.5138  -0.0652   4.1166   H         1 RES1   0.0000
    35 C15      2.6958   0.0968   6.1691   C.3       1 RES1   0.0000
    36 H16      2.1689  -0.1874   6.9582   H         1 RES1   0.0000
    37 H17      2.6900   1.0858   6.1342   H         1 RES1   0.0000
    38 C16      4.5226   1.9761   7.9436   C.3       1 RES1   0.0000
    39 H18      3.5226   1.9944   7.9270   H         1 RES1   0.0000
    40 C17      4.9855   2.8725   6.7834   C.3       1 RES1   0.0000
    41 H19      5.9738   2.9112   6.7717   H         1 RES1   0.0000
    42 H20      4.6842   2.4813   5.9244   H         1 RES1   0.0000
    43 C18      4.4265   4.2832   6.9199   C.3       1 RES1   0.0000
    44 H21      3.4411   4.2628   6.8316   H         1 RES1   0.0000
    45 H22      4.7890   4.8577   6.1991   H         1 RES1   0.0000
    46 C19      4.8195   4.8669   8.3048   C.3       1 RES1   0.0000
    47 H23      5.8035   4.9718   8.3431   H         1 RES1   0.0000
    48 H24      4.4149   5.7653   8.4031   H         1 RES1   0.0000
    49 C20      4.3683   3.9888   9.4668   C.3       1 RES1   0.0000
    50 H25      3.3799   3.9542   9.4934   H         1 RES1   0.0000
    51 H26      4.6856   4.3779  10.3207   H         1 RES1   0.0000
    52 C21      4.9345   2.5526   9.3069   C.3       1 RES1   0.0000
    53 H27      5.9229   2.5740   9.3752   H         1 RES1   0.0000
    54 H28      4.5881   1.9751  10.0327   H         1 RES1   0.0000
    55 P1C      9.5527   0.1963   7.8121   P.3       1 RES1   0.0000
    56 C4C     10.4615  -0.6366   9.1804   C.ar      1 RES1   0.0000
    57 C5C      9.9404  -1.7897   9.7547   C.ar      1 RES1   0.0000
    58 H2C      9.1005  -2.1268   9.4668   H         1 RES1   0.0000
    59 C6C     10.6478  -2.4497  10.7518   C.ar      1 RES1   0.0000
    60 H3C     10.2926  -3.2381  11.1464   H         1 RES1   0.0000
    61 C7C     11.8778  -1.9577  11.1747   C.ar      1 RES1   0.0000
    62 H4C     12.3610  -2.4080  11.8555   H         1 RES1   0.0000
    63 C8C     12.3989  -0.8047  10.5987   C.ar      1 RES1   0.0000
    64 H5C     13.2388  -0.4675  10.8867   H         1 RES1   0.0000
    65 C9C     11.6900  -0.1446   9.6016   C.ar      1 RES1   0.0000
    66 H6C     12.0466   0.6438   9.2087   H         1 RES1   0.0000
    67 C10C    10.4120  -0.4074   6.3056   C.3       1 RES1   0.0000
    68 H7C      9.9229   0.0194   5.5465   H         1 RES1   0.0000
    69 C11C    10.2737  -1.9068   6.0593   C.3       1 RES1   0.0000
    70 H8C      9.3115  -2.1228   5.9660   H         1 RES1   0.0000
    71 H9C     10.6114  -2.3886   6.8549   H         1 RES1   0.0000
    72 C12C    10.9957  -2.4192   4.8491   C.3       1 RES1   0.0000
    73 H10C    11.0102  -3.4093   4.8674   H         1 RES1   0.0000
    74 H11C    10.5139  -2.1350   4.0317   H         1 RES1   0.0000
    75 C13C    12.4164  -1.8926   4.8058   C.3       1 RES1   0.0000
    76 H12C    12.8399  -2.1808   3.9585   H         1 RES1   0.0000
    77 H13C    12.9302  -2.2929   5.5515   H         1 RES1   0.0000
    78 C14C    12.4935  -0.4635   4.9023   C.3       1 RES1   0.0000
    79 H14C    13.4455  -0.1915   4.8740   H         1 RES1   0.0000
    80 H15C    12.0423  -0.0652   4.1166   H         1 RES1   0.0000
    81 C15C    11.8603   0.0968   6.1691   C.3       1 RES1   0.0000
    82 H16C    12.3872  -0.1874   6.9582   H         1 RES1   0.0000
    83 H17C    11.8661   1.0858   6.1342   H         1 RES1   0.0000
    84 C16C    10.0335   1.9761   7.9436   C.3       1 RES1   0.0000
    85 H18C    11.0335   1.9944   7.9270   H         1 RES1   0.0000
    86 C17C     9.5706   2.8725   6.7834   C.3       1 RES1   0.0000
    87 H19C     8.5823   2.9112   6.7717   H         1 RES1   0.0000
    88 H20C     9.8719   2.4813   5.9244   H         1 RES1   0.0000
    89 C18C    10.1296   4.2832   6.9199   C.3       1 RES1   0.0000
    90 H21C    11.1150   4.2628   6.8316   H         1 RES1   0.0000
    91 H22C     9.7671   4.8577   6.1991   H         1 RES1   0.0000
    92 C19C     9.7366   4.8669   8.3048   C.3       1 RES1   0.0000
    93 H23C     8.7526   4.9718   8.3431   H         1 RES1   0.0000
    94 H24C    10.1412   5.7653   8.4031   H         1 RES1   0.0000
    95 C20C    10.1878   3.9888   9.4668   C.3       1 RES1   0.0000
    96 H25C    11.1762   3.9542   9.4934   H         1 RES1   0.0000
    97 H26C     9.8705   4.3779  10.3207   H         1 RES1   0.0000
    98 C21C     9.6216   2.5526   9.3069   C.3       1 RES1   0.0000
    99 H27C     8.6332   2.5740   9.3752   H         1 RES1   0.0000
   100 H28C     9.9680   1.9751  10.0327   H         1 RES1   0.0000
   101 F1      -1.1023   2.6168   8.4596   F         2 RES2   0.0000
   102 F2       1.1031   2.6158   8.4596   F         2 RES2   0.0000
   103 F3       0.0000   0.7089   8.3631   F         2 RES2   0.0000
   104 F4       0.0000   2.0729   6.6292   F         2 RES2   0.0000
   105 B1       0.0000   2.0036   7.9781   B         2 RES2  -1.0000
@<TRIPOS>BOND
     1     1     2    1
     2     3     1    1
     3     4     7    3
     4     5     8    3
     5     6     9    3
     6     7     1    1
     7     8     1    1
     8     9     1    1
     9    10     3    1
    10    11    10   ar
    11    12    11    1
    12    13    11   ar
    13    14    13    1
    14    15    13   ar
    15    16    15    1
    16    17    15   ar
    17    18    17    1
    18    19    10   ar
    19    20    19    1
    20    21     3    1
    21    22    21    1
    22    23    21    1
    23    24    23    1
    24    25    23    1
    25    26    23    1
    26    27    26    1
    27    28    26    1
    28    29    26    1
    29    30    29    1
    30    31    29    1
    31    32    29    1
    32    33    32    1
    33    34    32    1
    34    35    21    1
    35    36    35    1
    36    37    35    1
    37    38     3    1
    38    39    38    1
    39    40    38    1
    40    41    40    1
    41    42    40    1
    42    43    40    1
    43    44    43    1
    44    45    43    1
    45    46    43    1
    46    47    46    1
    47    48    46    1
    48    49    46    1
    49    50    49    1
    50    51    49    1
    51    52    38    1
    52    53    52    1
    53    54    52    1
    54    55     1    1
    55    56    55    1
    56    57    56   ar
    57    58    57    1
    58    59    57   ar
    59    60    59    1
    60    61    59   ar
    61    62    61    1
    62    63    61   ar
    63    64    63    1
    64    65    56   ar
    65    66    65    1
    66    67    55    1
    67    68    67    1
    68    69    67    1
    69    70    69    1
    70    71    69    1
    71    72    69    1
    72    73    72    1
    73    74    72    1
    74    75    72    1
    75    76    75    1
    76    77    75    1
    77    78    75    1
    78    79    78    1
    79    80    78    1
    80    81    67    1
    81    82    81    1
    82    83    81    1
    83    84    55    1
    84    85    84    1
    85    86    84    1
    86    87    86    1
    87    88    86    1
    88    89    86    1
    89    90    89    1
    90    91    89    1
    91    92    89    1
    92    93    92    1
    93    94    92    1
    94    95    92    1
    95    96    95    1
    96    97    95    1
    97    98    84    1
    98    99    98    1
    99   100    98    1
   100    17    19   ar
   101    32    35    1
   102    49    52    1
   103    63    65   ar
   104    78    81    1
   105    95    98    1
   106   101   105    1
   107   102   105    1
   108   103   105    1
   109   104   105    1
@<TRIPOS>SUBSTRUCTURE
     1 RES1        1 GROUP             0 ****  ****    0  
     2 RES2      101 GROUP             0 ****  ****    0  
@<TRIPOS>CRYSIN
   14.5561   10.1860   16.6463   90.0000   90.0000   90.0000    31     1
