@<TRIPOS>MOLECULE
XIFBIX
    95   102     2     0     0
SMALL
USER_CHARGES
****
Generated from the CSD

@<TRIPOS>ATOM
     1 Fe1      0.8181   3.3819   9.2387   Fe        1 RES1   1.0000
     2 S1       2.8351   3.8127   8.2559   S.3       1 RES1   0.0000
     3 S2      -1.1161   2.9296  10.3650   S.3       1 RES1   0.0000
     4 S3      -0.2149   3.5988   7.2052   S.3       1 RES1   0.0000
     5 N1       1.8201   2.8298  10.9080   N.3       1 RES1   0.0000
     6 N2       1.0488   1.4177   8.6522   N.3       1 RES1   0.0000
     7 N3       0.5336   4.9191   9.6217   N.2       1 RES1   0.0000
     8 O1       0.2731   6.0209   9.9010   O.2       1 RES1   0.0000
     9 C1       2.0818   1.3238  10.8837   C.3       1 RES1   0.0000
    10 H1       3.0153   1.1539  10.6045   H         1 RES1   0.0000
    11 H2       1.9611   0.9523  11.7953   H         1 RES1   0.0000
    12 C2       1.1330   0.6364   9.9300   C.3       1 RES1   0.0000
    13 H3       1.4558  -0.2808   9.7403   H         1 RES1   0.0000
    14 H4       0.2341   0.5696  10.3410   H         1 RES1   0.0000
    15 C3       2.3408   1.1618   7.8802   C.3       1 RES1   0.0000
    16 H5       3.0193   0.8063   8.5073   H         1 RES1   0.0000
    17 H6       2.1688   0.4654   7.1979   H         1 RES1   0.0000
    18 C4       2.9023   2.3678   7.2005   C.3       1 RES1   0.0000
    19 H7       2.3908   2.5445   6.3706   H         1 RES1   0.0000
    20 H8       3.8427   2.1923   6.9476   H         1 RES1   0.0000
    21 C5       3.9203   3.4062   9.6744   C.3       1 RES1   0.0000
    22 H9       4.2628   2.4822   9.5796   H         1 RES1   0.0000
    23 H10      4.6949   4.0233   9.6902   H         1 RES1   0.0000
    24 C6       3.1286   3.5364  10.9759   C.3       1 RES1   0.0000
    25 H11      3.6619   3.1627  11.7215   H         1 RES1   0.0000
    26 H12      2.9707   4.4955  11.1656   H         1 RES1   0.0000
    27 C7       1.0020   3.2477  12.1115   C.3       1 RES1   0.0000
    28 H13      1.4237   2.8593  12.9177   H         1 RES1   0.0000
    29 H14      1.0590   4.2317  12.1958   H         1 RES1   0.0000
    30 C8      -0.4546   2.8627  12.1167   C.3       1 RES1   0.0000
    31 C9      -0.1976   0.9410   7.9198   C.3       1 RES1   0.0000
    32 H15     -0.9433   0.8776   8.5679   H         1 RES1   0.0000
    33 H16     -0.0299   0.0317   7.5641   H         1 RES1   0.0000
    34 C10     -0.6201   1.8514   6.7658   C.3       1 RES1   0.0000
    35 C11     -0.7587   1.4676  12.7280   C.3       1 RES1   0.0000
    36 H17     -0.3878   0.7689  12.1510   H         1 RES1   0.0000
    37 H18     -1.7283   1.3487  12.8044   H         1 RES1   0.0000
    38 H19     -0.3516   1.4064  13.6185   H         1 RES1   0.0000
    39 C12     -1.2097   3.9305  12.9361   C.3       1 RES1   0.0000
    40 H20     -0.8523   3.9543  13.8477   H         1 RES1   0.0000
    41 H21     -2.1629   3.7074  12.9651   H         1 RES1   0.0000
    42 H22     -1.0913   4.8081  12.5172   H         1 RES1   0.0000
    43 C13      0.0129   1.4891   5.4142   C.3       1 RES1   0.0000
    44 H23      0.9873   1.5683   5.4774   H         1 RES1   0.0000
    45 H24     -0.3205   2.0994   4.7239   H         1 RES1   0.0000
    46 H25     -0.2239   0.5673   5.1771   H         1 RES1   0.0000
    47 C14     -2.1299   1.7325   6.6446   C.3       1 RES1   0.0000
    48 H26     -2.3690   0.8063   6.4312   H         1 RES1   0.0000
    49 H27     -2.4483   2.3259   5.9332   H         1 RES1   0.0000
    50 H28     -2.5486   1.9896   7.4929   H         1 RES1   0.0000
    51 B1       4.9798   2.7245   3.1748   B         2 RES2  -1.0000
    52 C15      6.2925   3.1095   2.2605   C.ar      2 RES2   0.0000
    53 C16      7.5953   2.7517   2.6136   C.ar      2 RES2   0.0000
    54 H29      7.7262   2.2817   3.4303   H         2 RES2   0.0000
    55 C17      8.7151   3.0461   1.8337   C.ar      2 RES2   0.0000
    56 H30      9.5829   2.7766   2.1130   H         2 RES2   0.0000
    57 C18      8.5423   3.7380   0.6481   C.ar      2 RES2   0.0000
    58 H31      9.2922   3.9611   0.1107   H         2 RES2   0.0000
    59 C19      7.2859   4.0958   0.2556   C.ar      2 RES2   0.0000
    60 H32      7.1613   4.5612  -0.5638   H         2 RES2   0.0000
    61 C20      6.1920   3.7855   1.0460   C.ar      2 RES2   0.0000
    62 H33      5.3297   4.0471   0.7456   H         2 RES2   0.0000
    63 C21      4.3680   1.2705   2.7058   C.ar      2 RES2   0.0000
    64 C22      4.6562   0.6455   1.4886   C.ar      2 RES2   0.0000
    65 H34      5.3224   1.0339   0.9353   H         2 RES2   0.0000
    66 C23      4.0286  -0.5062   1.0460   C.ar      2 RES2   0.0000
    67 H35      4.2657  -0.8855   0.2055   H         2 RES2   0.0000
    68 C24      3.0526  -1.1063   1.8311   C.ar      2 RES2   0.0000
    69 H36      2.5991  -1.8854   1.5307   H         2 RES2   0.0000
    70 C25      2.7493  -0.5492   3.0694   C.ar      2 RES2   0.0000
    71 H37      2.0935  -0.9501   3.6253   H         2 RES2   0.0000
    72 C26      3.4110   0.5968   3.4830   C.ar      2 RES2   0.0000
    73 H38      3.2048   0.9467   4.3419   H         2 RES2   0.0000
    74 C27      3.8025   3.8863   3.0430   C.ar      2 RES2   0.0000
    75 C28      2.4429   3.6349   3.1958   C.ar      2 RES2   0.0000
    76 H39      2.1549   2.7336   3.2854   H         2 RES2   0.0000
    77 C29      1.4833   4.6450   3.2274   C.ar      2 RES2   0.0000
    78 H40      0.5701   4.4276   3.3671   H         2 RES2   0.0000
    79 C30      1.8568   5.9563   3.0509   C.ar      2 RES2   0.0000
    80 H41      1.2051   6.6471   3.0615   H         2 RES2   0.0000
    81 C31      3.1665   6.2507   2.8639   C.ar      2 RES2   0.0000
    82 H42      3.4322   7.1510   2.7216   H         2 RES2   0.0000
    83 C32      4.1203   5.2441   2.8797   C.ar      2 RES2   0.0000
    84 H43      5.0333   5.4852   2.7743   H         2 RES2   0.0000
    85 C33      5.4696   2.6781   4.7529   C.ar      2 RES2   0.0000
    86 C34      5.5407   3.8410   5.5459   C.ar      2 RES2   0.0000
    87 H44      5.2183   4.6609   5.1903   H         2 RES2   0.0000
    88 C35      6.0595   3.8308   6.8264   C.ar      2 RES2   0.0000
    89 H45      6.1093   4.6394   7.3217   H         2 RES2   0.0000
    90 C36      6.5025   2.6622   7.3876   C.ar      2 RES2   0.0000
    91 H46      6.8534   2.6566   8.2702   H         2 RES2   0.0000
    92 C37      6.4354   1.4902   6.6578   C.ar      2 RES2   0.0000
    93 H47      6.7392   0.6726   7.0345   H         2 RES2   0.0000
    94 C38      5.9222   1.5174   5.3720   C.ar      2 RES2   0.0000
    95 H48      5.8756   0.7009   4.8873   H         2 RES2   0.0000
@<TRIPOS>BOND
     1     1     2    1
     2     2    18    1
     3     3     1    1
     4     4     1    1
     5     5     1    1
     6     6     1    1
     7     7     1    1
     8     8     7    2
     9     9     5    1
    10    10     9    1
    11    11     9    1
    12    12     6    1
    13    13    12    1
    14    14    12    1
    15    15     6    1
    16    16    15    1
    17    17    15    1
    18    18    15    1
    19    19    18    1
    20    20    18    1
    21    21     2    1
    22    22    21    1
    23    23    21    1
    24    24     5    1
    25    25    24    1
    26    26    24    1
    27    27     5    1
    28    28    27    1
    29    29    27    1
    30    30     3    1
    31    31     6    1
    32    32    31    1
    33    33    31    1
    34    34     4    1
    35    35    30    1
    36    36    35    1
    37    37    35    1
    38    38    35    1
    39    39    30    1
    40    40    39    1
    41    41    39    1
    42    42    39    1
    43    43    34    1
    44    44    43    1
    45    45    43    1
    46    46    43    1
    47    47    34    1
    48    48    47    1
    49    49    47    1
    50    50    47    1
    51     9    12    1
    52    21    24    1
    53    27    30    1
    54    31    34    1
    55    51    52    1
    56    52    53   ar
    57    53    54    1
    58    55    53   ar
    59    56    55    1
    60    57    55   ar
    61    58    57    1
    62    59    57   ar
    63    60    59    1
    64    61    52   ar
    65    62    61    1
    66    63    51    1
    67    64    63   ar
    68    65    64    1
    69    66    64   ar
    70    67    66    1
    71    68    66   ar
    72    69    68    1
    73    70    68   ar
    74    71    70    1
    75    72    63   ar
    76    73    72    1
    77    74    51    1
    78    75    74   ar
    79    76    75    1
    80    77    75   ar
    81    78    77    1
    82    79    77   ar
    83    80    79    1
    84    81    79   ar
    85    82    81    1
    86    83    74   ar
    87    84    83    1
    88    85    51    1
    89    86    85   ar
    90    87    86    1
    91    88    86   ar
    92    89    88    1
    93    90    88   ar
    94    91    90    1
    95    92    90   ar
    96    93    92    1
    97    94    85   ar
    98    95    94    1
    99    59    61   ar
   100    70    72   ar
   101    81    83   ar
   102    92    94   ar
@<TRIPOS>SUBSTRUCTURE
     1 RES1        1 GROUP             0 ****  ****    0  
     2 RES2       51 GROUP             0 ****  ****    0  
@<TRIPOS>CRYSIN
   11.9521   11.3238   26.6240   90.0000   98.2800   90.0000    14     1
