@<TRIPOS>MOLECULE
XIFCUK01
    82    85     6     0     0
SMALL
USER_CHARGES
****
Generated from the CSD

@<TRIPOS>ATOM
     1 Fe1      4.6297   3.6291   5.9079   Fe        1 RES1   3.0000
     2 N1       5.1571   6.1111   6.9906   N.3       1 RES1   0.0000
     3 N2       6.4610   4.3986   5.2953   N.2       1 RES1   0.0000
     4 N3       4.7474   3.0749   3.8759   N.2       1 RES1   0.0000
     5 N4       4.7407   2.4490   1.8053   N.pl3     1 RES1   0.0000
     6 N5       4.6889   3.6138   7.9832   N.2       1 RES1   0.0000
     7 N6       5.7036   1.8447   6.3655   N.2       1 RES1   0.0000
     8 N7       6.8862   0.0515   6.7084   N.pl3     1 RES1   0.0000
     9 N8       3.1976   5.0251   5.3792   N.2       1 RES1   0.0000
    10 N9       2.8632   2.5265   5.9450   N.2       1 RES1   0.0000
    11 N10      1.1251   1.1902   5.7800   N.pl3     1 RES1   0.0000
    12 C1       6.4689   6.4689   6.4939   C.3       1 RES1   0.0000
    13 C2       7.2807   5.2158   6.1997   C.3       1 RES1   0.0000
    14 C3       6.8358   4.1717   4.0903   C.2       1 RES1   0.0000
    15 C4       5.9375   3.4441   3.2805   C.2       1 RES1   0.0000
    16 C5       4.0401   2.4630   2.9468   C.2       1 RES1   0.0000
    17 C6       5.9199   3.0457   2.0035   C.2       1 RES1   0.0000
    18 C7       5.1035   5.9199   8.4262   C.3       1 RES1   0.0000
    19 C8       4.2058   4.7582   8.7303   C.3       1 RES1   0.0000
    20 C9       5.2809   2.6390   8.5468   C.2       1 RES1   0.0000
    21 C10      5.8459   1.6458   7.7108   C.2       1 RES1   0.0000
    22 C11      6.3410   0.8598   5.7997   C.2       1 RES1   0.0000
    23 C12      6.5817   0.5192   7.9246   C.2       1 RES1   0.0000
    24 C13      4.0999   6.9823   6.4875   C.3       1 RES1   0.0000
    25 C14      3.5643   6.4257   5.1789   C.3       1 RES1   0.0000
    26 C15      2.0081   4.6159   5.2678   C.2       1 RES1   0.0000
    27 C16      1.7609   3.2408   5.5295   C.2       1 RES1   0.0000
    28 C17      2.4352   1.2970   6.0812   C.2       1 RES1   0.0000
    29 C18      0.7075   2.4217   5.4279   C.2       1 RES1   0.0000
    30 H1       6.3813   6.9855   5.7017   H         1 RES1   0.0000
    31 H2       6.9207   6.9969   7.1507   H         1 RES1   0.0000
    32 H3       7.4579   4.7481   7.0033   H         1 RES1   0.0000
    33 H4       8.0946   5.4477   5.7835   H         1 RES1   0.0000
    34 H5       7.6873   4.4787   3.7447   H         1 RES1   0.0000
    35 H6       3.1693   2.1249   3.0723   H         1 RES1   0.0000
    36 H7       4.4586   2.0519   0.9884   H         1 RES1   0.0000
    37 H8       6.6020   3.1601   1.3531   H         1 RES1   0.0000
    38 H9       4.7585   6.6983   8.8417   H         1 RES1   0.0000
    39 H10      5.9710   5.7356   8.7549   H         1 RES1   0.0000
    40 H11      4.2509   4.5638   9.6826   H         1 RES1   0.0000
    41 H12      3.3100   4.9597   8.5151   H         1 RES1   0.0000
    42 H13      5.3381   2.5761   9.4943   H         1 RES1   0.0000
    43 H14      6.4052   0.7581   4.8537   H         1 RES1   0.0000
    44 H15      7.4051  -0.7333   6.5108   H         1 RES1   0.0000
    45 H16      6.8235   0.1563   8.7789   H         1 RES1   0.0000
    46 H17      3.4072   7.0281   7.1267   H         1 RES1   0.0000
    47 H18      4.4503   7.8529   6.3352   H         1 RES1   0.0000
    48 H19      4.2173   6.4943   4.5101   H         1 RES1   0.0000
    49 H20      2.7933   6.9061   4.9292   H         1 RES1   0.0000
    50 H21      1.2735   5.1789   5.0413   H         1 RES1   0.0000
    51 H22      2.9865   0.5560   6.3472   H         1 RES1   0.0000
    52 H23      0.5943   0.4048   5.8018   H         1 RES1   0.0000
    53 H24     -0.1609   2.6460   5.1683   H         1 RES1   0.0000
    54 O1      -2.0191   0.7270   4.7676   O.2       2 RES2   0.0000
    55 N11     -0.1791  -1.3141   5.6770   N.2       2 RES2   0.0000
    56 N12     -0.5916  -3.4613   5.5923   N.pl3     2 RES2   0.0000
    57 C19     -2.2212  -0.4607   4.6427   C.2       2 RES2   0.0000
    58 C20     -1.3779  -1.5257   5.0618   C.2       2 RES2   0.0000
    59 C21      0.2627  -2.4891   5.9987   C.2       2 RES2   0.0000
    60 C22     -1.6216  -2.8888   5.0082   C.2       2 RES2   0.0000
    61 H25     -3.0634  -0.7187   4.2314   H         2 RES2   0.0000
    62 H26      1.0699  -2.6422   6.4318   H         2 RES2   0.0000
    63 H27     -0.4869  -4.3884   5.6671   H         2 RES2   0.0000
    64 H28     -2.4406  -3.2967   4.6568   H         2 RES2   0.0000
    65 O2      -9.0346  -2.2520   1.0201   O.3       3 RES3   0.0000
    66 H29     -8.2599  -2.7115   0.8106   H         3 RES3   0.0000
    67 H30     -9.2823  -1.7360   0.9072   H         3 RES3   0.0000
    68 Cl1    -10.2781   1.5778   3.4406   Cl        4 RES4   0.0000
    69 O3     -11.5684   1.6712   3.8025   O.3       4 RES4  -1.0000
    70 O4      -9.4800   1.9076   4.4565   O.2       4 RES4   0.0000
    71 O5     -10.0675   2.3327   2.3260   O.2       4 RES4   0.0000
    72 O6     -10.0377   0.2745   3.1365   O.2       4 RES4   0.0000
    73 Cl2     -5.6433   2.0881   9.1401   Cl        5 RES5   0.0000
    74 O7      -5.0457   1.6477   7.9380   O.3       5 RES5  -1.0000
    75 O8      -5.8514   0.9811   9.9888   O.2       5 RES5   0.0000
    76 O9      -6.8557   2.7108   8.8184   O.2       5 RES5   0.0000
    77 O10     -4.7855   3.0247   9.7617   O.2       5 RES5   0.0000
    78 Cl3      1.5112  -7.1418   1.6416   Cl        6 RES6   0.0000
    79 O11      0.7744  -8.0797   2.0339   O.3       6 RES6  -1.0000
    80 O12      1.5784  -7.0719   0.3203   O.2       6 RES6   0.0000
    81 O13      1.0138  -6.1302   2.0931   O.2       6 RES6   0.0000
    82 O14      2.7058  -7.2962   2.1961   O.2       6 RES6   0.0000
@<TRIPOS>BOND
     1     1     3    1
     2     2    12    1
     3     3    13    1
     4     4     1    1
     5     5    16    1
     6     6     1    1
     7     7     1    1
     8     8    22    1
     9     9     1    1
    10    10     1    1
    11    11    28    1
    12    12    13    1
    13    13    32    1
    14    14     3    2
    15    15     4    1
    16    16     4    2
    17    17     5    1
    18    18     2    1
    19    19     6    1
    20    20     6    2
    21    21     7    1
    22    22     7    2
    23    23     8    1
    24    24     2    1
    25    25     9    1
    26    26     9    2
    27    27    10    1
    28    28    10    2
    29    29    11    1
    30    30    12    1
    31    31    12    1
    32    33    13    1
    33    34    14    1
    34    35    16    1
    35    36     5    1
    36    37    17    1
    37    38    18    1
    38    39    18    1
    39    40    19    1
    40    41    19    1
    41    42    20    1
    42    43    22    1
    43    44     8    1
    44    45    23    1
    45    46    24    1
    46    47    24    1
    47    48    25    1
    48    49    25    1
    49    50    26    1
    50    51    28    1
    51    52    11    1
    52    53    29    1
    53    14    15    1
    54    15    17    2
    55    18    19    1
    56    20    21    1
    57    21    23    2
    58    24    25    1
    59    26    27    1
    60    27    29    2
    61    54    57    2
    62    55    58    1
    63    56    59    1
    64    57    58    1
    65    58    60    2
    66    59    55    2
    67    60    56    1
    68    61    57    1
    69    62    59    1
    70    63    56    1
    71    64    60    1
    72    65    66    1
    73    67    65    1
    74    68    69    1
    75    70    68    2
    76    71    68    2
    77    72    68    2
    78    73    74    1
    79    75    73    2
    80    76    73    2
    81    77    73    2
    82    78    79    1
    83    80    78    2
    84    81    78    2
    85    82    78    2
@<TRIPOS>SUBSTRUCTURE
     1 RES1        1 GROUP             0 ****  ****    0  
     2 RES2       54 GROUP             0 ****  ****    0  
     3 RES3       65 GROUP             0 ****  ****    0  
     4 RES4       68 GROUP             0 ****  ****    0  
     5 RES5       73 GROUP             0 ****  ****    0  
     6 RES6       78 GROUP             0 ****  ****    0  
@<TRIPOS>CRYSIN
   38.5930   12.7090   14.1750   90.0000   95.5100   90.0000    15     1
