@<TRIPOS>MOLECULE
XIFKOP
    95   102     5     0     0
SMALL
USER_CHARGES
****
Generated from the CSD

@<TRIPOS>ATOM
     1 Fe1      3.5434   1.5459   6.6913   Fe        1 RES1   2.0000
     2 O1       0.0871   0.0321   8.1234   O.3       1 RES1   0.0000
     3 O2       6.8920  -0.6947   6.3380   O.3       1 RES1   0.0000
     4 O3       4.4080   4.1407   9.6625   O.3       1 RES1   0.0000
     5 O4       2.7511   2.7605   2.9216   O.3       1 RES1   0.0000
     6 N1       1.6669   1.3818   7.2541   N.2       1 RES1   0.0000
     7 N2       3.4882  -0.2825   7.1912   N.ar      1 RES1   0.0000
     8 N3       5.4051   1.0001   6.2785   N.2       1 RES1   0.0000
     9 N4       2.2797  -6.3927   8.7997   N.ar      1 RES1   0.0000
    10 N5       4.0281   2.2688   8.4518   N.2       1 RES1   0.0000
    11 N6       3.6181   3.3925   6.2872   N.ar      1 RES1   0.0000
    12 N7       3.0553   1.5131   4.7749   N.2       1 RES1   0.0000
    13 N8       4.9565   9.6341   5.8187   N.ar      1 RES1   0.0000
    14 C1       0.4785   2.2581   7.3433   C.3       1 RES1   0.0000
    15 H1       0.1786   2.5498   6.4446   H         1 RES1   0.0000
    16 H2       0.6613   3.0582   7.8975   H         1 RES1   0.0000
    17 C2      -0.5614   1.3466   8.0077   C.3       1 RES1   0.0000
    18 H3      -0.8099   1.6932   8.9011   H         1 RES1   0.0000
    19 H4      -1.3784   1.2840   7.4517   H         1 RES1   0.0000
    20 C3       1.3298   0.2244   7.7000   C.2       1 RES1   0.0000
    21 C4       2.3554  -0.8077   7.7139   C.ar      1 RES1   0.0000
    22 C5       2.2912  -2.1161   8.1755   C.ar      1 RES1   0.0000
    23 H5       1.4841  -2.4658   8.5339   H         1 RES1   0.0000
    24 C6       3.4424  -2.9070   8.1021   C.ar      1 RES1   0.0000
    25 C7       3.4382  -4.3010   8.6004   C.ar      1 RES1   0.0000
    26 C8       2.3569  -5.1346   8.3626   C.ar      1 RES1   0.0000
    27 H6       1.6284  -4.7896   7.8591   H         1 RES1   0.0000
    28 C9       3.3196  -6.8553   9.5288   C.ar      1 RES1   0.0000
    29 H7       3.2682  -7.7363   9.8802   H         1 RES1   0.0000
    30 C10      4.4480  -6.1118   9.7893   C.ar      1 RES1   0.0000
    31 H8       5.1665  -6.4843  10.2858   H         1 RES1   0.0000
    32 C11      4.5180  -4.8094   9.3155   C.ar      1 RES1   0.0000
    33 H9       5.2879  -4.2766   9.4746   H         1 RES1   0.0000
    34 C12      4.6294  -2.3497   7.5846   C.ar      1 RES1   0.0000
    35 H10      5.4322  -2.8582   7.5478   H         1 RES1   0.0000
    36 C13      4.5937  -1.0413   7.1317   C.ar      1 RES1   0.0000
    37 C14      5.6707  -0.2168   6.5722   C.2       1 RES1   0.0000
    38 C15      7.6262   0.4275   5.7295   C.3       1 RES1   0.0000
    39 H11      7.9162   0.1985   4.8098   H         1 RES1   0.0000
    40 H12      8.4247   0.6550   6.2680   H         1 RES1   0.0000
    41 C16      6.6463   1.5863   5.7103   C.3       1 RES1   0.0000
    42 H13      6.9720   2.3375   6.2663   H         1 RES1   0.0000
    43 H14      6.4949   1.9100   4.7854   H         1 RES1   0.0000
    44 C17      4.2623   1.7543   9.8243   C.3       1 RES1   0.0000
    45 H15      5.0537   1.1588   9.8522   H         1 RES1   0.0000
    46 H16      3.4724   1.2581  10.1582   H         1 RES1   0.0000
    47 C18      4.5009   3.0322  10.6443   C.3       1 RES1   0.0000
    48 H17      3.8138   3.1299  11.3506   H         1 RES1   0.0000
    49 H18      5.3951   3.0139  11.0691   H         1 RES1   0.0000
    50 C19      4.1181   3.5483   8.4955   C.2       1 RES1   0.0000
    51 C20      3.9067   4.2873   7.2594   C.ar      1 RES1   0.0000
    52 C21      3.9467   5.6476   7.0198   C.ar      1 RES1   0.0000
    53 H19      4.1395   6.2584   7.7227   H         1 RES1   0.0000
    54 C22      3.6996   6.1103   5.7225   C.ar      1 RES1   0.0000
    55 C23      3.7753   7.5622   5.4480   C.ar      1 RES1   0.0000
    56 C24      4.8066   8.3195   6.0040   C.ar      1 RES1   0.0000
    57 H20      5.4436   7.8707   6.5495   H         1 RES1   0.0000
    58 C25      4.0195  10.2525   5.0599   C.ar      1 RES1   0.0000
    59 H21      4.0881  11.1914   4.9357   H         1 RES1   0.0000
    60 C26      2.9796   9.5914   4.4654   C.ar      1 RES1   0.0000
    61 H22      2.3554  10.0692   3.9304   H         1 RES1   0.0000
    62 C27      2.8411   8.2203   4.6455   C.ar      1 RES1   0.0000
    63 H23      2.1297   7.7424   4.2346   H         1 RES1   0.0000
    64 C28      3.3696   5.1926   4.7224   C.ar      1 RES1   0.0000
    65 H24      3.1653   5.4858   3.8412   H         1 RES1   0.0000
    66 C29      3.3496   3.8384   5.0441   C.ar      1 RES1   0.0000
    67 C30      3.0296   2.6765   4.2224   C.2       1 RES1   0.0000
    68 C31      2.5311   1.3756   2.4915   C.3       1 RES1   0.0000
    69 H25      3.1925   1.1161   1.8009   H         1 RES1   0.0000
    70 H26      1.6212   1.2672   2.1156   H         1 RES1   0.0000
    71 C32      2.6997   0.5206   3.7433   C.3       1 RES1   0.0000
    72 H27      1.8583   0.0534   3.9724   H         1 RES1   0.0000
    73 H28      3.4210  -0.1466   3.6262   H         1 RES1   0.0000
    74 Cl1      0.9335   1.9238  11.5337   Cl        2 RES2   0.0000
    75 O5      -0.4228   2.0994  11.9346   O.2       2 RES2   0.0000
    76 O6       1.2770   2.8826  10.4921   O.3       2 RES2  -1.0000
    77 O7       1.8184   2.0963  12.6392   O.2       2 RES2   0.0000
    78 O8       1.1099   0.6153  11.0132   O.2       2 RES2   0.0000
    79 Cl2      6.7766   2.6620  13.8571   Cl        3 RES3   0.0000
    80 O9       5.3636   2.4902  13.6807   O.2       3 RES3   0.0000
    81 O10      7.3948   1.3634  13.9417   O.2       3 RES3   0.0000
    82 O11      7.0363   3.3803  15.0782   O.2       3 RES3   0.0000
    83 O12      7.3134   3.3987  12.7406   O.3       3 RES3  -1.0000
    84 O13     -0.0014  -7.9562   8.2437   O.3       4 RES4   0.0000
    85 H29      0.6128  -7.3973   8.3731   H         4 RES4   0.0000
    86 C33      0.5471  -9.1715   7.9115   C.3       4 RES4   0.0000
    87 H30      1.4598  -9.2249   8.2647   H         4 RES4   0.0000
    88 H31      0.5685  -9.2631   6.9359   H         4 RES4   0.0000
    89 H32      0.0043  -9.8906   8.2962   H         4 RES4   0.0000
    90 O14      7.1577  10.9044   7.1824   O.3       5 RES5   0.0000
    91 H33      6.6106  10.3593   6.8520   H         5 RES5   0.0000
    92 C34      8.0590  11.3273   6.1841   C.3       5 RES5   0.0000
    93 H34      7.5577  11.6968   5.4270   H         5 RES5   0.0000
    94 H35      8.5933  10.5639   5.8816   H         5 RES5   0.0000
    95 H36      8.6518  12.0159   6.5495   H         5 RES5   0.0000
@<TRIPOS>BOND
     1     1     6    1
     2     2    17    1
     3     3    37    1
     4     4    47    1
     5     5    67    1
     6     6    14    1
     7     7     1    1
     8     8     1    1
     9     9    26   ar
    10    10     1    1
    11    11     1    1
    12    12     1    1
    13    13    56   ar
    14    14    15    1
    15    16    14    1
    16    17    14    1
    17    18    17    1
    18    19    17    1
    19    20     2    1
    20    21     7   ar
    21    22    21   ar
    22    23    22    1
    23    24    22   ar
    24    25    24    1
    25    26    25   ar
    26    27    26    1
    27    28     9   ar
    28    29    28    1
    29    30    28   ar
    30    31    30    1
    31    32    25   ar
    32    33    32    1
    33    34    24   ar
    34    35    34    1
    35    36     7   ar
    36    37     8    2
    37    38     3    1
    38    39    38    1
    39    40    38    1
    40    41     8    1
    41    42    41    1
    42    43    41    1
    43    44    10    1
    44    45    44    1
    45    46    44    1
    46    47    44    1
    47    48    47    1
    48    49    47    1
    49    50     4    1
    50    51    11   ar
    51    52    51   ar
    52    53    52    1
    53    54    52   ar
    54    55    54    1
    55    56    55   ar
    56    57    56    1
    57    58    13   ar
    58    59    58    1
    59    60    58   ar
    60    61    60    1
    61    62    55   ar
    62    63    62    1
    63    64    54   ar
    64    65    64    1
    65    66    11   ar
    66    67    12    2
    67    68     5    1
    68    69    68    1
    69    70    68    1
    70    71    12    1
    71    72    71    1
    72    73    71    1
    73     6    20    2
    74    10    50    2
    75    20    21    1
    76    30    32   ar
    77    34    36   ar
    78    36    37    1
    79    38    41    1
    80    50    51    1
    81    60    62   ar
    82    64    66   ar
    83    66    67    1
    84    68    71    1
    85    74    75    2
    86    76    74    1
    87    77    74    2
    88    78    74    2
    89    79    80    2
    90    81    79    2
    91    82    79    2
    92    83    79    1
    93    84    85    1
    94    86    84    1
    95    87    86    1
    96    88    86    1
    97    89    86    1
    98    90    91    1
    99    92    90    1
   100    93    92    1
   101    94    92    1
   102    95    92    1
@<TRIPOS>SUBSTRUCTURE
     1 RES1        1 GROUP             0 ****  ****    0  
     2 RES2       74 GROUP             0 ****  ****    0  
     3 RES3       79 GROUP             0 ****  ****    0  
     4 RES4       84 GROUP             0 ****  ****    0  
     5 RES5       90 GROUP             0 ****  ****    0  
@<TRIPOS>CRYSIN
   14.2840   15.2680   17.4840   90.0000   90.0000   90.0000    19     1
