@<TRIPOS>MOLECULE
XIFREM
    83    93     1     0     0
SMALL
NO_CHARGES
****
Generated from the CSD

@<TRIPOS>ATOM
     1 Fe1      4.7778   4.6617   8.1467   Fe        1 RES1   0.0000
     2 Si1      1.1383   9.6316  11.8245   Si        1 RES1   0.0000
     3 F1       1.8333   3.2834  11.0469   F         1 RES1   0.0000
     4 F2       7.7098   6.0488   5.2285   F         1 RES1   0.0000
     5 O1       2.5049   5.1648   9.8710   O.3       1 RES1   0.0000
     6 O2       6.5334   6.7519   7.0842   O.3       1 RES1   0.0000
     7 O3       4.1129   3.5252  10.7321   O.3       1 RES1   0.0000
     8 O4       7.3953   4.4617   6.8699   O.3       1 RES1   0.0000
     9 O5       2.5967   2.8981   8.9095   O.3       1 RES1   0.0000
    10 O6       5.5740   5.2279   5.4190   O.3       1 RES1   0.0000
    11 N1       3.4935   5.7149   9.1026   N.2       1 RES1   0.0000
    12 N2       5.5224   6.4383   7.9651   N.2       1 RES1   0.0000
    13 N3       5.1193   3.7789   9.8009   N.2       1 RES1   0.0000
    14 N4       6.6057   4.0325   7.9201   N.2       1 RES1   0.0000
    15 N5       3.3862   3.3380   7.8738   N.2       1 RES1   0.0000
    16 N6       4.6443   4.6083   6.2496   N.2       1 RES1   0.0000
    17 C1       3.7378   7.0055   9.2613   C.2       1 RES1   0.0000
    18 C2       4.8883   7.4186   8.5219   C.2       1 RES1   0.0000
    19 H1       5.1608   8.3251   8.4465   H         1 RES1   0.0000
    20 C3       6.2665   3.1624  10.0152   C.2       1 RES1   0.0000
    21 C4       7.1943   3.4332   8.9306   C.2       1 RES1   0.0000
    22 C5       3.0206   3.0180   6.6477   C.2       1 RES1   0.0000
    23 C6       3.8515   3.7318   5.6623   C.2       1 RES1   0.0000
    24 C7       2.9613   7.8617  10.0774   C.1       1 RES1   0.0000
    25 C8       2.2871   8.6151  10.7480   C.1       1 RES1   0.0000
    26 C9       0.0096   8.4032  12.6685   C.3       1 RES1   0.0000
    27 H2      -0.5883   8.8773  13.2835   H         1 RES1   0.0000
    28 H3       0.5474   7.7557  13.1711   H         1 RES1   0.0000
    29 H4      -0.5232   7.9313  11.9952   H         1 RES1   0.0000
    30 C10      2.1985  10.5875  13.0071   C.3       1 RES1   0.0000
    31 H5       2.7727  11.2039  12.5058   H         1 RES1   0.0000
    32 H6       2.7564   9.9668  13.5203   H         1 RES1   0.0000
    33 H7       1.6272  11.0958  13.6195   H         1 RES1   0.0000
    34 C11      0.2112  10.7823  10.7070   C.3       1 RES1   0.0000
    35 H8       0.8420  11.3880  10.2639   H         1 RES1   0.0000
    36 H9      -0.4278  11.3067  11.2347   H         1 RES1   0.0000
    37 H10     -0.2722  10.2632  10.0311   H         1 RES1   0.0000
    38 C12      6.4745   2.2196  11.1514   C.ar      1 RES1   0.0000
    39 C13      5.8448   0.9707  11.1104   C.ar      1 RES1   0.0000
    40 H11      5.3126   0.7363  10.3578   H         1 RES1   0.0000
    41 C14      5.9876   0.0696  12.1579   C.ar      1 RES1   0.0000
    42 H12      5.5577  -0.7770  12.1262   H         1 RES1   0.0000
    43 C15      6.7753   0.4217  13.2637   C.ar      1 RES1   0.0000
    44 H13      6.8763  -0.1884  13.9845   H         1 RES1   0.0000
    45 C16      7.3911   1.6288  13.3113   C.ar      1 RES1   0.0000
    46 H14      7.9208   1.8589  14.0665   H         1 RES1   0.0000
    47 C17      7.2509   2.5503  12.2439   C.ar      1 RES1   0.0000
    48 H15      7.6897   3.3925  12.2796   H         1 RES1   0.0000
    49 C18      8.6568   3.1325   8.9386   C.ar      1 RES1   0.0000
    50 C19      9.4884   3.6344   9.9240   C.ar      1 RES1   0.0000
    51 H16      9.1175   4.1502  10.6303   H         1 RES1   0.0000
    52 C20     10.8512   3.3957   9.8962   C.ar      1 RES1   0.0000
    53 H17     11.4131   3.7789  10.5588   H         1 RES1   0.0000
    54 C21     11.3962   2.6017   8.9042   C.ar      1 RES1   0.0000
    55 H18     12.3261   2.4090   8.9029   H         1 RES1   0.0000
    56 C22     10.5810   2.0933   7.9201   C.ar      1 RES1   0.0000
    57 H19     10.9568   1.5582   7.2297   H         1 RES1   0.0000
    58 C23      9.2196   2.3512   7.9214   C.ar      1 RES1   0.0000
    59 H20      8.6693   1.9981   7.2337   H         1 RES1   0.0000
    60 C24      1.9440   2.0666   6.2972   C.ar      1 RES1   0.0000
    61 C25      1.8124   0.8572   6.9850   C.ar      1 RES1   0.0000
    62 H21      2.3827   0.6667   7.7191   H         1 RES1   0.0000
    63 C26      0.8562  -0.0589   6.5988   C.ar      1 RES1   0.0000
    64 H22      0.7807  -0.8840   7.0644   H         1 RES1   0.0000
    65 C27     -0.0076   0.2173   5.5221   C.ar      1 RES1   0.0000
    66 H23     -0.6597  -0.4184   5.2523   H         1 RES1   0.0000
    67 C28      0.1060   1.4127   4.8701   C.ar      1 RES1   0.0000
    68 H24     -0.4885   1.6074   4.1545   H         1 RES1   0.0000
    69 C29      1.0650   2.3502   5.2232   C.ar      1 RES1   0.0000
    70 H25      1.1330   3.1710   4.7497   H         1 RES1   0.0000
    71 C30      3.8143   3.4782   4.1836   C.ar      1 RES1   0.0000
    72 C31      3.5232   4.5237   3.3278   C.ar      1 RES1   0.0000
    73 H26      3.3790   5.3970   3.6730   H         1 RES1   0.0000
    74 C32      3.4423   4.2926   1.9470   C.ar      1 RES1   0.0000
    75 H27      3.2074   5.0010   1.3597   H         1 RES1   0.0000
    76 C33      3.7028   3.0458   1.4443   C.ar      1 RES1   0.0000
    77 H28      3.6742   2.8992   0.5066   H         1 RES1   0.0000
    78 C34      4.0127   1.9842   2.3107   C.ar      1 RES1   0.0000
    79 H29      4.2026   1.1226   1.9575   H         1 RES1   0.0000
    80 C35      4.0429   2.1982   3.7114   C.ar      1 RES1   0.0000
    81 H30      4.2157   1.4812   4.3106   H         1 RES1   0.0000
    82 B1       2.7660   3.7147  10.1435   B         1 RES1   0.0000
    83 B2       6.7945   5.6153   6.1649   B         1 RES1   0.0000
@<TRIPOS>BOND
     1     1    11    1
     2     2    25    1
     3     3    82    1
     4     4    83    1
     5     5    11    1
     6     6    12    1
     7     7    13    1
     8     8    14    1
     9     9    15    1
    10    10    16    1
    11    11    17    2
    12    12     1    1
    13    13     1    1
    14    14     1    1
    15    15     1    1
    16    16     1    1
    17    17    18    1
    18    18    12    2
    19    19    18    1
    20    20    13    2
    21    21    14    2
    22    22    15    2
    23    23    16    2
    24    24    17    1
    25    25    24    3
    26    26     2    1
    27    27    26    1
    28    28    26    1
    29    29    26    1
    30    30     2    1
    31    31    30    1
    32    32    30    1
    33    33    30    1
    34    34     2    1
    35    35    34    1
    36    36    34    1
    37    37    34    1
    38    38    20    1
    39    39    38   ar
    40    40    39    1
    41    41    39   ar
    42    42    41    1
    43    43    41   ar
    44    44    43    1
    45    45    43   ar
    46    46    45    1
    47    47    38   ar
    48    48    47    1
    49    49    21    1
    50    50    49   ar
    51    51    50    1
    52    52    50   ar
    53    53    52    1
    54    54    52   ar
    55    55    54    1
    56    56    54   ar
    57    57    56    1
    58    58    49   ar
    59    59    58    1
    60    60    22    1
    61    61    60   ar
    62    62    61    1
    63    63    61   ar
    64    64    63    1
    65    65    63   ar
    66    66    65    1
    67    67    65   ar
    68    68    67    1
    69    69    60   ar
    70    70    69    1
    71    71    23    1
    72    72    71   ar
    73    73    72    1
    74    74    72   ar
    75    75    74    1
    76    76    74   ar
    77    77    76    1
    78    78    76   ar
    79    79    78    1
    80    80    71   ar
    81    81    80    1
    82    82     5    1
    83    83     6    1
    84     7    82    1
    85     8    83    1
    86     9    82    1
    87    10    83    1
    88    20    21    1
    89    22    23    1
    90    45    47   ar
    91    56    58   ar
    92    67    69   ar
    93    78    80   ar
@<TRIPOS>SUBSTRUCTURE
     1 RES1        1 GROUP             0 ****  ****    0  
@<TRIPOS>CRYSIN
   12.6520   10.7020   13.2270   90.0000   90.4200   90.0000     4     1
