@<TRIPOS>MOLECULE
XIFVAM
    85    87     3     0     0
SMALL
USER_CHARGES
****
Generated from the CSD

@<TRIPOS>ATOM
     1 Fe1      8.7096   6.9685  15.6500   Fe        1 RES1   1.0000
     2 Cl1      7.2926   4.3764  17.4892   Cl        1 RES1   0.0000
     3 O1      10.4679   3.2598  14.8627   O.3       1 RES1   0.0000
     4 O2       7.3012   5.5360  16.5916   O.3       1 RES1   0.0000
     5 O3       6.0034   3.7941  17.3668   O.2       1 RES1   0.0000
     6 O4       8.3063   3.4490  17.0958   O.2       1 RES1   0.0000
     7 O5       7.5393   4.8184  18.7922   O.2       1 RES1   0.0000
     8 O6       6.9817   7.5534  14.7456   O.3       1 RES1   0.0000
     9 H1       6.9520   8.4061  14.7038   H         1 RES1   0.0000
    10 H2       6.3173   7.2706  15.1989   H         1 RES1   0.0000
    11 O7       9.6762   8.3920  14.4877   O.3       1 RES1   0.0000
    12 H3      10.0317   8.9752  14.9965   H         1 RES1   0.0000
    13 H4       9.1134   8.7698  13.9739   H         1 RES1   0.0000
    14 N1       9.0258   8.4088  17.3566   N.2       1 RES1   0.0000
    15 N2      10.3431   6.2476  16.7467   N.ar      1 RES1   0.0000
    16 N3       9.4020   5.2149  14.5230   N.2       1 RES1   0.0000
    17 C1       8.7773  10.8551  17.1337   C.ar      1 RES1   0.0000
    18 C2       7.9393  11.9740  17.2569   C.ar      1 RES1   0.0000
    19 H5       8.2598  12.8063  16.9905   H         1 RES1   0.0000
    20 C3       6.6673  11.8842  17.7513   C.ar      1 RES1   0.0000
    21 H6       6.1379  12.6434  17.8345   H         1 RES1   0.0000
    22 C4       6.1766  10.6299  18.1321   C.ar      1 RES1   0.0000
    23 H7       5.3097  10.5618  18.4631   H         1 RES1   0.0000
    24 C5       6.9477   9.4953  18.0264   C.ar      1 RES1   0.0000
    25 C6       8.2650   9.6128  17.5310   C.ar      1 RES1   0.0000
    26 C7      10.0483   8.1752  18.1112   C.2       1 RES1   0.0000
    27 C8      10.8070   6.9256  17.8106   C.ar      1 RES1   0.0000
    28 C9      11.9048   6.4740  18.5082   C.ar      1 RES1   0.0000
    29 H8      12.2410   6.9623  19.2250   H         1 RES1   0.0000
    30 C10     12.5068   5.2748  18.1253   C.ar      1 RES1   0.0000
    31 H9      13.2463   4.9524  18.5882   H         1 RES1   0.0000
    32 C11     11.9966   4.5716  17.0558   C.ar      1 RES1   0.0000
    33 H10     12.3747   3.7629  16.7953   H         1 RES1   0.0000
    34 C12     10.9183   5.0915  16.3826   C.ar      1 RES1   0.0000
    35 C13     10.2380   4.5284  15.2127   C.2       1 RES1   0.0000
    36 C14      8.9454   4.3463  13.4064   C.3       1 RES1   0.0000
    37 H11      7.9661   4.3638  13.3708   H         1 RES1   0.0000
    38 C15      9.4010   2.9615  13.8882   C.3       1 RES1   0.0000
    39 H12      8.6699   2.4833  14.3108   H         1 RES1   0.0000
    40 H13      9.7414   2.4316  13.1519   H         1 RES1   0.0000
    41 C16     10.1679  11.0516  16.5377   C.3       1 RES1   0.0000
    42 H14     10.6122  10.1780  16.5138   H         1 RES1   0.0000
    43 C17     10.0793  11.5775  15.1044   C.3       1 RES1   0.0000
    44 H15      9.4681  11.0343  14.6016   H         1 RES1   0.0000
    45 H16     10.9476  11.5438  14.6970   H         1 RES1   0.0000
    46 H17      9.7660  12.4850  15.1157   H         1 RES1   0.0000
    47 C18     11.0276  11.9932  17.3772   C.3       1 RES1   0.0000
    48 H18     10.6552  12.8779  17.3472   H         1 RES1   0.0000
    49 H19     11.9205  12.0097  17.0265   H         1 RES1   0.0000
    50 H20     11.0461  11.6853  18.2866   H         1 RES1   0.0000
    51 C19      6.4405   8.1404  18.5071   C.3       1 RES1   0.0000
    52 H21      6.9299   7.4524  18.0099   H         1 RES1   0.0000
    53 C20      6.7580   7.9379  19.9980   C.3       1 RES1   0.0000
    54 H22      7.6877   8.1181  20.1551   H         1 RES1   0.0000
    55 H23      6.5609   7.0321  20.2477   H         1 RES1   0.0000
    56 H24      6.2230   8.5378  20.5238   H         1 RES1   0.0000
    57 C21      4.9561   7.9152  18.2508   C.3       1 RES1   0.0000
    58 H25      4.4415   8.4705  18.8403   H         1 RES1   0.0000
    59 H26      4.7403   6.9933  18.4090   H         1 RES1   0.0000
    60 H27      4.7518   8.1396  17.3397   H         1 RES1   0.0000
    61 C22     10.5204   9.0078  19.2525   C.3       1 RES1   0.0000
    62 H28     11.4024   9.3369  19.0658   H         1 RES1   0.0000
    63 H29     10.5409   8.4738  20.0509   H         1 RES1   0.0000
    64 H30      9.9222   9.7476  19.3786   H         1 RES1   0.0000
    65 C23      9.4999   4.7872  12.0451   C.3       1 RES1   0.0000
    66 C24     11.0276   4.5800  11.9946   C.3       1 RES1   0.0000
    67 H31     11.4430   5.0834  12.6982   H         1 RES1   0.0000
    68 H32     11.3633   4.8795  11.1458   H         1 RES1   0.0000
    69 H33     11.2280   3.6478  12.1061   H         1 RES1   0.0000
    70 C25      8.8361   3.9199  10.9719   C.3       1 RES1   0.0000
    71 H34      9.0172   2.9949  11.1520   H         1 RES1   0.0000
    72 H35      9.1866   4.1538  10.1100   H         1 RES1   0.0000
    73 H36      7.8875   4.0687  10.9834   H         1 RES1   0.0000
    74 C26      9.1680   6.2500  11.7854   C.3       1 RES1   0.0000
    75 H37      8.2335   6.3988  11.9427   H         1 RES1   0.0000
    76 H38      9.3774   6.4673  10.8728   H         1 RES1   0.0000
    77 H39      9.6854   6.8049  12.3724   H         1 RES1   0.0000
    78 Cl2      2.7612   7.9009  14.3833   Cl        2 RES2   0.0000
    79 O8       4.1088   8.3560  14.2151   O.2       2 RES2   0.0000
    80 O9       2.0998   8.5741  15.4496   O.2       2 RES2   0.0000
    81 O10      2.0493   8.1308  13.1323   O.3       2 RES2  -1.0000
    82 O11      2.7100   6.5255  14.6388   O.2       2 RES2   0.0000
    83 O12      5.2747   5.4545  14.6179   O.3       3 RES3   0.0000
    84 H40      4.4652   5.7142  14.6017   H         3 RES3   0.0000
    85 H41      5.3594   4.8274  15.1852   H         3 RES3   0.0000
@<TRIPOS>BOND
     1     1     4    1
     2     2     4    1
     3     3    35    1
     4     5     2    2
     5     6     2    2
     6     7     2    2
     7     8     1    1
     8     9     8    1
     9    10     8    1
    10    11     1    1
    11    12    11    1
    12    13    11    1
    13    14     1    1
    14    15     1    1
    15    16     1    1
    16    17    18   ar
    17    18    19    1
    18    20    18   ar
    19    21    20    1
    20    22    20   ar
    21    23    22    1
    22    24    22   ar
    23    25    14    1
    24    26    14    2
    25    27    15   ar
    26    28    27   ar
    27    29    28    1
    28    30    28   ar
    29    31    30    1
    30    32    30   ar
    31    33    32    1
    32    34    15   ar
    33    35    16    2
    34    36    16    1
    35    37    36    1
    36    38     3    1
    37    39    38    1
    38    40    38    1
    39    41    17    1
    40    42    41    1
    41    43    41    1
    42    44    43    1
    43    45    43    1
    44    46    43    1
    45    47    41    1
    46    48    47    1
    47    49    47    1
    48    50    47    1
    49    51    24    1
    50    52    51    1
    51    53    51    1
    52    54    53    1
    53    55    53    1
    54    56    53    1
    55    57    51    1
    56    58    57    1
    57    59    57    1
    58    60    57    1
    59    61    26    1
    60    62    61    1
    61    63    61    1
    62    64    61    1
    63    65    36    1
    64    66    65    1
    65    67    66    1
    66    68    66    1
    67    69    66    1
    68    70    65    1
    69    71    70    1
    70    72    70    1
    71    73    70    1
    72    74    65    1
    73    75    74    1
    74    76    74    1
    75    77    74    1
    76    17    25   ar
    77    24    25   ar
    78    26    27    1
    79    32    34   ar
    80    34    35    1
    81    36    38    1
    82    78    79    2
    83    80    78    2
    84    81    78    1
    85    82    78    2
    86    83    84    1
    87    85    83    1
@<TRIPOS>SUBSTRUCTURE
     1 RES1        1 GROUP             0 ****  ****    0  
     2 RES2       78 GROUP             0 ****  ****    0  
     3 RES3       83 GROUP             0 ****  ****    0  
@<TRIPOS>CRYSIN
   10.3081   11.9800   26.1548   90.0000   90.0000   90.0000    19     1
