@<TRIPOS>MOLECULE
XIGQUZ
    93   103     3     0     0
SMALL
NO_CHARGES
****
Generated from the CSD

@<TRIPOS>ATOM
     1 Fe1      3.7101   3.1452   2.6558   Fe        1 RES1   0.0000
     2 Cl1      2.2371   5.3050  -0.8846   Cl        1 RES1   0.0000
     3 Cl2      5.5233   5.2796  -0.7437   Cl        1 RES1   0.0000
     4 F1      -0.5977   3.6036   2.7375   F         1 RES1   0.0000
     5 F2       8.0265   2.7145   2.5980   F         1 RES1   0.0000
     6 B1       0.7523   3.4541   2.7076   B         1 RES1   0.0000
     7 B2       6.6758   2.8441   2.6187   B         1 RES1   0.0000
     8 O1       1.2111   3.7397   1.3154   O.3       1 RES1   0.0000
     9 O2       6.3217   3.9878   1.7272   O.3       1 RES1   0.0000
    10 O3       1.3368   4.4358   3.6569   O.3       1 RES1   0.0000
    11 O4       6.2581   3.0806   4.0179   O.3       1 RES1   0.0000
    12 O5       1.0792   2.0627   3.1017   O.3       1 RES1   0.0000
    13 O6       6.0730   1.5962   2.0841   O.3       1 RES1   0.0000
    14 N1       2.5706   3.7890   1.2623   N.2       1 RES1   0.0000
    15 N2       4.9730   4.0832   1.5663   N.2       1 RES1   0.0000
    16 N3       2.6794   4.2234   3.8430   N.2       1 RES1   0.0000
    17 N4       4.9274   3.4028   4.1031   N.2       1 RES1   0.0000
    18 N5       2.4113   1.7736   2.9292   N.2       1 RES1   0.0000
    19 N6       4.7065   1.5758   2.2362   N.2       1 RES1   0.0000
    20 C1       3.1106   4.5180   0.3328   C.2       1 RES1   0.0000
    21 C2       4.5362   4.6141   0.4597   C.2       1 RES1   0.0000
    22 C3       3.1776   4.5556   5.0046   C.2       1 RES1   0.0000
    23 C4       4.5623   4.1411   5.1299   C.2       1 RES1   0.0000
    24 C5       2.7251   0.5205   2.6911   C.2       1 RES1   0.0000
    25 C6       4.1462   0.3990   2.3784   C.2       1 RES1   0.0000
    26 C7       2.4593   5.2851   6.0708   C.ar      1 RES1   0.0000
    27 C8       2.5035   4.8106   7.3811   C.ar      1 RES1   0.0000
    28 H1       2.8812   3.9959   7.5536   H         1 RES1   0.0000
    29 C9       1.9526   5.5839   8.3952   C.ar      1 RES1   0.0000
    30 H2       2.0375   5.1817   9.2460   H         1 RES1   0.0000
    31 C10      1.3848   6.8111   8.1115   C.ar      1 RES1   0.0000
    32 H3       1.1214   7.3838   8.7876   H         1 RES1   0.0000
    33 C11      1.3412   7.2680   6.8156   C.ar      1 RES1   0.0000
    34 H4       1.0031   8.0393   6.5636   H         1 RES1   0.0000
    35 C12      1.8703   6.5113   5.7836   C.ar      1 RES1   0.0000
    36 H5       1.8432   6.8421   4.9091   H         1 RES1   0.0000
    37 C13      5.4279   4.4973   6.2720   C.ar      1 RES1   0.0000
    38 C14      6.1364   3.5017   6.9333   C.ar      1 RES1   0.0000
    39 H6       6.0926   2.7253   6.6911   H         1 RES1   0.0000
    40 C15      6.8561   3.8108   8.0825   C.ar      1 RES1   0.0000
    41 H7       7.2665   3.1367   8.5164   H         1 RES1   0.0000
    42 C16      6.8822   5.1052   8.5658   C.ar      1 RES1   0.0000
    43 H8       7.3478   5.2468   9.4006   H         1 RES1   0.0000
    44 C17      6.1977   6.1008   7.9064   C.ar      1 RES1   0.0000
    45 H9       6.1518   7.0613   8.2045   H         1 RES1   0.0000
    46 C18      5.4646   5.8062   6.7621   C.ar      1 RES1   0.0000
    47 H10      4.9717   6.4234   6.3954   H         1 RES1   0.0000
    48 C19      1.7783  -0.6100   2.7027   C.ar      1 RES1   0.0000
    49 C20      1.8575  -1.5921   1.7155   C.ar      1 RES1   0.0000
    50 H11      2.4599  -1.4805   1.0496   H         1 RES1   0.0000
    51 C21      0.9854  -2.6787   1.7494   C.ar      1 RES1   0.0000
    52 H12      1.0482  -3.3301   1.1256   H         1 RES1   0.0000
    53 C22      0.0654  -2.8162   2.7505   C.ar      1 RES1   0.0000
    54 H13     -0.4983  -3.5937   2.7611   H         1 RES1   0.0000
    55 C23     -0.0230  -1.8382   3.7391   C.ar      1 RES1   0.0000
    56 H14     -0.6418  -1.9602   4.4860   H         1 RES1   0.0000
    57 C24      0.8205  -0.7392   3.7155   C.ar      1 RES1   0.0000
    58 H15      0.7360  -0.0496   4.4128   H         1 RES1   0.0000
    59 C25      4.8912  -0.8677   2.2986   C.ar      1 RES1   0.0000
    60 C26      5.8263  -1.0659   1.2802   C.ar      1 RES1   0.0000
    61 H16      5.9710  -0.3722   0.6238   H         1 RES1   0.0000
    62 C27      6.5636  -2.2352   1.2297   C.ar      1 RES1   0.0000
    63 H17      7.2451  -2.3500   0.4828   H         1 RES1   0.0000
    64 C28      6.3737  -3.2143   2.1896   C.ar      1 RES1   0.0000
    65 H18      6.7919  -4.0134   2.2050   H         1 RES1   0.0000
    66 C29      5.4310  -3.0437   3.1812   C.ar      1 RES1   0.0000
    67 H19      5.2583  -3.6485   3.8622   H         1 RES1   0.0000
    68 C30      4.6846  -1.8682   3.2449   C.ar      1 RES1   0.0000
    69 H20      4.0451  -1.7524   3.9734   H         1 RES1   0.0000
    70 C31      4.7129   0.0103  -2.0005   C.ar      2 RES2   0.0000
    71 H21      5.7069   0.0041  -2.2484   H         2 RES2   0.0000
    72 C32      3.9588  -1.0721  -1.9932   C.ar      2 RES2   0.0000
    73 H22      4.2899  -2.0191  -2.2105   H         2 RES2   0.0000
    74 C33      2.6375  -1.0142  -1.6745   C.ar      2 RES2   0.0000
    75 H23      2.1624  -1.7390  -1.5839   H         2 RES2   0.0000
    76 C34      2.0773   0.1820  -1.3407   C.ar      2 RES2   0.0000
    77 H24      1.2244   0.1809  -1.1527   H         2 RES2   0.0000
    78 C35      2.8163   1.3027  -1.3295   C.ar      2 RES2   0.0000
    79 H25      2.5023   2.1287  -1.1690   H         2 RES2   0.0000
    80 C36      4.1559   1.2200  -1.6870   C.ar      2 RES2   0.0000
    81 H26      4.5548   1.7265  -1.6328   H         2 RES2   0.0000
    82 C37      2.7034   0.9646   6.5237   C.ar      3 RES3   0.0000
    83 H27      2.0295   1.5105   5.6930   H         3 RES3   0.0000
    84 C38      2.0145   0.6544   7.6835   C.ar      3 RES3   0.0000
    85 H28      1.0304   0.7961   7.8601   H         3 RES3   0.0000
    86 C39      2.6648  -0.0713   8.6884   C.ar      3 RES3   0.0000
    87 H29      2.2887  -0.3412   9.4901   H         3 RES3   0.0000
    88 C40      3.9710  -0.4652   8.4831   C.ar      3 RES3   0.0000
    89 H30      4.4673  -0.9873   9.0778   H         3 RES3   0.0000
    90 C41      4.5908  -0.1313   7.3089   C.ar      3 RES3   0.0000
    91 H31      5.4465  -0.4291   7.2200   H         3 RES3   0.0000
    92 C42      3.9498   0.5345   6.3626   C.ar      3 RES3   0.0000
    93 H32      4.3764   0.8126   5.4489   H         3 RES3   0.0000
@<TRIPOS>BOND
     1     1    14    1
     2     2    20    1
     3     3    21    1
     4     4     6    1
     5     5     7    1
     6     6     8    1
     7     7     9    1
     8     8    14    1
     9     9    15    1
    10    10     6    1
    11    11     7    1
    12    12     6    1
    13    13     7    1
    14    14    20    2
    15    15     1    1
    16    16     1    1
    17    17     1    1
    18    18     1    1
    19    19     1    1
    20    20    21    1
    21    21    15    2
    22    22    16    2
    23    23    17    2
    24    24    18    2
    25    25    19    2
    26    26    22    1
    27    27    26   ar
    28    28    27    1
    29    29    27   ar
    30    30    29    1
    31    31    29   ar
    32    32    31    1
    33    33    31   ar
    34    34    33    1
    35    35    26   ar
    36    36    35    1
    37    37    23    1
    38    38    37   ar
    39    39    38    1
    40    40    38   ar
    41    41    40    1
    42    42    40   ar
    43    43    42    1
    44    44    42   ar
    45    45    44    1
    46    46    37   ar
    47    47    46    1
    48    48    24    1
    49    49    48   ar
    50    50    49    1
    51    51    49   ar
    52    52    51    1
    53    53    51   ar
    54    54    53    1
    55    55    53   ar
    56    56    55    1
    57    57    48   ar
    58    58    57    1
    59    59    25    1
    60    60    59   ar
    61    61    60    1
    62    62    60   ar
    63    63    62    1
    64    64    62   ar
    65    65    64    1
    66    66    64   ar
    67    67    66    1
    68    68    59   ar
    69    69    68    1
    70    10    16    1
    71    11    17    1
    72    12    18    1
    73    13    19    1
    74    22    23    1
    75    24    25    1
    76    33    35   ar
    77    44    46   ar
    78    55    57   ar
    79    66    68   ar
    80    70    71    1
    81    72    70   ar
    82    73    72    1
    83    74    72   ar
    84    75    74    1
    85    76    74   ar
    86    77    76    1
    87    78    76   ar
    88    79    78    1
    89    80    70   ar
    90    81    80    1
    91    78    80   ar
    92    82    83    1
    93    84    82   ar
    94    85    84    1
    95    86    84   ar
    96    87    86    1
    97    88    86   ar
    98    89    88    1
    99    90    88   ar
   100    91    90    1
   101    92    82   ar
   102    93    92    1
   103    90    92   ar
@<TRIPOS>SUBSTRUCTURE
     1 RES1        1 GROUP             0 ****  ****    0  
     2 RES2       70 GROUP             0 ****  ****    0  
     3 RES3       82 GROUP             0 ****  ****    0  
@<TRIPOS>CRYSIN
   14.7540   10.3386   27.1260   90.0000   90.9420   90.0000    14     1
