@<TRIPOS>MOLECULE
XIGREK
    77    87     1     0     0
SMALL
NO_CHARGES
****
Generated from the CSD

@<TRIPOS>ATOM
     1 Fe1      3.1207   3.1207  17.2875   Fe        1 RES1   0.0000
     2 S1      -0.9698   1.2928  17.4427   S.3       1 RES1   0.0000
     3 F1       0.0769   6.1597  16.8750   F         1 RES1   0.0000
     4 O1       2.0795   5.7140  17.9247   O.3       1 RES1   0.0000
     5 O2       4.9465   1.6029  18.9302   O.3       1 RES1   0.0000
     6 O3       0.3847   3.9982  17.5523   O.3       1 RES1   0.0000
     7 N1       2.9939   4.7347  18.2556   N.2       1 RES1   0.0000
     8 N2       4.1801   2.7271  18.8240   N.2       1 RES1   0.0000
     9 N3       1.2341   2.9140  17.5071   N.2       1 RES1   0.0000
    10 B1       1.0503   5.1884  17.0088   B         1 RES1   0.0000
    11 C1       3.6604   4.8956  19.3689   C.2       1 RES1   0.0000
    12 C2       4.4019   3.7224  19.6815   C.2       1 RES1   0.0000
    13 C3       3.6554   6.1207  20.1852   C.ar      1 RES1   0.0000
    14 C4       3.8603   7.3608  19.6109   C.ar      1 RES1   0.0000
    15 H1       3.9282   7.4318  18.6843   H         1 RES1   0.0000
    16 C5       3.9642   8.4861  20.3854   C.ar      1 RES1   0.0000
    17 H2       4.1211   9.3115  19.9844   H         1 RES1   0.0000
    18 C6       3.8373   8.4001  21.7511   C.ar      1 RES1   0.0000
    19 H3       3.9113   9.1636  22.2767   H         1 RES1   0.0000
    20 C7       3.6025   7.1940  22.3320   C.ar      1 RES1   0.0000
    21 H4       3.4976   7.1440  23.2551   H         1 RES1   0.0000
    22 C8       3.5165   6.0298  21.5703   C.ar      1 RES1   0.0000
    23 H5       3.3696   5.2074  21.9793   H         1 RES1   0.0000
    24 C9       5.3672   3.5835  20.8245   C.ar      1 RES1   0.0000
    25 C10      6.4045   4.4599  20.9870   C.ar      1 RES1   0.0000
    26 H6       6.5554   5.1174  20.3439   H         1 RES1   0.0000
    27 C11      7.2299   4.3829  22.0865   C.ar      1 RES1   0.0000
    28 H7       7.9394   4.9775  22.1729   H         1 RES1   0.0000
    29 C12      7.0161   3.4466  23.0442   C.ar      1 RES1   0.0000
    30 H8       7.5727   3.4026  23.7876   H         1 RES1   0.0000
    31 C13      5.9558   2.5532  22.9094   C.ar      1 RES1   0.0000
    32 H9       5.7999   1.9187  23.5698   H         1 RES1   0.0000
    33 C14      5.1284   2.6002  21.7892   C.ar      1 RES1   0.0000
    34 H10      4.4319   1.9926  21.6889   H         1 RES1   0.0000
    35 C15      0.7185   1.7428  17.3770   C.2       1 RES1   0.0000
    36 C16     -1.6309   2.3653  18.7431   C.3       1 RES1   0.0000
    37 H11     -2.5682   2.1915  18.8572   H         1 RES1   0.0000
    38 H12     -1.5039   3.2837  18.4942   H         1 RES1   0.0000
    39 H13     -1.1712   2.1895  19.5660   H         1 RES1   0.0000
    40 O2F      1.6029   4.9465  15.6448   O.3       1 RES1   0.0000
    41 N2F      2.7271   4.1801  15.7510   N.2       1 RES1   0.0000
    42 N1F      4.7347   2.9939  16.3194   N.2       1 RES1   0.0000
    43 O1F      5.7140   2.0795  16.6503   O.3       1 RES1   0.0000
    44 B1F      5.1884   1.0503  17.5662   B         1 RES1   0.0000
    45 F1F      6.1597   0.0769  17.7000   F         1 RES1   0.0000
    46 C15F     1.7428   0.7185  17.1980   C.2       1 RES1   0.0000
    47 S1F      1.2928  -0.9698  17.1323   S.3       1 RES1   0.0000
    48 C16F     2.3653  -1.6309  15.8319   C.3       1 RES1   0.0000
    49 H11F     2.1915  -2.5682  15.7178   H         1 RES1   0.0000
    50 H12F     3.2837  -1.5039  16.0808   H         1 RES1   0.0000
    51 H13F     2.1895  -1.1712  15.0090   H         1 RES1   0.0000
    52 N3F      2.9140   1.2341  17.0679   N.2       1 RES1   0.0000
    53 O3F      3.9982   0.3847  17.0227   O.3       1 RES1   0.0000
    54 C1F      4.8956   3.6604  15.2061   C.2       1 RES1   0.0000
    55 C2F      3.7224   4.4019  14.8935   C.2       1 RES1   0.0000
    56 C9F      3.5835   5.3672  13.7505   C.ar      1 RES1   0.0000
    57 C10F     4.4599   6.4045  13.5880   C.ar      1 RES1   0.0000
    58 H6F      5.1174   6.5554  14.2311   H         1 RES1   0.0000
    59 C11F     4.3829   7.2299  12.4885   C.ar      1 RES1   0.0000
    60 H7F      4.9775   7.9394  12.4021   H         1 RES1   0.0000
    61 C12F     3.4466   7.0161  11.5308   C.ar      1 RES1   0.0000
    62 H8F      3.4026   7.5727  10.7874   H         1 RES1   0.0000
    63 C13F     2.5532   5.9558  11.6656   C.ar      1 RES1   0.0000
    64 H9F      1.9187   5.7999  11.0052   H         1 RES1   0.0000
    65 C14F     2.6002   5.1284  12.7858   C.ar      1 RES1   0.0000
    66 H10F     1.9926   4.4319  12.8861   H         1 RES1   0.0000
    67 C3F      6.1207   3.6554  14.3898   C.ar      1 RES1   0.0000
    68 C4F      7.3608   3.8603  14.9641   C.ar      1 RES1   0.0000
    69 H1F      7.4318   3.9282  15.8907   H         1 RES1   0.0000
    70 C5F      8.4861   3.9642  14.1896   C.ar      1 RES1   0.0000
    71 H2F      9.3115   4.1211  14.5906   H         1 RES1   0.0000
    72 C6F      8.4001   3.8373  12.8239   C.ar      1 RES1   0.0000
    73 H3F      9.1636   3.9113  12.2983   H         1 RES1   0.0000
    74 C7F      7.1940   3.6025  12.2430   C.ar      1 RES1   0.0000
    75 H4F      7.1440   3.4976  11.3199   H         1 RES1   0.0000
    76 C8F      6.0298   3.5165  13.0047   C.ar      1 RES1   0.0000
    77 H5F      5.2074   3.3696  12.5957   H         1 RES1   0.0000
@<TRIPOS>BOND
     1     1     7    1
     2     2    35    1
     3     3    10    1
     4     4     7    1
     5     5     8    1
     6     6     9    1
     7     7    11    2
     8     8     1    1
     9     9     1    1
    10    10     4    1
    11    11    12    1
    12    12     8    2
    13    13    11    1
    14    14    13   ar
    15    15    14    1
    16    16    14   ar
    17    17    16    1
    18    18    16   ar
    19    19    18    1
    20    20    18   ar
    21    21    20    1
    22    22    13   ar
    23    23    22    1
    24    24    12    1
    25    25    24   ar
    26    26    25    1
    27    27    25   ar
    28    28    27    1
    29    29    27   ar
    30    30    29    1
    31    31    29   ar
    32    32    31    1
    33    33    24   ar
    34    34    33    1
    35    35     9    2
    36    36     2    1
    37    37    36    1
    38    38    36    1
    39    39    36    1
    40    40    10    1
    41    41     1    1
    42    42     1    1
    43    43    42    1
    44    44     5    1
    45    45    44    1
    46    46    35    1
    47    47    46    1
    48    48    47    1
    49    49    48    1
    50    50    48    1
    51    51    48    1
    52    52     1    1
    53    53    44    1
    54    54    42    2
    55    55    41    2
    56    56    55    1
    57    57    56   ar
    58    58    57    1
    59    59    57   ar
    60    60    59    1
    61    61    59   ar
    62    62    61    1
    63    63    61   ar
    64    64    63    1
    65    65    56   ar
    66    66    65    1
    67    67    54    1
    68    68    67   ar
    69    69    68    1
    70    70    68   ar
    71    71    70    1
    72    72    70   ar
    73    73    72    1
    74    74    72   ar
    75    75    74    1
    76    76    67   ar
    77    77    76    1
    78     6    10    1
    79    20    22   ar
    80    31    33   ar
    81    40    41    1
    82    43    44    1
    83    46    52    2
    84    52    53    1
    85    54    55    1
    86    63    65   ar
    87    74    76   ar
@<TRIPOS>SUBSTRUCTURE
     1 RES1        1 GROUP             0 ****  ****    0  
@<TRIPOS>CRYSIN
    9.9930    9.9930   34.5750   90.0000   90.0000   90.0000    92     1
