@<TRIPOS>MOLECULE
XIGRAG
    95   105     2     0     0
SMALL
NO_CHARGES
****
Generated from the CSD

@<TRIPOS>ATOM
     1 Fe1      2.0974   8.3596   7.7429   Fe        1 RES1   0.0000
     2 Cl1      1.6817   4.5962   5.5158   Cl        1 RES1   0.0000
     3 F1       1.9975  11.8983   5.2599   F         1 RES1   0.0000
     4 F2       2.1871   4.7710  10.1648   F         1 RES1   0.0000
     5 B1       2.0287  10.7733   6.0251   B         1 RES1   0.0000
     6 B2       2.1449   5.9222   9.4197   B         1 RES1   0.0000
     7 O1       2.4379   9.6374   5.1550   O.3       1 RES1   0.0000
     8 O2       1.5677   5.5492   8.0968   O.3       1 RES1   0.0000
     9 O3       0.6611  10.5686   6.5888   O.3       1 RES1   0.0000
    10 O4       1.3105   6.9049  10.1003   O.3       1 RES1   0.0000
    11 O5       3.0126  10.9979   7.1078   O.3       1 RES1   0.0000
    12 O6       3.5464   6.3849   9.2615   O.3       1 RES1   0.0000
    13 N1       2.3361   8.4374   5.8309   N.2       1 RES1   0.0000
    14 N2       1.6531   6.5664   7.2056   N.2       1 RES1   0.0000
    15 N3       0.6438   9.5596   7.5198   N.2       1 RES1   0.0000
    16 N4       1.0571   8.0053   9.2949   N.2       1 RES1   0.0000
    17 N5       3.2566   9.8572   7.8288   N.2       1 RES1   0.0000
    18 N6       3.6050   7.6088   8.6335   N.2       1 RES1   0.0000
    19 N7       2.0578   7.3230   3.7312   N.pl3     1 RES1   0.0000
    20 C1       2.0527   7.3704   5.1015   C.2       1 RES1   0.0000
    21 C2       1.7589   6.2498   5.9690   C.2       1 RES1   0.0000
    22 C3      -0.3296   9.5949   8.4011   C.2       1 RES1   0.0000
    23 C4      -0.1110   8.5644   9.4261   C.2       1 RES1   0.0000
    24 C5       4.4844   9.6764   8.2651   C.2       1 RES1   0.0000
    25 C6       4.6279   8.3719   8.8996   C.2       1 RES1   0.0000
    26 C7       1.1629   6.4114   3.0104   C.3       1 RES1   0.0000
    27 H1       0.7053   6.8985   2.3069   H         1 RES1   0.0000
    28 H2       0.4918   6.0688   3.6211   H         1 RES1   0.0000
    29 C8       1.9365   5.2218   2.3846   C.3       1 RES1   0.0000
    30 H3       1.3218   4.6486   1.9206   H         1 RES1   0.0000
    31 H4       2.3771   4.7261   3.0795   H         1 RES1   0.0000
    32 H5       2.5906   5.5558   1.7652   H         1 RES1   0.0000
    33 C9       3.0653   8.0148   2.9975   C.3       1 RES1   0.0000
    34 H6       3.5964   7.3618   2.5162   H         1 RES1   0.0000
    35 H7       3.6545   8.4588   3.6298   H         1 RES1   0.0000
    36 C10      2.5718   9.0385   2.0156   C.3       1 RES1   0.0000
    37 H8       3.3198   9.4458   1.5753   H         1 RES1   0.0000
    38 H9       2.0680   9.7109   2.4795   H         1 RES1   0.0000
    39 H10      2.0100   8.6118   1.3639   H         1 RES1   0.0000
    40 C11     -1.4601  10.5298   8.3774   C.ar      1 RES1   0.0000
    41 C12     -2.1210  10.8100   7.1840   C.ar      1 RES1   0.0000
    42 H11     -1.8341  10.4178   6.3920   H         1 RES1   0.0000
    43 C13     -3.2054  11.6742   7.1710   C.ar      1 RES1   0.0000
    44 H12     -3.6545  11.8466   6.3747   H         1 RES1   0.0000
    45 C14     -3.6237  12.2819   8.3558   C.ar      1 RES1   0.0000
    46 H13     -4.3461  12.8681   8.3471   H         1 RES1   0.0000
    47 C15     -2.9629  12.0168   9.5448   C.ar      1 RES1   0.0000
    48 H14     -3.2327  12.4328  10.3325   H         1 RES1   0.0000
    49 C16     -1.9007  11.1289   9.5578   C.ar      1 RES1   0.0000
    50 H15     -1.4755  10.9285  10.3606   H         1 RES1   0.0000
    51 C17     -1.1083   8.1678  10.4339   C.ar      1 RES1   0.0000
    52 C18     -2.4079   7.8424  10.0261   C.ar      1 RES1   0.0000
    53 H16     -2.6452   7.9049   9.1283   H         1 RES1   0.0000
    54 C19     -3.3317   7.4286  10.9648   C.ar      1 RES1   0.0000
    55 H17     -4.1890   7.1937  10.6929   H         1 RES1   0.0000
    56 C20     -3.0004   7.3618  12.2963   C.ar      1 RES1   0.0000
    57 H18     -3.6357   7.0881  12.9178   H         1 RES1   0.0000
    58 C21     -1.7299   7.7045  12.7128   C.ar      1 RES1   0.0000
    59 H19     -1.5096   7.6786  13.6170   H         1 RES1   0.0000
    60 C22     -0.7821   8.0816  11.7762   C.ar      1 RES1   0.0000
    61 H20      0.0837   8.2820  12.0524   H         1 RES1   0.0000
    62 C23      5.7464   8.0536   9.8167   C.ar      1 RES1   0.0000
    63 C24      6.3219   6.7886   9.8513   C.ar      1 RES1   0.0000
    64 H21      6.0094   6.1183   9.2859   H         1 RES1   0.0000
    65 C25      7.3602   6.5278  10.7253   C.ar      1 RES1   0.0000
    66 H22      7.7393   5.6787  10.7555   H         1 RES1   0.0000
    67 C26      7.8349   7.5127  11.5475   C.ar      1 RES1   0.0000
    68 H23      8.5402   7.3360  12.1280   H         1 RES1   0.0000
    69 C27      7.2680   8.7756  11.5129   C.ar      1 RES1   0.0000
    70 H24      7.5924   9.4436  12.0740   H         1 RES1   0.0000
    71 C28      6.2280   9.0471  10.6584   C.ar      1 RES1   0.0000
    72 H25      5.8489   9.8962  10.6433   H         1 RES1   0.0000
    73 C29      5.6030  10.5772   7.9673   C.ar      1 RES1   0.0000
    74 C30      6.8137  10.0385   7.5228   C.ar      1 RES1   0.0000
    75 H26      6.9179   9.1161   7.4624   H         1 RES1   0.0000
    76 C31      7.8571  10.8703   7.1754   C.ar      1 RES1   0.0000
    77 H27      8.6563  10.5061   6.8711   H         1 RES1   0.0000
    78 C32      7.7239  12.2345   7.2725   C.ar      1 RES1   0.0000
    79 H28      8.4224  12.7884   7.0049   H         1 RES1   0.0000
    80 C33      6.5456  12.7905   7.7688   C.ar      1 RES1   0.0000
    81 H29      6.4619  13.7107   7.8702   H         1 RES1   0.0000
    82 C34      5.4954  11.9414   8.1119   C.ar      1 RES1   0.0000
    83 H30      4.7064  12.3035   8.4443   H         1 RES1   0.0000
    84 C35      5.6764   6.7649   5.6000   C.ar      2 RES2   0.0000
    85 H31      5.4732   7.5558   6.0446   H         2 RES2   0.0000
    86 C36      6.4756   6.7950   4.4800   C.ar      2 RES2   0.0000
    87 H32      6.8103   7.6032   4.1671   H         2 RES2   0.0000
    88 C37      6.7779   5.6313   3.8283   C.ar      2 RES2   0.0000
    89 H33      7.3226   5.6507   3.0752   H         2 RES2   0.0000
    90 C38      6.2826   4.4374   4.2772   C.ar      2 RES2   0.0000
    91 H34      6.4824   3.6486   3.8283   H         2 RES2   0.0000
    92 C39      5.4715   4.4136   5.4166   C.ar      2 RES2   0.0000
    93 H35      5.1351   3.6055   5.7316   H         2 RES2   0.0000
    94 C40      5.1760   5.5623   6.0597   C.ar      2 RES2   0.0000
    95 H36      4.6347   5.5451   6.8150   H         2 RES2   0.0000
@<TRIPOS>BOND
     1     1    13    1
     2     2    21    1
     3     3     5    1
     4     4     6    1
     5     5     7    1
     6     6     8    1
     7     7    13    1
     8     8    14    1
     9     9     5    1
    10    10     6    1
    11    11     5    1
    12    12     6    1
    13    13    20    2
    14    14     1    1
    15    15     1    1
    16    16     1    1
    17    17     1    1
    18    18     1    1
    19    19    20    1
    20    20    21    1
    21    21    14    2
    22    22    15    2
    23    23    16    2
    24    24    17    2
    25    25    18    2
    26    26    19    1
    27    27    26    1
    28    28    26    1
    29    29    26    1
    30    30    29    1
    31    31    29    1
    32    32    29    1
    33    33    19    1
    34    34    33    1
    35    35    33    1
    36    36    33    1
    37    37    36    1
    38    38    36    1
    39    39    36    1
    40    40    22    1
    41    41    40   ar
    42    42    41    1
    43    43    41   ar
    44    44    43    1
    45    45    43   ar
    46    46    45    1
    47    47    45   ar
    48    48    47    1
    49    49    40   ar
    50    50    49    1
    51    51    23    1
    52    52    51   ar
    53    53    52    1
    54    54    52   ar
    55    55    54    1
    56    56    54   ar
    57    57    56    1
    58    58    56   ar
    59    59    58    1
    60    60    51   ar
    61    61    60    1
    62    62    25    1
    63    63    62   ar
    64    64    63    1
    65    65    63   ar
    66    66    65    1
    67    67    65   ar
    68    68    67    1
    69    69    67   ar
    70    70    69    1
    71    71    62   ar
    72    72    71    1
    73    73    24    1
    74    74    73   ar
    75    75    74    1
    76    76    74   ar
    77    77    76    1
    78    78    76   ar
    79    79    78    1
    80    80    78   ar
    81    81    80    1
    82    82    73   ar
    83    83    82    1
    84     9    15    1
    85    10    16    1
    86    11    17    1
    87    12    18    1
    88    22    23    1
    89    24    25    1
    90    47    49   ar
    91    58    60   ar
    92    69    71   ar
    93    80    82   ar
    94    84    85    1
    95    86    84   ar
    96    87    86    1
    97    88    86   ar
    98    89    88    1
    99    90    88   ar
   100    91    90    1
   101    92    90   ar
   102    93    92    1
   103    94    84   ar
   104    95    94    1
   105    92    94   ar
@<TRIPOS>SUBSTRUCTURE
     1 RES1        1 GROUP             0 ****  ****    0  
     2 RES2       84 GROUP             0 ****  ****    0  
@<TRIPOS>CRYSIN
   17.0770   21.5510   21.5800   90.0000   90.0000   90.0000    61     1
