@<TRIPOS>MOLECULE
XIGVUG
    93    98     5     0     0
SMALL
USER_CHARGES
****
Generated from the CSD

@<TRIPOS>ATOM
     1 Fe1     15.8178   8.4630   9.7248   Fe        1 RES1   2.0000
     2 N1      16.9022   9.1644   8.2772   N.2       1 RES1   0.0000
     3 N2      16.5435  10.4293   7.9106   N.pl3     1 RES1   0.0000
     4 C1      15.2731  10.9087   8.4551   C.3       1 RES1   0.0000
     5 N3      15.2311  10.3853   9.8520   N.3       1 RES1   0.0000
     6 C2      13.8256  10.3381  10.3654   C.3       1 RES1   0.0000
     7 C3      13.7772   9.3529  11.5235   C.3       1 RES1   0.0000
     8 N4      14.5407   8.0998  11.2004   N.3       1 RES1   0.0000
     9 C4      13.6218   7.0328  10.7355   C.3       1 RES1   0.0000
    10 C5      13.3449   7.2254   9.2712   C.ar      1 RES1   0.0000
    11 N5      14.3237   7.8633   8.5899   N.ar      1 RES1   0.0000
    12 C6      14.1778   8.0040   7.2560   C.ar      1 RES1   0.0000
    13 C7      13.0738   7.5125   6.5683   C.ar      1 RES1   0.0000
    14 C8      12.0797   6.8639   7.2741   C.ar      1 RES1   0.0000
    15 C9      12.2087   6.7260   8.6512   C.ar      1 RES1   0.0000
    16 H1      11.5454   6.3024   9.1631   H         1 RES1   0.0000
    17 H2      11.3302   6.5125   6.8465   H         1 RES1   0.0000
    18 H3      12.9907   7.6248   5.6485   H         1 RES1   0.0000
    19 H4      14.8532   8.4482   6.7956   H         1 RES1   0.0000
    20 H5      14.0767   6.1667  10.8632   H         1 RES1   0.0000
    21 H6      12.8061   7.0074  11.2460   H         1 RES1   0.0000
    22 C10     15.3662   7.6805  12.3644   C.3       1 RES1   0.0000
    23 C11     16.5463   8.6371  12.4828   C.3       1 RES1   0.0000
    24 N6      17.1554   8.9106  11.1375   N.3       1 RES1   0.0000
    25 C12     18.3462   8.0500  10.8977   C.3       1 RES1   0.0000
    26 C13     17.8779   6.7026  10.4414   C.ar      1 RES1   0.0000
    27 N7      16.6986   6.7021   9.7733   N.ar      1 RES1   0.0000
    28 C14     16.2375   5.5267   9.3095   C.ar      1 RES1   0.0000
    29 C15     16.9173   4.3338   9.4897   C.ar      1 RES1   0.0000
    30 C16     18.1161   4.3374  10.1800   C.ar      1 RES1   0.0000
    31 C17     18.6016   5.5383  10.6666   C.ar      1 RES1   0.0000
    32 H7      19.3946   5.5775  11.1466   H         1 RES1   0.0000
    33 H8      18.5829   3.5549  10.3351   H         1 RES1   0.0000
    34 H9      16.5580   3.5442   9.1519   H         1 RES1   0.0000
    35 H10     15.4187   5.5333   8.8698   H         1 RES1   0.0000
    36 H11     18.8803   7.9677  11.7058   H         1 RES1   0.0000
    37 H12     18.8816   8.4608  10.2070   H         1 RES1   0.0000
    38 C18     17.4649  10.3567  10.9844   C.3       1 RES1   0.0000
    39 C19     16.1517  11.0998  10.8028   C.3       1 RES1   0.0000
    40 H13     16.3285  11.9917  10.4916   H         1 RES1   0.0000
    41 H14     15.6828  11.1705  11.6524   H         1 RES1   0.0000
    42 H15     17.9060  10.6808  11.7804   H         1 RES1   0.0000
    43 H16     18.0156  10.4929  10.2021   H         1 RES1   0.0000
    44 H17     17.2156   8.2485  13.0679   H         1 RES1   0.0000
    45 H18     16.2573   9.4868  12.8542   H         1 RES1   0.0000
    46 H19     14.8407   7.6945  13.1835   H         1 RES1   0.0000
    47 H20     15.6731   6.7866  12.2191   H         1 RES1   0.0000
    48 H21     14.1564   9.7549  12.3235   H         1 RES1   0.0000
    49 H22     12.8345   9.1266  11.6996   H         1 RES1   0.0000
    50 H23     13.5473  11.2065  10.6805   H         1 RES1   0.0000
    51 H24     13.2481  10.0478   9.6366   H         1 RES1   0.0000
    52 C20     15.0580  12.3874   8.2791   C.ar      1 RES1   0.0000
    53 C21     13.7551  12.8077   7.9805   C.ar      1 RES1   0.0000
    54 C22     13.4689  14.1532   7.8419   C.ar      1 RES1   0.0000
    55 C23     14.4949  15.0631   8.0170   C.ar      1 RES1   0.0000
    56 N8      14.1978  16.4920   7.8889   N.pl3     1 RES1   0.0000
    57 O1      13.1488  16.8182   7.3483   O.2       1 RES1   0.0000
    58 O2      15.0115  17.2939   8.3319   O.2       1 RES1   0.0000
    59 C24     15.7970  14.6852   8.3067   C.ar      1 RES1   0.0000
    60 C25     16.0756  13.3368   8.4258   C.ar      1 RES1   0.0000
    61 H25     16.9617  13.0610   8.6088   H         1 RES1   0.0000
    62 H26     16.4733  15.3191   8.3951   H         1 RES1   0.0000
    63 H27     12.6033  14.4497   7.6295   H         1 RES1   0.0000
    64 H28     13.0590  12.1636   7.8756   H         1 RES1   0.0000
    65 H29     14.5384  10.4513   7.9961   H         1 RES1   0.0000
    66 C26     17.3552  10.9015   6.9420   C.2       1 RES1   0.0000
    67 C27     18.2922   9.9253   6.6885   C.2       1 RES1   0.0000
    68 C28     17.9686   8.8653   7.5475   C.2       1 RES1   0.0000
    69 H30     18.4142   8.0589   7.6320   H         1 RES1   0.0000
    70 H31     18.9865   9.9813   6.0797   H         1 RES1   0.0000
    71 H32     17.2651  11.7342   6.5445   H         1 RES1   0.0000
    72 Cl1     12.9338   3.3310  10.3196   Cl        2 RES2   0.0000
    73 O3      11.8883   4.2131  10.7659   O.3       2 RES2  -1.0000
    74 O4      13.1088   3.4876   8.9122   O.2       2 RES2   0.0000
    75 O5      14.1524   3.6466  11.0113   O.2       2 RES2   0.0000
    76 O6      12.5547   1.9768  10.6183   O.2       2 RES2   0.0000
    77 Cl2     10.1349  10.0422   9.5090   Cl        3 RES3   0.0000
    78 O7      10.6509   9.3839  10.6812   O.3       3 RES3  -1.0000
    79 O8      10.9395   9.7129   8.3701   O.2       3 RES3   0.0000
    80 O9       8.7933   9.6162   9.2836   O.2       3 RES3   0.0000
    81 O10     10.1801  11.4509   9.7074   O.2       3 RES3   0.0000
    82 N9      14.0437  13.8414  11.4198   N.1       4 RES4   0.0000
    83 C29     14.8601  14.0621  12.1781   C.1       4 RES4   0.0000
    84 C30     15.9077  14.3108  13.1512   C.3       4 RES4   0.0000
    85 H33     15.6809  15.0927  13.6409   H         4 RES4   0.0000
    86 H34     15.9814  13.5477  13.7291   H         4 RES4   0.0000
    87 H35     16.7435  14.4568  12.6914   H         4 RES4   0.0000
    88 N10     10.4340  13.3607   6.8273   N.1       5 RES5   0.0000
    89 C31      9.4600  12.7821   6.9025   C.1       5 RES5   0.0000
    90 C32      8.2008  12.0705   6.9795   C.3       5 RES5   0.0000
    91 H36      7.8484  11.9574   6.0897   H         5 RES5   0.0000
    92 H37      7.5970  12.5754   7.5077   H         5 RES5   0.0000
    93 H38      8.3388  11.2212   7.3834   H         5 RES5   0.0000
@<TRIPOS>BOND
     1     1     2    1
     2     2     3    1
     3     3     4    1
     4     4     5    1
     5     5     1    1
     6     6     5    1
     7     7     6    1
     8     8     1    1
     9     9     8    1
    10    10     9    1
    11    11     1    1
    12    12    11   ar
    13    13    12   ar
    14    14    13   ar
    15    15    10   ar
    16    16    15    1
    17    17    14    1
    18    18    13    1
    19    19    12    1
    20    20     9    1
    21    21     9    1
    22    22     8    1
    23    23    22    1
    24    24     1    1
    25    25    24    1
    26    26    25    1
    27    27     1    1
    28    28    27   ar
    29    29    28   ar
    30    30    29   ar
    31    31    26   ar
    32    32    31    1
    33    33    30    1
    34    34    29    1
    35    35    28    1
    36    36    25    1
    37    37    25    1
    38    38    24    1
    39    39     5    1
    40    40    39    1
    41    41    39    1
    42    42    38    1
    43    43    38    1
    44    44    23    1
    45    45    23    1
    46    46    22    1
    47    47    22    1
    48    48     7    1
    49    49     7    1
    50    50     6    1
    51    51     6    1
    52    52     4    1
    53    53    52   ar
    54    54    53   ar
    55    55    54   ar
    56    56    55    1
    57    57    56    2
    58    58    56    2
    59    59    55   ar
    60    60    52   ar
    61    61    60    1
    62    62    59    1
    63    63    54    1
    64    64    53    1
    65    65     4    1
    66    66     3    1
    67    67    66    2
    68    68     2    2
    69    69    68    1
    70    70    67    1
    71    71    66    1
    72     7     8    1
    73    10    11   ar
    74    14    15   ar
    75    23    24    1
    76    26    27   ar
    77    30    31   ar
    78    38    39    1
    79    59    60   ar
    80    67    68    1
    81    72    73    1
    82    74    72    2
    83    75    72    2
    84    76    72    2
    85    77    78    1
    86    79    77    2
    87    80    77    2
    88    81    77    2
    89    82    83    3
    90    83    84    1
    91    84    85    1
    92    86    84    1
    93    87    84    1
    94    88    89    3
    95    89    90    1
    96    90    91    1
    97    92    90    1
    98    93    90    1
@<TRIPOS>SUBSTRUCTURE
     1 RES1        1 GROUP             0 ****  ****    0  
     2 RES2       72 GROUP             0 ****  ****    0  
     3 RES3       77 GROUP             0 ****  ****    0  
     4 RES4       82 GROUP             0 ****  ****    0  
     5 RES5       88 GROUP             0 ****  ****    0  
@<TRIPOS>CRYSIN
   12.7583   12.7820   13.7071   65.1700   76.3730   61.4840     2     1
