@<TRIPOS>MOLECULE
XIGWAN
    92    97     5     0     0
SMALL
USER_CHARGES
****
Generated from the CSD

@<TRIPOS>ATOM
     1 Fe1      9.7824   9.9656  13.4177   Fe        1 RES1   2.0000
     2 N1       8.6758   9.4226  11.8803   N.ar      1 RES1   0.0000
     3 C1       9.3611   8.7492  10.9253   C.ar      1 RES1   0.0000
     4 C2      10.7941   8.4344  11.2827   C.3       1 RES1   0.0000
     5 N2      11.3040   9.4587  12.2271   N.3       1 RES1   0.0000
     6 C3      11.7891  10.6905  11.4947   C.3       1 RES1   0.0000
     7 C4      10.7259  11.7710  11.4996   C.3       1 RES1   0.0000
     8 N3      10.1260  11.8451  12.8520   N.3       1 RES1   0.0000
     9 C5      11.0997  12.4854  13.8194   C.3       1 RES1   0.0000
    10 C6      11.1338  11.7368  15.1330   C.3       1 RES1   0.0000
    11 N4      11.1754  10.2759  14.8531   N.3       1 RES1   0.0000
    12 C7      10.7449   9.4918  16.0421   C.3       1 RES1   0.0000
    13 N5      10.2642   8.2118  15.4948   N.pl3     1 RES1   0.0000
    14 N6       9.6368   8.2414  14.3003   N.2       1 RES1   0.0000
    15 C8       9.0924   7.0355  14.1664   C.2       1 RES1   0.0000
    16 C9       9.3958   6.3150  15.3276   C.2       1 RES1   0.0000
    17 N7      10.1079   7.0693  16.1625   N.2       1 RES1   0.0000
    18 H1       9.1480   5.4338  15.5056   H         1 RES1   0.0000
    19 H2       8.6110   6.7474  13.4297   H         1 RES1   0.0000
    20 C10     11.7606   9.3049  17.1512   C.ar      1 RES1   0.0000
    21 C11     11.7650  10.2333  18.1825   C.ar      1 RES1   0.0000
    22 C12     12.6559  10.1065  19.2398   C.ar      1 RES1   0.0000
    23 C13     13.5368   9.0423  19.2254   C.ar      1 RES1   0.0000
    24 N8      14.4396   8.8447  20.3698   N.pl3     1 RES1   0.0000
    25 O1      15.3148   7.9879  20.2821   O.2       1 RES1   0.0000
    26 O2      14.2676   9.5518  21.3587   O.2       1 RES1   0.0000
    27 C14     13.5904   8.1347  18.1878   C.ar      1 RES1   0.0000
    28 C15     12.6848   8.2585  17.1473   C.ar      1 RES1   0.0000
    29 H3      12.6936   7.6346  16.4421   H         1 RES1   0.0000
    30 H4      14.2355   7.4462  18.1868   H         1 RES1   0.0000
    31 H5      12.6635  10.7234  19.9533   H         1 RES1   0.0000
    32 H6      11.1548  10.9452  18.1711   H         1 RES1   0.0000
    33 H7       9.9644   9.9694  16.4105   H         1 RES1   0.0000
    34 C16     12.5257   9.8600  14.3046   C.3       1 RES1   0.0000
    35 C17     12.3705   8.9264  13.1190   C.3       1 RES1   0.0000
    36 H8      12.0961   8.0445  13.4336   H         1 RES1   0.0000
    37 H9      13.2175   8.8614  12.6332   H         1 RES1   0.0000
    38 H10     13.0416   9.4205  14.9950   H         1 RES1   0.0000
    39 H11     13.0005  10.6663  14.0329   H         1 RES1   0.0000
    40 H12     10.3256  11.9330  15.6515   H         1 RES1   0.0000
    41 H13     11.9171  12.0067  15.6436   H         1 RES1   0.0000
    42 H14     11.9941  12.4741  13.4277   H         1 RES1   0.0000
    43 H15     10.8445  13.4111  13.9600   H         1 RES1   0.0000
    44 C18      8.8292  12.5618  12.8619   C.3       1 RES1   0.0000
    45 C19      8.0112  12.0614  14.0201   C.ar      1 RES1   0.0000
    46 N9       8.2714  10.7746  14.3862   N.ar      1 RES1   0.0000
    47 C20      7.4897  10.2156  15.3241   C.ar      1 RES1   0.0000
    48 C21      6.4458  10.9056  15.9299   C.ar      1 RES1   0.0000
    49 C22      6.2020  12.2152  15.5622   C.ar      1 RES1   0.0000
    50 C23      7.0016  12.8079  14.5974   C.ar      1 RES1   0.0000
    51 H16      6.8649  13.6991  14.3425   H         1 RES1   0.0000
    52 H17      5.4991  12.7045  15.9571   H         1 RES1   0.0000
    53 H18      5.9296  10.4877  16.5781   H         1 RES1   0.0000
    54 H19      7.6527   9.3233  15.5569   H         1 RES1   0.0000
    55 H20      8.3571  12.3506  12.0358   H         1 RES1   0.0000
    56 H21      8.9538  13.5312  12.9250   H         1 RES1   0.0000
    57 H22     10.0193  11.5399  10.8628   H         1 RES1   0.0000
    58 H23     11.1218  12.6234  11.2571   H         1 RES1   0.0000
    59 H24     12.0111  10.4535  10.5868   H         1 RES1   0.0000
    60 H25     12.5895  11.0215  11.9353   H         1 RES1   0.0000
    61 H26     11.3413   8.4096  10.4764   H         1 RES1   0.0000
    62 H27     10.8160   7.5616  11.7303   H         1 RES1   0.0000
    63 C24      8.7624   8.3222   9.7499   C.ar      1 RES1   0.0000
    64 C25      7.4098   8.5568   9.5547   C.ar      1 RES1   0.0000
    65 C26      6.6976   9.2064  10.5423   C.ar      1 RES1   0.0000
    66 C27      7.3616   9.6423  11.6749   C.ar      1 RES1   0.0000
    67 H28      6.8782  10.1046  12.3414   H         1 RES1   0.0000
    68 H29      5.7884   9.3668  10.4488   H         1 RES1   0.0000
    69 H30      6.9808   8.2788   8.7632   H         1 RES1   0.0000
    70 H31      9.2712   7.8918   9.0964   H         1 RES1   0.0000
    71 F1       9.2572   7.8406   5.0344   F         2 RES2   0.0000
    72 B1       7.8692   7.6701   5.0414   B         2 RES2  -1.0000
    73 F2       7.3638   7.9960   6.2854   F         2 RES2   0.0000
    74 F3       7.3199   8.5185   4.0997   F         2 RES2   0.0000
    75 F4       7.5759   6.3616   4.7505   F         2 RES2   0.0000
    76 F5      12.9505   9.8334   6.5952   F         3 RES3   0.0000
    77 B2      12.3413   9.7835   7.8380   B         3 RES3  -1.0000
    78 F6      11.2428   8.9798   7.7544   F         3 RES3   0.0000
    79 F7      13.2144   9.2605   8.7675   F         3 RES3   0.0000
    80 F8      11.9419  11.0507   8.2092   F         3 RES3   0.0000
    81 N10      9.0108   3.6495  17.9605   N.1       4 RES4   0.0000
    82 C28      8.3310   4.5295  18.2095   C.1       4 RES4   0.0000
    83 C29      7.4746   5.6570  18.5226   C.3       4 RES4   0.0000
    84 H32      6.5650   5.3818  18.5259   H         4 RES4   0.0000
    85 H33      7.5943   6.3557  17.8793   H         4 RES4   0.0000
    86 H34      7.7034   6.0018  19.3973   H         4 RES4   0.0000
    87 N11      8.2787  11.1234   1.4772   N.1       5 RES5   0.0000
    88 C30      9.0707  10.3323   1.6771   C.1       5 RES5   0.0000
    89 C31     10.0738   9.3113   1.9190   C.3       5 RES5   0.0000
    90 H35     10.9509   9.7068   1.8867   H         5 RES5   0.0000
    91 H36     10.0050   8.6368   1.2341   H         5 RES5   0.0000
    92 H37      9.9226   8.9137   2.7896   H         5 RES5   0.0000
@<TRIPOS>BOND
     1     1     2    1
     2     2     3   ar
     3     3     4    1
     4     4     5    1
     5     5     1    1
     6     6     5    1
     7     7     6    1
     8     8     1    1
     9     9     8    1
    10    10     9    1
    11    11     1    1
    12    12    11    1
    13    13    12    1
    14    14     1    1
    15    15    14    2
    16    16    15    1
    17    17    13    1
    18    18    16    1
    19    19    15    1
    20    20    12    1
    21    21    20   ar
    22    22    21   ar
    23    23    22   ar
    24    24    23    1
    25    25    24    2
    26    26    24    2
    27    27    23   ar
    28    28    20   ar
    29    29    28    1
    30    30    27    1
    31    31    22    1
    32    32    21    1
    33    33    12    1
    34    34    11    1
    35    35     5    1
    36    36    35    1
    37    37    35    1
    38    38    34    1
    39    39    34    1
    40    40    10    1
    41    41    10    1
    42    42     9    1
    43    43     9    1
    44    44     8    1
    45    45    44    1
    46    46     1    1
    47    47    46   ar
    48    48    47   ar
    49    49    48   ar
    50    50    45   ar
    51    51    50    1
    52    52    49    1
    53    53    48    1
    54    54    47    1
    55    55    44    1
    56    56    44    1
    57    57     7    1
    58    58     7    1
    59    59     6    1
    60    60     6    1
    61    61     4    1
    62    62     4    1
    63    63     3   ar
    64    64    63   ar
    65    65    64   ar
    66    66     2   ar
    67    67    66    1
    68    68    65    1
    69    69    64    1
    70    70    63    1
    71     7     8    1
    72    10    11    1
    73    13    14    1
    74    16    17    2
    75    27    28   ar
    76    34    35    1
    77    45    46   ar
    78    49    50   ar
    79    65    66   ar
    80    71    72    1
    81    72    73    1
    82    74    72    1
    83    75    72    1
    84    76    77    1
    85    77    78    1
    86    79    77    1
    87    80    77    1
    88    81    82    3
    89    82    83    1
    90    83    84    1
    91    85    83    1
    92    86    83    1
    93    87    88    3
    94    88    89    1
    95    89    90    1
    96    91    89    1
    97    92    89    1
@<TRIPOS>SUBSTRUCTURE
     1 RES1        1 GROUP             0 ****  ****    0  
     2 RES2       71 GROUP             0 ****  ****    0  
     3 RES3       76 GROUP             0 ****  ****    0  
     4 RES4       81 GROUP             0 ****  ****    0  
     5 RES5       87 GROUP             0 ****  ****    0  
@<TRIPOS>CRYSIN
    9.1444   10.5370   20.1930   78.4590   89.8090   66.7440     2     1
