@<TRIPOS>MOLECULE
XIHVIT
    82    86     2     0     0
SMALL
USER_CHARGES
****
Generated from the CSD

@<TRIPOS>ATOM
     1 Fe1      6.4775  13.2130   0.0000   Fe        1 RES1  -2.0000
     2 N1       3.7929  13.3347   1.5042   N.1       1 RES1   0.0000
     3 N2       7.7468  14.4060   2.5459   N.1       1 RES1   0.0000
     4 O1       6.9507  10.4939   1.0236   O.2       1 RES1   0.0000
     5 C37      6.7597  11.5410   0.6351   C.1       1 RES1   0.0000
     6 C38      4.7820  13.2892   0.9331   C.1       1 RES1   0.0000
     7 C39      7.3018  13.9620   1.5888   C.1       1 RES1   0.0000
     8 C37B     6.1953  14.8850  -0.6351   C.1       1 RES1   0.0000
     9 O1B      6.0043  15.9321  -1.0236   O.2       1 RES1   0.0000
    10 C38B     8.1730  13.1368  -0.9331   C.1       1 RES1   0.0000
    11 N1B      9.1621  13.0913  -1.5042   N.1       1 RES1   0.0000
    12 C39B     5.6532  12.4640  -1.5888   C.1       1 RES1   0.0000
    13 N2B      5.2082  12.0200  -2.5459   N.1       1 RES1   0.0000
    14 N3       4.0920   5.2810  15.5090   N.1       2 RES2   1.0000
    15 P1       5.1106   5.6841  16.6394   P.3       2 RES2   0.0000
    16 P2       2.6363   5.5520  14.9439   P.3       2 RES2   0.0000
    17 C1       6.7417   5.1743  16.0874   C.ar      2 RES2   0.0000
    18 C2       7.7653   4.9443  17.0040   C.ar      2 RES2   0.0000
    19 H1       7.5956   4.9972  17.9166   H         2 RES2   0.0000
    20 C3       9.0407   4.6364  16.5482   C.ar      2 RES2   0.0000
    21 H2       9.7266   4.4858  17.1572   H         2 RES2   0.0000
    22 C4       9.2916   4.5506  15.1918   C.ar      2 RES2   0.0000
    23 H3      10.1519   4.3616  14.8944   H         2 RES2   0.0000
    24 C5       8.2934   4.7421  14.2901   C.ar      2 RES2   0.0000
    25 H4       8.4665   4.6721  13.3794   H         2 RES2   0.0000
    26 C6       7.0196   5.0402  14.7323   C.ar      2 RES2   0.0000
    27 H5       6.3357   5.1531  14.1120   H         2 RES2   0.0000
    28 C7       4.8356   4.8583  18.2110   C.ar      2 RES2   0.0000
    29 C8       5.2097   5.4471  19.4212   C.ar      2 RES2   0.0000
    30 H6       5.5267   6.3211  19.4315   H         2 RES2   0.0000
    31 C9       5.1113   4.7342  20.6044   C.ar      2 RES2   0.0000
    32 H7       5.3469   5.1306  21.4125   H         2 RES2   0.0000
    33 C10      4.6608   3.4261  20.5770   C.ar      2 RES2   0.0000
    34 H8       4.6144   2.9386  21.3664   H         2 RES2   0.0000
    35 C11      4.2873   2.8479  19.4039   C.ar      2 RES2   0.0000
    36 H9       3.9791   1.9701  19.3989   H         2 RES2   0.0000
    37 C12      4.3635   3.5559  18.2232   C.ar      2 RES2   0.0000
    38 H10      4.0952   3.1553  17.4276   H         2 RES2   0.0000
    39 C13      5.1696   7.4590  16.9629   C.ar      2 RES2   0.0000
    40 C14      4.1989   8.0688  17.7501   C.ar      2 RES2   0.0000
    41 H11      3.5448   7.5486  18.1601   H         2 RES2   0.0000
    42 C15      4.1945   9.4433  17.9312   C.ar      2 RES2   0.0000
    43 H12      3.5349   9.8384  18.4555   H         2 RES2   0.0000
    44 C16      5.1487  10.2167  17.3480   C.ar      2 RES2   0.0000
    45 H13      5.1431  11.1386  17.4717   H         2 RES2   0.0000
    46 C17      6.1215   9.6303  16.5756   C.ar      2 RES2   0.0000
    47 H14      6.7794  10.1555  16.1792   H         2 RES2   0.0000
    48 C18      6.1253   8.2561  16.3840   C.ar      2 RES2   0.0000
    49 H15      6.7862   7.8697  15.8551   H         2 RES2   0.0000
    50 C19      1.5776   6.5909  15.9591   C.ar      2 RES2   0.0000
    51 C20      1.5888   7.9701  15.8066   C.ar      2 RES2   0.0000
    52 H16      2.1031   8.3546  15.1341   H         2 RES2   0.0000
    53 C21      0.8450   8.7774  16.6408   C.ar      2 RES2   0.0000
    54 H17      0.8745   9.7023  16.5416   H         2 RES2   0.0000
    55 C22      0.0726   8.2224  17.6023   C.ar      2 RES2   0.0000
    56 H18     -0.4342   8.7655  18.1621   H         2 RES2   0.0000
    57 C23      0.0341   6.8655  17.7540   C.ar      2 RES2   0.0000
    58 H19     -0.5135   6.4929  18.4075   H         2 RES2   0.0000
    59 C24      0.7969   6.0397  16.9514   C.ar      2 RES2   0.0000
    60 H20      0.7832   5.1187  17.0805   H         2 RES2   0.0000
    61 C25      2.7453   6.3609  13.3365   C.ar      2 RES2   0.0000
    62 C26      1.6044   6.5780  12.5756   C.ar      2 RES2   0.0000
    63 H21      0.7770   6.2920  12.8885   H         2 RES2   0.0000
    64 C27      1.6957   7.2196  11.3511   C.ar      2 RES2   0.0000
    65 H22      0.9295   7.3636  10.8424   H         2 RES2   0.0000
    66 C28      2.9147   7.6424  10.8886   C.ar      2 RES2   0.0000
    67 H23      2.9725   8.0784  10.0696   H         2 RES2   0.0000
    68 C29      4.0475   7.4270  11.6248   C.ar      2 RES2   0.0000
    69 H24      4.8732   7.7098  11.3045   H         2 RES2   0.0000
    70 C30      3.9605   6.7840  12.8521   C.ar      2 RES2   0.0000
    71 H25      4.7311   6.6382  13.3507   H         2 RES2   0.0000
    72 C31      1.7933   3.9718  14.7972   C.ar      2 RES2   0.0000
    73 C32      2.4957   2.7955  15.0221   C.ar      2 RES2   0.0000
    74 H26      3.4099   2.8289  15.1878   H         2 RES2   0.0000
    75 C33      1.8470   1.5733  15.0018   C.ar      2 RES2   0.0000
    76 H27      2.3223   0.7915  15.1724   H         2 RES2   0.0000
    77 C34      0.5072   1.5133  14.7321   C.ar      2 RES2   0.0000
    78 H28      0.0722   0.6910  14.7180   H         2 RES2   0.0000
    79 C35     -0.1974   2.6651  14.4827   C.ar      2 RES2   0.0000
    80 H29     -1.1051   2.6175  14.2846   H         2 RES2   0.0000
    81 C36      0.4281   3.8887  14.5245   C.ar      2 RES2   0.0000
    82 H30     -0.0619   4.6642  14.3709   H         2 RES2   0.0000
@<TRIPOS>BOND
     1     1     5    1
     2     2     6    3
     3     3     7    3
     4     4     5    3
     5     6     1    1
     6     7     1    1
     7     8     1    1
     8     9     8    3
     9    10     1    1
    10    11    10    3
    11    12     1    1
    12    13    12    3
    13    14    15    2
    14    15    17    1
    15    16    14    2
    16    17    18   ar
    17    18    19    1
    18    20    18   ar
    19    21    20    1
    20    22    20   ar
    21    23    22    1
    22    24    22   ar
    23    25    24    1
    24    26    17   ar
    25    27    26    1
    26    28    15    1
    27    29    28   ar
    28    30    29    1
    29    31    29   ar
    30    32    31    1
    31    33    31   ar
    32    34    33    1
    33    35    33   ar
    34    36    35    1
    35    37    28   ar
    36    38    37    1
    37    39    15    1
    38    40    39   ar
    39    41    40    1
    40    42    40   ar
    41    43    42    1
    42    44    42   ar
    43    45    44    1
    44    46    44   ar
    45    47    46    1
    46    48    39   ar
    47    49    48    1
    48    50    16    1
    49    51    50   ar
    50    52    51    1
    51    53    51   ar
    52    54    53    1
    53    55    53   ar
    54    56    55    1
    55    57    55   ar
    56    58    57    1
    57    59    50   ar
    58    60    59    1
    59    61    16    1
    60    62    61   ar
    61    63    62    1
    62    64    62   ar
    63    65    64    1
    64    66    64   ar
    65    67    66    1
    66    68    66   ar
    67    69    68    1
    68    70    61   ar
    69    71    70    1
    70    72    16    1
    71    73    72   ar
    72    74    73    1
    73    75    73   ar
    74    76    75    1
    75    77    75   ar
    76    78    77    1
    77    79    77   ar
    78    80    79    1
    79    81    72   ar
    80    82    81    1
    81    24    26   ar
    82    35    37   ar
    83    46    48   ar
    84    57    59   ar
    85    68    70   ar
    86    79    81   ar
@<TRIPOS>SUBSTRUCTURE
     1 RES1        1 GROUP             0 ****  ****    0  
     2 RES2       14 GROUP             0 ****  ****    0  
@<TRIPOS>CRYSIN
   12.9550   13.2130   20.0030   90.0000  106.5280   90.0000   231     1
