@<TRIPOS>MOLECULE
XIHVOZ
   152   160     4     0     0
SMALL
USER_CHARGES
****
Generated from the CSD

@<TRIPOS>ATOM
     1 C1      11.6556   6.8683   3.5765   C.1       1 RES1   0.0000
     2 C2      10.0190   5.5377   5.2174   C.1       1 RES1   0.0000
     3 C3      11.6756   4.1394   3.4882   C.1       1 RES1   0.0000
     4 Fe1     11.9200   5.5385   4.8303   Fe        1 RES1  -2.0000
     5 N1       8.8744   5.5683   5.4358   N.1       1 RES1   0.0000
     6 N2      11.5464   3.3238   2.6748   N.1       1 RES1   0.0000
     7 O1      11.4918   7.7433   2.8379   O.2       1 RES1   0.0000
     8 C1F     12.1844   6.8683   6.0840   C.1       1 RES1   0.0000
     9 O1F     12.3482   7.7433   6.8226   O.2       1 RES1   0.0000
    10 C2F     13.8210   5.5377   4.4431   C.1       1 RES1   0.0000
    11 N1F     14.9656   5.5683   4.2247   N.1       1 RES1   0.0000
    12 C3F     12.1644   4.1394   6.1723   C.1       1 RES1   0.0000
    13 N2F     12.2936   3.3238   6.9857   N.1       1 RES1   0.0000
    14 C4       5.1976  11.0848   3.4283   C.ar      2 RES2   0.0000
    15 C5       4.5060  12.2883   3.6192   C.ar      2 RES2   0.0000
    16 H1       4.7442  13.0572   3.1126   H         2 RES2   0.0000
    17 C6       3.4768  12.3616   4.5449   C.ar      2 RES2   0.0000
    18 H2       2.9943  13.1714   4.6564   H         2 RES2   0.0000
    19 C7       3.1540  11.2540   5.3069   C.ar      2 RES2   0.0000
    20 H3       2.4579  11.3085   5.9489   H         2 RES2   0.0000
    21 C8       3.8401  10.0733   5.1367   C.ar      2 RES2   0.0000
    22 H4       3.6213   9.3190   5.6707   H         2 RES2   0.0000
    23 C9       4.8481   9.9774   4.1890   C.ar      2 RES2   0.0000
    24 H5       5.2996   9.1516   4.0593   H         2 RES2   0.0000
    25 C10      6.5379  12.2769   1.1328   C.ar      2 RES2   0.0000
    26 C11      5.3604  12.4797   0.4112   C.ar      2 RES2   0.0000
    27 H6       4.5797  11.9879   0.6337   H         2 RES2   0.0000
    28 C12      5.3247  13.3869  -0.6190   C.ar      2 RES2   0.0000
    29 H7       4.5129  13.5367  -1.0897   H         2 RES2   0.0000
    30 C13      6.4704  14.0848  -0.9738   C.ar      2 RES2   0.0000
    31 H8       6.4463  14.6998  -1.6983   H         2 RES2   0.0000
    32 C14      7.6362  13.8872  -0.2802   C.ar      2 RES2   0.0000
    33 H9       8.4203  14.3651  -0.5275   H         2 RES2   0.0000
    34 C15      7.6798  12.9947   0.7825   C.ar      2 RES2   0.0000
    35 H10      8.4870  12.8735   1.2694   H         2 RES2   0.0000
    36 C16      8.0510  11.1832   3.3783   C.ar      2 RES2   0.0000
    37 C17      9.0864  10.2627   3.3489   C.ar      2 RES2   0.0000
    38 H11      9.0616   9.5414   2.7301   H         2 RES2   0.0000
    39 C18     10.1542  10.3921   4.2174   C.ar      2 RES2   0.0000
    40 H12     10.8639   9.7597   4.1985   H         2 RES2   0.0000
    41 C19     10.1885  11.4431   5.1131   C.ar      2 RES2   0.0000
    42 H13     10.9140  11.5186   5.7229   H         2 RES2   0.0000
    43 C20      9.1798  12.3824   5.1303   C.ar      2 RES2   0.0000
    44 H14      9.2237  13.1163   5.7325   H         2 RES2   0.0000
    45 C21      8.1082  12.2573   4.2728   C.ar      2 RES2   0.0000
    46 H15      7.4095  12.9000   4.2893   H         2 RES2   0.0000
    47 C22      5.1740   8.2857  -0.3026   C.ar      2 RES2   0.0000
    48 C23      4.0251   8.7131   0.3482   C.ar      2 RES2   0.0000
    49 H16      4.0933   9.2822   1.1052   H         2 RES2   0.0000
    50 C24      2.7762   8.3103  -0.1034   C.ar      2 RES2   0.0000
    51 H17      1.9930   8.6272   0.3304   H         2 RES2   0.0000
    52 C25      2.6625   7.4572  -1.1726   C.ar      2 RES2   0.0000
    53 H18      1.8047   7.1764  -1.4665   H         2 RES2   0.0000
    54 C26      3.7910   7.0091  -1.8179   C.ar      2 RES2   0.0000
    55 H19      3.7119   6.4113  -2.5504   H         2 RES2   0.0000
    56 C27      5.0498   7.4303  -1.3994   C.ar      2 RES2   0.0000
    57 H20      5.8265   7.1356  -1.8606   H         2 RES2   0.0000
    58 C28      7.5644   9.8064  -0.9840   C.ar      2 RES2   0.0000
    59 C29      8.9460  10.0450  -0.8921   C.ar      2 RES2   0.0000
    60 H21      9.4597   9.6169  -0.2183   H         2 RES2   0.0000
    61 C30      9.5575  10.9134  -1.7961   C.ar      2 RES2   0.0000
    62 H22     10.4944  11.0616  -1.7524   H         2 RES2   0.0000
    63 C31      8.8029  11.5598  -2.7563   C.ar      2 RES2   0.0000
    64 H23      9.2165  12.1838  -3.3425   H         2 RES2   0.0000
    65 C32      7.4605  11.3052  -2.8663   C.ar      2 RES2   0.0000
    66 H24      6.9565  11.7308  -3.5493   H         2 RES2   0.0000
    67 C33      6.8232  10.4237  -1.9812   C.ar      2 RES2   0.0000
    68 H25      5.8932  10.2515  -2.0635   H         2 RES2   0.0000
    69 C34      7.8195   7.3450   0.4668   C.ar      2 RES2   0.0000
    70 C35      8.3821   6.7308  -0.6691   C.ar      2 RES2   0.0000
    71 H26      8.2415   7.1071  -1.5302   H         2 RES2   0.0000
    72 C36      9.1352   5.5873  -0.5335   C.ar      2 RES2   0.0000
    73 H27      9.5145   5.1808  -1.3042   H         2 RES2   0.0000
    74 C37      9.3462   5.0241   0.7122   C.ar      2 RES2   0.0000
    75 H28      9.8555   4.2259   0.7941   H         2 RES2   0.0000
    76 C38      8.8170   5.6222   1.8351   C.ar      2 RES2   0.0000
    77 H29      8.9734   5.2441   2.6914   H         2 RES2   0.0000
    78 C39      8.0553   6.7785   1.7167   C.ar      2 RES2   0.0000
    79 H30      7.6932   7.1866   2.4943   H         2 RES2   0.0000
    80 N3       6.6540   9.4936   1.7037   N.1       2 RES2   1.0000
    81 P1       6.7968   8.8021   0.2888   P.3       2 RES2   0.0000
    82 P2       6.6130  10.9438   2.3324   P.3       2 RES2   0.0000
    83 C40     12.5005   5.3453  17.0821   C.ar      3 RES3   0.0000
    84 C41     12.2252   6.6724  16.7602   C.ar      3 RES3   0.0000
    85 H31     12.1274   6.9275  15.8509   H         3 RES3   0.0000
    86 C42     12.0940   7.6178  17.7581   C.ar      3 RES3   0.0000
    87 H32     11.9176   8.5232  17.5319   H         3 RES3   0.0000
    88 C43     12.2190   7.2489  19.0932   C.ar      3 RES3   0.0000
    89 H33     12.0988   7.8967  19.7789   H         3 RES3   0.0000
    90 C44     12.5165   5.9448  19.4228   C.ar      3 RES3   0.0000
    91 H34     12.6257   5.6971  20.3334   H         3 RES3   0.0000
    92 C45     12.6569   4.9978  18.4301   C.ar      3 RES3   0.0000
    93 H35     12.8617   4.0994  18.6622   H         3 RES3   0.0000
    94 C46     14.5193   4.2132  15.3884   C.ar      3 RES3   0.0000
    95 C47     15.4526   4.2024  16.4298   C.ar      3 RES3   0.0000
    96 H36     15.1551   4.1320  17.3290   H         3 RES3   0.0000
    97 C48     16.8027   4.2932  16.1614   C.ar      3 RES3   0.0000
    98 H37     17.4270   4.2891  16.8769   H         3 RES3   0.0000
    99 C49     17.2511   4.3881  14.8683   C.ar      3 RES3   0.0000
   100 H38     18.1828   4.4320  14.6820   H         3 RES3   0.0000
   101 C50     16.3390   4.4193  13.8524   C.ar      3 RES3   0.0000
   102 H39     16.6451   4.5013  12.9567   H         3 RES3   0.0000
   103 C51     14.9801   4.3350  14.0983   C.ar      3 RES3   0.0000
   104 H40     14.3636   4.3605  13.3759   H         3 RES3   0.0000
   105 C52     12.3370   2.5398  16.3545   C.ar      3 RES3   0.0000
   106 C53     11.2365   2.3364  17.1773   C.ar      3 RES3   0.0000
   107 H41     10.7065   3.0771  17.4488   H         3 RES3   0.0000
   108 C54     10.9097   1.0609  17.6047   C.ar      3 RES3   0.0000
   109 H42     10.1630   0.9305  18.1791   H         3 RES3   0.0000
   110 C55     11.6580  -0.0157  17.2030   C.ar      3 RES3   0.0000
   111 H43     11.4289  -0.8897  17.4971   H         3 RES3   0.0000
   112 C56     12.7303   0.1657  16.3821   C.ar      3 RES3   0.0000
   113 H44     13.2431  -0.5836  16.1002   H         3 RES3   0.0000
   114 C57     13.0743   1.4353  15.9601   C.ar      3 RES3   0.0000
   115 H45     13.8272   1.5528  15.3911   H         3 RES3   0.0000
   116 N4      11.9200   4.6613  14.4908   N.1       3 RES3   1.0000
   117 P3      12.7503   4.1806  15.7455   P.3       3 RES3   0.0000
   118 P3F     11.0897   4.1806  13.2360   P.3       3 RES3   0.0000
   119 C40F    11.3395   5.3453  11.8994   C.ar      3 RES3   0.0000
   120 C41F    11.6148   6.6724  12.2213   C.ar      3 RES3   0.0000
   121 H31F    11.7126   6.9275  13.1306   H         3 RES3   0.0000
   122 C42F    11.7460   7.6178  11.2234   C.ar      3 RES3   0.0000
   123 H32F    11.9224   8.5232  11.4496   H         3 RES3   0.0000
   124 C43F    11.6210   7.2489   9.8883   C.ar      3 RES3   0.0000
   125 H33F    11.7412   7.8967   9.2026   H         3 RES3   0.0000
   126 C44F    11.3235   5.9448   9.5587   C.ar      3 RES3   0.0000
   127 H34F    11.2143   5.6971   8.6481   H         3 RES3   0.0000
   128 C45F    11.1831   4.9978  10.5514   C.ar      3 RES3   0.0000
   129 H35F    10.9783   4.0994  10.3193   H         3 RES3   0.0000
   130 C46F     9.3207   4.2132  13.5931   C.ar      3 RES3   0.0000
   131 C47F     8.3874   4.2024  12.5517   C.ar      3 RES3   0.0000
   132 H36F     8.6849   4.1320  11.6525   H         3 RES3   0.0000
   133 C48F     7.0373   4.2932  12.8201   C.ar      3 RES3   0.0000
   134 H37F     6.4130   4.2891  12.1046   H         3 RES3   0.0000
   135 C49F     6.5889   4.3881  14.1132   C.ar      3 RES3   0.0000
   136 H38F     5.6572   4.4320  14.2995   H         3 RES3   0.0000
   137 C50F     7.5010   4.4193  15.1291   C.ar      3 RES3   0.0000
   138 H39F     7.1949   4.5013  16.0248   H         3 RES3   0.0000
   139 C51F     8.8599   4.3350  14.8832   C.ar      3 RES3   0.0000
   140 H40F     9.4764   4.3605  15.6056   H         3 RES3   0.0000
   141 C52F    11.5030   2.5398  12.6270   C.ar      3 RES3   0.0000
   142 C53F    12.6035   2.3364  11.8042   C.ar      3 RES3   0.0000
   143 H41F    13.1335   3.0771  11.5327   H         3 RES3   0.0000
   144 C54F    12.9303   1.0609  11.3768   C.ar      3 RES3   0.0000
   145 H42F    13.6770   0.9305  10.8024   H         3 RES3   0.0000
   146 C55F    12.1820  -0.0157  11.7785   C.ar      3 RES3   0.0000
   147 H43F    12.4111  -0.8897  11.4844   H         3 RES3   0.0000
   148 C56F    11.1097   0.1657  12.5994   C.ar      3 RES3   0.0000
   149 H44F    10.5969  -0.5836  12.8813   H         3 RES3   0.0000
   150 C57F    10.7657   1.4353  13.0214   C.ar      3 RES3   0.0000
   151 H45F    10.0128   1.5528  13.5904   H         3 RES3   0.0000
   152 O2      14.0799  -1.6997  18.1733   O.3       4 RES4  -1.0000
@<TRIPOS>BOND
     1     1     4    1
     2     2     4    1
     3     3     4    1
     4     4     8    1
     5     5     2    3
     6     6     3    3
     7     7     1    3
     8     8     9    3
     9    10     4    1
    10    11    10    3
    11    12     4    1
    12    13    12    3
    13    14    15   ar
    14    15    16    1
    15    17    15   ar
    16    18    17    1
    17    19    17   ar
    18    20    19    1
    19    21    19   ar
    20    22    21    1
    21    23    14   ar
    22    24    23    1
    23    25    26   ar
    24    26    27    1
    25    28    26   ar
    26    29    28    1
    27    30    28   ar
    28    31    30    1
    29    32    30   ar
    30    33    32    1
    31    34    25   ar
    32    35    34    1
    33    36    37   ar
    34    37    38    1
    35    39    37   ar
    36    40    39    1
    37    41    39   ar
    38    42    41    1
    39    43    41   ar
    40    44    43    1
    41    45    36   ar
    42    46    45    1
    43    47    48   ar
    44    48    49    1
    45    50    48   ar
    46    51    50    1
    47    52    50   ar
    48    53    52    1
    49    54    52   ar
    50    55    54    1
    51    56    47   ar
    52    57    56    1
    53    58    59   ar
    54    59    60    1
    55    61    59   ar
    56    62    61    1
    57    63    61   ar
    58    64    63    1
    59    65    63   ar
    60    66    65    1
    61    67    58   ar
    62    68    67    1
    63    69    70   ar
    64    70    71    1
    65    72    70   ar
    66    73    72    1
    67    74    72   ar
    68    75    74    1
    69    76    74   ar
    70    77    76    1
    71    78    69   ar
    72    79    78    1
    73    80    81    2
    74    81    47    1
    75    82    14    1
    76    21    23   ar
    77    25    82    1
    78    32    34   ar
    79    36    82    1
    80    43    45   ar
    81    54    56   ar
    82    58    81    1
    83    65    67   ar
    84    69    81    1
    85    76    78   ar
    86    80    82    2
    87    83    84   ar
    88    84    85    1
    89    86    84   ar
    90    87    86    1
    91    88    86   ar
    92    89    88    1
    93    90    88   ar
    94    91    90    1
    95    92    83   ar
    96    93    92    1
    97    94    95   ar
    98    95    96    1
    99    97    95   ar
   100    98    97    1
   101    99    97   ar
   102   100    99    1
   103   101    99   ar
   104   102   101    1
   105   103    94   ar
   106   104   103    1
   107   105   106   ar
   108   106   107    1
   109   108   106   ar
   110   109   108    1
   111   110   108   ar
   112   111   110    1
   113   112   110   ar
   114   113   112    1
   115   114   105   ar
   116   115   114    1
   117   116   117    2
   118   117    83    1
   119   118   116    2
   120   119   118    1
   121   120   119   ar
   122   121   120    1
   123   122   120   ar
   124   123   122    1
   125   124   122   ar
   126   125   124    1
   127   126   124   ar
   128   127   126    1
   129   128   119   ar
   130   129   128    1
   131   130   118    1
   132   131   130   ar
   133   132   131    1
   134   133   131   ar
   135   134   133    1
   136   135   133   ar
   137   136   135    1
   138   137   135   ar
   139   138   137    1
   140   139   130   ar
   141   140   139    1
   142   141   118    1
   143   142   141   ar
   144   143   142    1
   145   144   142   ar
   146   145   144    1
   147   146   144   ar
   148   147   146    1
   149   148   146   ar
   150   149   148    1
   151   150   141   ar
   152   151   150    1
   153    90    92   ar
   154    94   117    1
   155   101   103   ar
   156   105   117    1
   157   112   114   ar
   158   126   128   ar
   159   137   139   ar
   160   148   150   ar
@<TRIPOS>SUBSTRUCTURE
     1 RES1        1 GROUP             0 ****  ****    0  
     2 RES2       14 GROUP             0 ****  ****    0  
     3 RES3       83 GROUP             0 ****  ****    0  
     4 RES4      152 GROUP             0 ****  ****    0  
@<TRIPOS>CRYSIN
   23.8400   20.4050   19.3210   90.0000   90.0000   90.0000    60     1
