@<TRIPOS>MOLECULE
XIHVUF
    83    87     2     0     0
SMALL
USER_CHARGES
****
Generated from the CSD

@<TRIPOS>ATOM
     1 C1      12.0053  19.0350   8.3907   C.1       1 RES1   0.0000
     2 C2      11.5377  19.0350   5.8510   C.1       1 RES1   0.0000
     3 C3      13.0364  20.9525   6.8863   C.1       1 RES1   0.0000
     4 C4      14.1852  19.0350   5.3804   C.1       1 RES1   0.0000
     5 C5      14.5978  19.0350   8.0678   C.1       1 RES1   0.0000
     6 C6       9.4512  19.0350   4.2989   C.3       1 RES1   0.0000
     7 Fe1     13.0316  19.0350   6.9498   Fe        1 RES1  -2.0000
     8 N1      10.6010  19.0350   5.1633   N.1       1 RES1   0.0000
     9 N2      12.9933  22.1108   6.8037   N.1       1 RES1   0.0000
    10 N3      14.8449  19.0350   4.4248   N.1       1 RES1   0.0000
    11 N4      15.5562  19.0350   8.7555   N.1       1 RES1   0.0000
    12 O1      11.3511  19.0350   9.3608   O.2       1 RES1   0.0000
    13 C3A     13.0364  17.1175   6.8863   C.1       1 RES1   0.0000
    14 N2A     12.9933  15.9592   6.8037   N.1       1 RES1   0.0000
    15 C7       7.7909  12.3169   0.9049   C.ar      2 RES2   0.0000
    16 C8       8.0274  11.3017  -0.0275   C.ar      2 RES2   0.0000
    17 H4       8.4871  10.5124   0.2360   H         2 RES2   0.0000
    18 C9       7.5899  11.4438  -1.3480   C.ar      2 RES2   0.0000
    19 H5       7.7620  10.7611  -1.9851   H         2 RES2   0.0000
    20 C10      6.9025  12.5961  -1.7288   C.ar      2 RES2   0.0000
    21 H6       6.6019  12.6951  -2.6236   H         2 RES2   0.0000
    22 C11      6.6612  13.5758  -0.8239   C.ar      2 RES2   0.0000
    23 H7       6.1824  14.3499  -1.0946   H         2 RES2   0.0000
    24 C12      7.0985  13.4742   0.4937   C.ar      2 RES2   0.0000
    25 H8       6.9324  14.1798   1.1091   H         2 RES2   0.0000
    26 C13      6.9137  11.2281   3.4243   C.ar      2 RES2   0.0000
    27 C14      6.2795  11.7276   4.5479   C.ar      2 RES2   0.0000
    28 H9       6.5224  12.5758   4.9012   H         2 RES2   0.0000
    29 C15      5.2722  10.9616   5.1575   C.ar      2 RES2   0.0000
    30 H10      4.8357  11.2941   5.9335   H         2 RES2   0.0000
    31 C16      4.9133   9.7485   4.6492   C.ar      2 RES2   0.0000
    32 H11      4.2257   9.2459   5.0706   H         2 RES2   0.0000
    33 C17      5.5400   9.2409   3.5257   C.ar      2 RES2   0.0000
    34 H12      5.2814   8.3957   3.1738   H         2 RES2   0.0000
    35 C18      6.5565   9.9787   2.9146   C.ar      2 RES2   0.0000
    36 H13      7.0050   9.6317   2.1530   H         2 RES2   0.0000
    37 C19      9.7045  11.1334   2.7293   C.ar      2 RES2   0.0000
    38 C20      9.8344  10.1614   3.7096   C.ar      2 RES2   0.0000
    39 H14      9.1098   9.9921   4.3003   H         2 RES2   0.0000
    40 C21     11.0080   9.4312   3.8399   C.ar      2 RES2   0.0000
    41 H15     11.0883   8.7637   4.5102   H         2 RES2   0.0000
    42 C22     12.0575   9.6926   2.9798   C.ar      2 RES2   0.0000
    43 H16     12.8641   9.1977   3.0609   H         2 RES2   0.0000
    44 C23     11.9476  10.6672   2.0010   C.ar      2 RES2   0.0000
    45 H17     12.6771  10.8373   1.4175   H         2 RES2   0.0000
    46 C24     10.7839  11.3855   1.8736   C.ar      2 RES2   0.0000
    47 H18     10.7106  12.0555   1.2047   H         2 RES2   0.0000
    48 C25      8.5419  15.4810   5.2632   C.ar      2 RES2   0.0000
    49 C26      7.2443  15.8798   4.9765   C.ar      2 RES2   0.0000
    50 H19      6.7936  15.5656   4.2018   H         2 RES2   0.0000
    51 C27      6.6051  16.7889   5.8945   C.ar      2 RES2   0.0000
    52 H20      5.7207  17.0909   5.7222   H         2 RES2   0.0000
    53 C28      7.2678  17.2178   7.0151   C.ar      2 RES2   0.0000
    54 H21      6.8270  17.8066   7.6189   H         2 RES2   0.0000
    55 C29      8.5214  16.8295   7.2801   C.ar      2 RES2   0.0000
    56 H22      8.9597  17.1467   8.0620   H         2 RES2   0.0000
    57 C30      9.1873  15.9587   6.4099   C.ar      2 RES2   0.0000
    58 H23     10.0788  15.6899   6.5981   H         2 RES2   0.0000
    59 C31     10.4652  13.3567   5.1024   C.ar      2 RES2   0.0000
    60 C32      9.8502  12.6418   6.1363   C.ar      2 RES2   0.0000
    61 H24      8.9315  12.7890   6.3274   H         2 RES2   0.0000
    62 C33     10.5641  11.7205   6.8805   C.ar      2 RES2   0.0000
    63 H25     10.1420  11.2383   7.5827   H         2 RES2   0.0000
    64 C34     11.9004  11.5073   6.5938   C.ar      2 RES2   0.0000
    65 H26     12.3998  10.8779   7.1006   H         2 RES2   0.0000
    66 C35     12.4803  12.1773   5.6193   C.ar      2 RES2   0.0000
    67 H27     13.3996  12.0149   5.4413   H         2 RES2   0.0000
    68 C36     11.7967  13.1240   4.8288   C.ar      2 RES2   0.0000
    69 H28     12.2405  13.5885   4.1294   H         2 RES2   0.0000
    70 C37     10.4423  15.4470   3.0826   C.ar      2 RES2   0.0000
    71 C38     11.4785  16.2001   3.6314   C.ar      2 RES2   0.0000
    72 H29     11.6799  16.1239   4.5566   H         2 RES2   0.0000
    73 C39     12.2199  17.0604   2.8292   C.ar      2 RES2   0.0000
    74 H30     12.9274  17.5706   3.2057   H         2 RES2   0.0000
    75 C40     11.9301  17.1721   1.4971   C.ar      2 RES2   0.0000
    76 H31     12.4388  17.7609   0.9527   H         2 RES2   0.0000
    77 C41     10.9118  16.4412   0.9411   C.ar      2 RES2   0.0000
    78 H32     10.7185  16.5224   0.0145   H         2 RES2   0.0000
    79 C42     10.1622  15.5805   1.7389   C.ar      2 RES2   0.0000
    80 H33      9.4514  15.0808   1.3538   H         2 RES2   0.0000
    81 N5       8.3530  13.6062   3.2636   N.1       2 RES2   1.0000
    82 P1       8.2353  12.1585   2.6275   P.3       2 RES2   0.0000
    83 P2       9.4181  14.3999   4.1231   P.3       2 RES2   0.0000
@<TRIPOS>BOND
     1     1     7    1
     2     2     7    1
     3     3     7    1
     4     4     7    1
     5     5     7    1
     6     6     8    1
     7     7    13    1
     8     8     2    3
     9     9     3    3
    10    10     4    3
    11    11     5    3
    12    12     1    3
    13    13    14    3
    14    15    16   ar
    15    16    17    1
    16    18    16   ar
    17    19    18    1
    18    20    18   ar
    19    21    20    1
    20    22    20   ar
    21    23    22    1
    22    24    15   ar
    23    25    24    1
    24    26    27   ar
    25    27    28    1
    26    29    27   ar
    27    30    29    1
    28    31    29   ar
    29    32    31    1
    30    33    31   ar
    31    34    33    1
    32    35    26   ar
    33    36    35    1
    34    37    38   ar
    35    38    39    1
    36    40    38   ar
    37    41    40    1
    38    42    40   ar
    39    43    42    1
    40    44    42   ar
    41    45    44    1
    42    46    37   ar
    43    47    46    1
    44    48    49   ar
    45    49    50    1
    46    51    49   ar
    47    52    51    1
    48    53    51   ar
    49    54    53    1
    50    55    53   ar
    51    56    55    1
    52    57    48   ar
    53    58    57    1
    54    59    60   ar
    55    60    61    1
    56    62    60   ar
    57    63    62    1
    58    64    62   ar
    59    65    64    1
    60    66    64   ar
    61    67    66    1
    62    68    59   ar
    63    69    68    1
    64    70    71   ar
    65    71    72    1
    66    73    71   ar
    67    74    73    1
    68    75    73   ar
    69    76    75    1
    70    77    75   ar
    71    78    77    1
    72    79    70   ar
    73    80    79    1
    74    81    82    2
    75    82    15    1
    76    83    48    1
    77    22    24   ar
    78    26    82    1
    79    33    35   ar
    80    37    82    1
    81    44    46   ar
    82    55    57   ar
    83    59    83    1
    84    66    68   ar
    85    70    83    1
    86    77    79   ar
    87    81    83    2
@<TRIPOS>SUBSTRUCTURE
     1 RES1        1 GROUP             0 ****  ****    0  
     2 RES2       15 GROUP             0 ****  ****    0  
@<TRIPOS>CRYSIN
   10.8530   25.3800   15.4500   90.0000  110.4200   90.0000    11     1
