@<TRIPOS>MOLECULE
XIJNUD
    83    88     3     0     0
SMALL
USER_CHARGES
****
Generated from the CSD

@<TRIPOS>ATOM
     1 Fe1      5.0470  11.6673   6.3084   Fe        1 RES1   1.0000
     2 O1       5.5272  11.6667   8.1932   O.2       1 RES1   0.0000
     3 O2       3.7620  13.1058   6.6058   O.2       1 RES1   0.0000
     4 N1       7.2886  12.7326   4.7251   N.pl3     1 RES1   0.0000
     5 N2       5.5997  11.5529   3.4184   N.pl3     1 RES1   0.0000
     6 N3       7.1308  10.2558   4.8747   N.pl3     1 RES1   0.0000
     7 N4       6.7634  14.1798   6.2591   N.pl3     1 RES1   0.0000
     8 N5       6.6356   9.1048   6.6425   N.pl3     1 RES1   0.0000
     9 N6       3.6074  10.2884   6.6840   N.2       1 RES1   0.0000
    10 N7       3.4722  11.8609   3.7201   N.pl3     1 RES1   0.0000
    11 C1       4.6335  11.6534   4.3803   C.3       1 RES1   0.0000
    12 C2       8.0479  13.8640   4.4983   C.2       1 RES1   0.0000
    13 H1       8.6771  13.9869   3.7972   H         1 RES1   0.0000
    14 C3       8.1810  11.1692   2.7191   C.ar      1 RES1   0.0000
    15 C4       6.3336  10.2375   5.9691   C.3       1 RES1   0.0000
    16 C5       5.0258  11.7552   2.1673   C.2       1 RES1   0.0000
    17 H2       5.4789  11.7616   1.3332   H         1 RES1   0.0000
    18 C6       7.6274   8.4066   5.9655   C.2       1 RES1   0.0000
    19 H3       8.0201   7.5830   6.2295   H         1 RES1   0.0000
    20 C7      10.5073  11.1418   1.9547   C.ar      1 RES1   0.0000
    21 H4      11.4033  11.4363   2.0680   H         1 RES1   0.0000
    22 C8       6.4727  12.9323   5.7964   C.3       1 RES1   0.0000
    23 N8       1.9660   9.0134   7.5527   N.pl3     1 RES1   0.0000
    24 C9       7.9248   9.1257   4.8610   C.2       1 RES1   0.0000
    25 H5       8.5637   8.8962   4.1963   H         1 RES1   0.0000
    26 C10      3.7034  11.9392   2.3640   C.2       1 RES1   0.0000
    27 H6       3.0519  12.0940   1.6899   H         1 RES1   0.0000
    28 C11      7.8865  10.3432   1.6150   C.ar      1 RES1   0.0000
    29 H7       6.9889  10.0635   1.4782   H         1 RES1   0.0000
    30 C12      9.5274  11.5255   2.8707   C.ar      1 RES1   0.0000
    31 H8       9.7816  12.0477   3.6228   H         1 RES1   0.0000
    32 C13     10.1771  10.3354   0.8860   C.ar      1 RES1   0.0000
    33 H9      10.8453  10.0639   0.2668   H         1 RES1   0.0000
    34 C14      7.7302  14.7697   5.4609   C.2       1 RES1   0.0000
    35 H10      8.0994  15.6380   5.5669   H         1 RES1   0.0000
    36 C15      4.8205  12.1166   9.1578   C.2       1 RES1   0.0000
    37 C16      6.0654   8.6389   7.9091   C.3       1 RES1   0.0000
    38 H11      6.0511   9.3787   8.5519   H         1 RES1   0.0000
    39 H12      6.6128   7.9080   8.2646   H         1 RES1   0.0000
    40 H13      5.1515   8.3196   7.7582   H         1 RES1   0.0000
    41 C17      2.1414  12.0410   4.3127   C.3       1 RES1   0.0000
    42 H14      2.0362  11.4296   5.0716   H         1 RES1   0.0000
    43 H15      1.4553  11.8478   3.6403   H         1 RES1   0.0000
    44 H16      2.0441  12.9657   4.6226   H         1 RES1   0.0000
    45 C18      8.8633   9.9256   0.7231   C.ar      1 RES1   0.0000
    46 H17      8.6305   9.3559  -0.0008   H         1 RES1   0.0000
    47 C19      3.2747  13.4321   7.7454   C.2       1 RES1   0.0000
    48 C20      6.1263  14.9015   7.3620   C.3       1 RES1   0.0000
    49 H18      5.3132  15.3426   7.0367   H         1 RES1   0.0000
    50 H19      6.7452  15.5758   7.7119   H         1 RES1   0.0000
    51 H20      5.8929  14.2706   8.0739   H         1 RES1   0.0000
    52 C21      3.6994  12.9375   8.9870   C.2       1 RES1   0.0000
    53 H21      3.1956  13.1731   9.7587   H         1 RES1   0.0000
    54 C22      5.3044  11.7526  10.5325   C.3       1 RES1   0.0000
    55 H22      5.2560  10.7814  10.6507   H         1 RES1   0.0000
    56 H23      4.7429  12.1926  11.2041   H         1 RES1   0.0000
    57 H24      6.2337  12.0484  10.6404   H         1 RES1   0.0000
    58 C23      2.1962  14.4865   7.6918   C.3       1 RES1   0.0000
    59 H25      2.6077  15.3759   7.6964   H         1 RES1   0.0000
    60 H26      1.6103  14.3944   8.4730   H         1 RES1   0.0000
    61 H27      1.6690  14.3742   6.8738   H         1 RES1   0.0000
    62 B1       7.1007  11.4394   3.8677   B         1 RES1   0.0000
    63 C24      2.7537  10.0718   7.5706   C.2       1 RES1   0.0000
    64 H28      2.6696  10.6924   8.2840   H         1 RES1   0.0000
    65 C25      3.4238   9.1465   5.8423   C.2       1 RES1   0.0000
    66 H29      3.9165   8.9486   5.0541   H         1 RES1   0.0000
    67 C26      2.4279   8.3975   6.3648   C.2       1 RES1   0.0000
    68 H30      2.0926   7.5896   5.9947   H         1 RES1   0.0000
    69 C27      0.9994   8.5684   8.4347   C.3       1 RES1   0.0000
    70 H31      1.4303   8.1174   9.1912   H         1 RES1   0.0000
    71 H32      0.4020   7.9416   7.9776   H         1 RES1   0.0000
    72 H33      0.4812   9.3331   8.7642   H         1 RES1   0.0000
    73 S1       8.7705   5.6188   1.0179   S.o2      2 RES2   0.0000
    74 F1       8.9494   6.4022   3.5235   F         2 RES2   0.0000
    75 F2       7.6037   4.7918   3.2003   F         2 RES2   0.0000
    76 F3       9.6906   4.4434   3.1566   F         2 RES2   0.0000
    77 O3       7.6922   6.5249   0.8006   O.2       2 RES2   0.0000
    78 O4       8.6324   4.3338   0.4589   O.2       2 RES2   0.0000
    79 O5      10.0780   6.2182   0.8204   O.3       2 RES2  -1.0000
    80 C28      8.7504   5.3164   2.8268   C.3       2 RES2   0.0000
    81 O6      12.7127   5.1403   1.1442   O.3       3 RES3   0.0000
    82 H34     12.0304   5.5808   1.4549   H         3 RES3   0.0000
    83 H35     12.9081   5.5398   0.3962   H         3 RES3   0.0000
@<TRIPOS>BOND
     1     1     2    1
     2     2    36   un
     3     3     1    1
     4     4    12    1
     5     5    11    1
     6     6    15    1
     7     7    22    1
     8     8    15    1
     9     9     1    1
    10    10    11    1
    11    11     1    1
    12    12    13    1
    13    14    28   ar
    14    15     1    1
    15    16     5    1
    16    17    16    1
    17    18     8    1
    18    19    18    1
    19    20    21    1
    20    22     1    1
    21    23    63    1
    22    24     6    1
    23    25    24    1
    24    26    10    1
    25    27    26    1
    26    28    29    1
    27    30    14   ar
    28    31    30    1
    29    32    20   ar
    30    33    32    1
    31    34     7    1
    32    35    34    1
    33    36    52   un
    34    37     8    1
    35    38    37    1
    36    39    37    1
    37    40    37    1
    38    41    10    1
    39    42    41    1
    40    43    41    1
    41    44    41    1
    42    45    28   ar
    43    46    45    1
    44    47     3   un
    45    48     7    1
    46    49    48    1
    47    50    48    1
    48    51    48    1
    49    52    47   un
    50    53    52    1
    51    54    36    1
    52    55    54    1
    53    56    54    1
    54    57    54    1
    55    58    47    1
    56    59    58    1
    57    60    58    1
    58    61    58    1
    59    62     4    1
    60    63     9    2
    61    64    63    1
    62    65     9    1
    63    66    65    1
    64    67    23    1
    65    68    67    1
    66    69    23    1
    67    70    69    1
    68    71    69    1
    69    72    69    1
    70     4    22    1
    71     5    62    1
    72     6    62    1
    73    12    34    2
    74    14    62    1
    75    16    26    2
    76    18    24    2
    77    20    30   ar
    78    32    45   ar
    79    65    67    2
    80    73    77    2
    81    74    80    1
    82    75    80    1
    83    76    80    1
    84    78    73    2
    85    79    73    1
    86    80    73    1
    87    81    82    1
    88    83    81    1
@<TRIPOS>SUBSTRUCTURE
     1 RES1        1 GROUP             0 ****  ****    0  
     2 RES2       73 GROUP             0 ****  ****    0  
     3 RES3       81 GROUP             0 ****  ****    0  
@<TRIPOS>CRYSIN
   24.2180   13.0497   22.0612   90.0000  115.7820   90.0000    15     1
