@<TRIPOS>MOLECULE
XILBEA
   101   100     7     0     0
SMALL
USER_CHARGES
****
Generated from the CSD

@<TRIPOS>ATOM
     1 Fe1      0.0000   0.0000   0.0000   Fe        1 RES1   0.0000
     2 N1       0.2573  -0.6415   3.0015   N.1       1 RES1   0.0000
     3 N2       2.1962  -2.0492  -0.6923   N.1       1 RES1   0.0000
     4 N3       2.1530   2.1970   0.2071   N.1       1 RES1   0.0000
     5 C1       0.1778  -0.3838   1.8652   C.1       1 RES1  -1.0000
     6 C2       1.3631  -1.2908  -0.4280   C.1       1 RES1  -1.0000
     7 C3       1.3361   1.3693   0.1339   C.1       1 RES1   0.0000
     8 N1A     -0.2573   0.6415  -3.0015   N.1       1 RES1   0.0000
     9 N2A     -2.1962   2.0492   0.6923   N.1       1 RES1   0.0000
    10 N3A     -2.1530  -2.1970  -0.2071   N.1       1 RES1   0.0000
    11 C1A     -0.1778   0.3838  -1.8652   C.1       1 RES1  -1.0000
    12 C2A     -1.3631   1.2908   0.4280   C.1       1 RES1   0.0000
    13 C3A     -1.3361  -1.3693  -0.1339   C.1       1 RES1  -1.0000
    14 O1       3.1117   7.6691   5.7077   O.3       2 RES2   0.0000
    15 H1       3.5516   7.5273   4.9948   H         2 RES2   0.0000
    16 H2       3.6247   8.1309   6.2215   H         2 RES2   0.0000
    17 O2      -0.4495   3.0004  10.6087   O.3       3 RES3   0.0000
    18 H3      -0.8117   3.6694  10.2894   H         3 RES3   0.0000
    19 H4      -0.5191   2.9549  11.4177   H         3 RES3   0.0000
    20 O3      -0.3249   0.4449   9.7401   O.3       4 RES4   0.0000
    21 H5      -0.5221   1.2296   9.8969   H         4 RES4   0.0000
    22 H6      -0.4652  -0.0464  10.3901   H         4 RES4   0.0000
    23 O4       5.2830   7.4169   3.9707   O.3       5 RES5   0.0000
    24 H7       5.8430   7.9752   3.7235   H         5 RES5   0.0000
    25 H8       5.0803   6.8959   3.3539   H         5 RES5   0.0000
    26 N4      -1.4314   6.2234   7.6633   N.ar      6 RES6   1.0000
    27 C4      -0.1733   5.9107   7.3085   C.ar      6 RES6   0.0000
    28 H9      -0.0122   5.5284   6.4766   H         6 RES6   0.0000
    29 C5       0.8690   6.1498   8.1530   C.ar      6 RES6   0.0000
    30 H10      1.7345   5.9145   7.9059   H         6 RES6   0.0000
    31 C6       0.6344   6.7389   9.3671   C.ar      6 RES6   0.0000
    32 H11      1.3368   6.9120   9.9518   H         6 RES6   0.0000
    33 C7      -0.6579   7.0704   9.7092   C.ar      6 RES6   0.0000
    34 H12     -0.8354   7.4815  10.5240   H         6 RES6   0.0000
    35 C8      -1.6754   6.7886   8.8442   C.ar      6 RES6   0.0000
    36 H13     -2.5507   6.9958   9.0822   H         6 RES6   0.0000
    37 C9      -2.5566   5.9631   6.7135   C.3       6 RES6   0.0000
    38 H14     -2.4903   6.5732   5.9617   H         6 RES6   0.0000
    39 H15     -3.4013   6.1291   7.1609   H         6 RES6   0.0000
    40 C10     -2.5252   4.5431   6.2112   C.ar      6 RES6   0.0000
    41 C11     -2.4471   3.4666   7.0808   C.ar      6 RES6   0.0000
    42 H16     -2.3915   3.6136   7.9974   H         6 RES6   0.0000
    43 C12     -2.6156   4.2977   4.8529   C.ar      6 RES6   0.0000
    44 H17     -2.6734   5.0122   4.2602   H         6 RES6   0.0000
    45 N4A     -3.6356   0.2488   3.7796   N.ar      6 RES6   1.0000
    46 C4A     -4.8937   0.5614   4.1343   C.ar      6 RES6   0.0000
    47 H9A     -5.0547   0.9438   4.9662   H         6 RES6   0.0000
    48 C5A     -5.9360   0.3224   3.2898   C.ar      6 RES6   0.0000
    49 H10A    -6.8015   0.5576   3.5370   H         6 RES6   0.0000
    50 C6A     -5.7013  -0.2668   2.0757   C.ar      6 RES6   0.0000
    51 H11A    -6.4038  -0.4399   1.4910   H         6 RES6   0.0000
    52 C7A     -4.4091  -0.5983   1.7336   C.ar      6 RES6   0.0000
    53 H12A    -4.2316  -1.0093   0.9189   H         6 RES6   0.0000
    54 C8A     -3.3915  -0.3165   2.5987   C.ar      6 RES6   0.0000
    55 H13A    -2.5162  -0.5237   2.3607   H         6 RES6   0.0000
    56 C9A     -2.5104   0.5090   4.7293   C.3       6 RES6   0.0000
    57 H14A    -2.5767  -0.1010   5.4811   H         6 RES6   0.0000
    58 H15A    -1.6657   0.3431   4.2819   H         6 RES6   0.0000
    59 C10A    -2.5417   1.9290   5.2317   C.ar      6 RES6   0.0000
    60 C11A    -2.6199   3.0056   4.3620   C.ar      6 RES6   0.0000
    61 H16A    -2.6755   2.8585   3.4454   H         6 RES6   0.0000
    62 C12A    -2.4514   2.1744   6.5899   C.ar      6 RES6   0.0000
    63 H17A    -2.3936   1.4599   7.1827   H         6 RES6   0.0000
    64 N5       0.9508   4.9141   2.6341   N.ar      7 RES7   1.0000
    65 C13     -0.0472   4.3790   1.9247   C.ar      7 RES7   0.0000
    66 H18      0.0220   3.5029   1.6192   H         7 RES7   0.0000
    67 C14     -1.1660   5.1055   1.6466   C.ar      7 RES7   0.0000
    68 H19     -1.8648   4.7223   1.1672   H         7 RES7   0.0000
    69 C15     -1.2527   6.3922   2.0746   C.ar      7 RES7   0.0000
    70 H20     -1.9990   6.9037   1.8583   H         7 RES7   0.0000
    71 C16     -0.2609   6.9274   2.8081   C.ar      7 RES7   0.0000
    72 H21     -0.3296   7.8027   3.1159   H         7 RES7   0.0000
    73 C17      0.8608   6.1745   3.1056   C.ar      7 RES7   0.0000
    74 H22      1.5455   6.5320   3.6239   H         7 RES7   0.0000
    75 C18      2.1539   4.1062   2.9500   C.3       7 RES7   0.0000
    76 H23      2.9498   4.6336   2.7783   H         7 RES7   0.0000
    77 H24      2.1797   3.3285   2.3710   H         7 RES7   0.0000
    78 C19      2.1562   3.6594   4.3792   C.ar      7 RES7   0.0000
    79 C20      1.2142   2.7640   4.8575   C.ar      7 RES7   0.0000
    80 H25      0.5600   2.4356   4.2842   H         7 RES7   0.0000
    81 C21      3.1105   4.1179   5.2648   C.ar      7 RES7   0.0000
    82 H26      3.7547   4.7186   4.9662   H         7 RES7   0.0000
    83 N5A      3.3941   1.5580   8.8087   N.ar      7 RES7   1.0000
    84 C13A     4.3921   2.0931   9.5182   C.ar      7 RES7   0.0000
    85 H18A     4.3229   2.9692   9.8237   H         7 RES7   0.0000
    86 C14A     5.5109   1.3666   9.7962   C.ar      7 RES7   0.0000
    87 H19A     6.2098   1.7498  10.2757   H         7 RES7   0.0000
    88 C15A     5.5976   0.0800   9.3683   C.ar      7 RES7   0.0000
    89 H20A     6.3439  -0.4315   9.5845   H         7 RES7   0.0000
    90 C16A     4.6058  -0.4552   8.6348   C.ar      7 RES7   0.0000
    91 H21A     4.6746  -1.3306   8.3270   H         7 RES7   0.0000
    92 C17A     3.4841   0.2976   8.3373   C.ar      7 RES7   0.0000
    93 H22A     2.7995  -0.0599   7.8189   H         7 RES7   0.0000
    94 C18A     2.1911   2.3659   8.4929   C.3       7 RES7   0.0000
    95 H23A     1.3951   1.8385   8.6645   H         7 RES7   0.0000
    96 H24A     2.1652   3.1436   9.0719   H         7 RES7   0.0000
    97 C19A     2.1888   2.8127   7.0637   C.ar      7 RES7   0.0000
    98 C20A     3.1307   3.7081   6.5854   C.ar      7 RES7   0.0000
    99 H25A     3.7850   4.0365   7.1586   H         7 RES7   0.0000
   100 C21A     1.2344   2.3543   6.1780   C.ar      7 RES7   0.0000
   101 H26A     0.5902   1.7535   6.4766   H         7 RES7   0.0000
@<TRIPOS>BOND
     1     1     5    1
     2     2     5    3
     3     3     6    3
     4     4     7    3
     5     6     1    1
     6     7     1    1
     7     8    11    3
     8     9    12    3
     9    10    13    3
    10    11     1    1
    11    12     1    1
    12    13     1    1
    13    14    15    1
    14    16    14    1
    15    17    18    1
    16    19    17    1
    17    20    21    1
    18    22    20    1
    19    23    24    1
    20    25    23    1
    21    26    27   ar
    22    27    28    1
    23    29    27   ar
    24    30    29    1
    25    31    29   ar
    26    32    31    1
    27    33    31   ar
    28    34    33    1
    29    35    26   ar
    30    36    35    1
    31    37    26    1
    32    38    37    1
    33    39    37    1
    34    40    37    1
    35    41    40   ar
    36    42    41    1
    37    43    40   ar
    38    44    43    1
    39    45    46   ar
    40    46    47    1
    41    48    46   ar
    42    49    48    1
    43    50    48   ar
    44    51    50    1
    45    52    50   ar
    46    53    52    1
    47    54    45   ar
    48    55    54    1
    49    56    45    1
    50    57    56    1
    51    58    56    1
    52    59    56    1
    53    60    43   ar
    54    61    60    1
    55    62    41   ar
    56    63    62    1
    57    33    35   ar
    58    52    54   ar
    59    59    60   ar
    60    59    62   ar
    61    64    65   ar
    62    65    66    1
    63    67    65   ar
    64    68    67    1
    65    69    67   ar
    66    70    69    1
    67    71    69   ar
    68    72    71    1
    69    73    64   ar
    70    74    73    1
    71    75    64    1
    72    76    75    1
    73    77    75    1
    74    78    75    1
    75    79    78   ar
    76    80    79    1
    77    81    78   ar
    78    82    81    1
    79    83    84   ar
    80    84    85    1
    81    86    84   ar
    82    87    86    1
    83    88    86   ar
    84    89    88    1
    85    90    88   ar
    86    91    90    1
    87    92    83   ar
    88    93    92    1
    89    94    83    1
    90    95    94    1
    91    96    94    1
    92    97    94    1
    93    98    81   ar
    94    99    98    1
    95   100    79   ar
    96   101   100    1
    97    71    73   ar
    98    90    92   ar
    99    97    98   ar
   100    97   100   ar
@<TRIPOS>SUBSTRUCTURE
     1 RES1        1 GROUP             0 ****  ****    0  
     2 RES2       14 GROUP             0 ****  ****    0  
     3 RES3       17 GROUP             0 ****  ****    0  
     4 RES4       20 GROUP             0 ****  ****    0  
     5 RES5       23 GROUP             0 ****  ****    0  
     6 RES6       26 GROUP             0 ****  ****    0  
     7 RES7       64 GROUP             0 ****  ****    0  
@<TRIPOS>CRYSIN
    9.4119   10.7164   12.3210  104.9550  101.1230  104.5380     2     1
