@<TRIPOS>MOLECULE
XILJAD01
   162   172     4     0     0
SMALL
USER_CHARGES
****
Generated from the CSD

@<TRIPOS>ATOM
     1 Fe1      6.3652   6.5623   4.0976   Fe        1 RES1   1.0000
     2 N1       8.2878   6.1340   4.0652   N.2       1 RES1   0.0000
     3 N2       6.4906   6.9618   6.0509   N.2       1 RES1   0.0000
     4 N3       4.4772   7.1399   4.0996   N.2       1 RES1   0.0000
     5 N4       6.1938   6.0015   2.1894   N.2       1 RES1   0.0000
     6 N5       6.8638   8.6182   3.4686   N.ar      1 RES1   0.0000
     7 N6       5.8202   4.5051   4.6445   N.ar      1 RES1   0.0000
     8 C1       9.0102   5.9779   2.8927   C.2       1 RES1   0.0000
     9 C2      10.3597   6.4580   3.1019   C.2       1 RES1   0.0000
    10 C3      10.4508   6.8358   4.4241   C.2       1 RES1   0.0000
    11 C4       9.1710   6.5657   5.0401   C.2       1 RES1   0.0000
    12 C5       8.8377   6.5334   6.4079   C.2       1 RES1   0.0000
    13 C6       7.5119   6.4857   6.8431   C.2       1 RES1   0.0000
    14 C7       6.9946   6.0705   8.1349   C.2       1 RES1   0.0000
    15 C8       5.6576   6.3832   8.1414   C.2       1 RES1   0.0000
    16 C9       5.3712   7.0178   6.8674   C.2       1 RES1   0.0000
    17 C10      4.2428   7.6931   6.4703   C.2       1 RES1   0.0000
    18 C11      3.9417   7.9302   5.0949   C.2       1 RES1   0.0000
    19 C12      2.9877   8.8193   4.5124   C.2       1 RES1   0.0000
    20 C13      2.8513   8.4835   3.1902   C.2       1 RES1   0.0000
    21 C14      3.7622   7.4020   2.9330   C.2       1 RES1   0.0000
    22 C15      3.8707   6.5850   1.7980   C.2       1 RES1   0.0000
    23 C16      4.9692   5.7594   1.5896   C.2       1 RES1   0.0000
    24 C17      5.0859   4.6312   0.7004   C.2       1 RES1   0.0000
    25 C18      6.4051   4.2702   0.6923   C.2       1 RES1   0.0000
    26 C19      7.1036   5.1664   1.5744   C.2       1 RES1   0.0000
    27 C20      8.4802   5.3161   1.7678   C.2       1 RES1   0.0000
    28 C21     11.3964   6.6790   2.0504   C.3       1 RES1   0.0000
    29 H1      12.2564   6.8121   2.4798   H         1 RES1   0.0000
    30 H2      11.4601   5.8862   1.4968   H         1 RES1   0.0000
    31 C22     11.1033   7.8507   1.1833   C.3       1 RES1   0.0000
    32 H3      10.4659   7.5994   0.5112   H         1 RES1   0.0000
    33 H4      11.9144   8.1464   0.7602   H         1 RES1   0.0000
    34 H5      10.7433   8.5622   1.7170   H         1 RES1   0.0000
    35 C23     11.5825   7.5975   5.0249   C.3       1 RES1   0.0000
    36 H6      12.3848   7.4478   4.5009   H         1 RES1   0.0000
    37 H7      11.7475   7.2723   5.9243   H         1 RES1   0.0000
    38 C24     11.2864   9.0742   5.0723   C.3       1 RES1   0.0000
    39 H8      11.2069   9.4142   4.1785   H         1 RES1   0.0000
    40 H9      12.0018   9.5288   5.5258   H         1 RES1   0.0000
    41 H10     10.4648   9.2202   5.5468   H         1 RES1   0.0000
    42 C25      7.7007   5.2172   9.1567   C.3       1 RES1   0.0000
    43 H11      7.1773   5.1858   9.9717   H         1 RES1   0.0000
    44 H12      8.5635   5.6053   9.3661   H         1 RES1   0.0000
    45 C26      7.8925   3.8163   8.6253   C.3       1 RES1   0.0000
    46 H13      7.0458   3.4615   8.3438   H         1 RES1   0.0000
    47 H14      8.2578   3.2582   9.3163   H         1 RES1   0.0000
    48 H15      8.4945   3.8367   7.8772   H         1 RES1   0.0000
    49 C27      4.6498   5.9102   9.1535   C.3       1 RES1   0.0000
    50 H16      4.0458   6.6365   9.3688   H         1 RES1   0.0000
    51 H17      5.1105   5.6496   9.9664   H         1 RES1   0.0000
    52 C28      3.8579   4.7385   8.6298   C.3       1 RES1   0.0000
    53 H18      3.2729   5.0342   7.9270   H         1 RES1   0.0000
    54 H19      3.3357   4.3597   9.3425   H         1 RES1   0.0000
    55 H20      4.4587   4.0732   8.2861   H         1 RES1   0.0000
    56 C29      2.4178  10.0535   5.1575   C.3       1 RES1   0.0000
    57 H21      1.6915  10.3937   4.6136   H         1 RES1   0.0000
    58 H22      2.0575   9.8227   6.0291   H         1 RES1   0.0000
    59 C30      3.4581  11.1219   5.3187   C.3       1 RES1   0.0000
    60 H23      4.1724  10.7911   5.8666   H         1 RES1   0.0000
    61 H24      3.0626  11.8907   5.7382   H         1 RES1   0.0000
    62 H25      3.8011  11.3658   4.4563   H         1 RES1   0.0000
    63 C31      2.0029   9.2069   2.1818   C.3       1 RES1   0.0000
    64 H26      2.1659  10.1590   2.2596   H         1 RES1   0.0000
    65 H27      2.2709   8.9319   1.2897   H         1 RES1   0.0000
    66 C32      0.5382   8.9522   2.3487   C.3       1 RES1   0.0000
    67 H28      0.3472   8.0355   2.1338   H         1 RES1   0.0000
    68 H29      0.0448   9.5270   1.7589   H         1 RES1   0.0000
    69 H30      0.2839   9.1278   3.2557   H         1 RES1   0.0000
    70 C33      3.9623   3.8459   0.0899   C.3       1 RES1   0.0000
    71 H31      4.3165   3.2268  -0.5662   H         1 RES1   0.0000
    72 H32      3.3514   4.4484  -0.3617   H         1 RES1   0.0000
    73 C34      3.2112   3.0715   1.1796   C.3       1 RES1   0.0000
    74 H33      3.8201   2.4783   1.6279   H         1 RES1   0.0000
    75 H34      2.5048   2.5615   0.7785   H         1 RES1   0.0000
    76 H35      2.8419   3.6888   1.8140   H         1 RES1   0.0000
    77 C35      6.9427   3.0124   0.0755   C.3       1 RES1   0.0000
    78 H36      7.8168   3.1824  -0.3067   H         1 RES1   0.0000
    79 H37      6.3521   2.7167  -0.6344   H         1 RES1   0.0000
    80 C36      7.0505   1.9128   1.1534   C.3       1 RES1   0.0000
    81 H38      7.7886   2.1068   1.7353   H         1 RES1   0.0000
    82 H39      7.1913   1.0627   0.7287   H         1 RES1   0.0000
    83 H40      6.2382   1.8851   1.6646   H         1 RES1   0.0000
    84 C37      9.9179   6.5266   7.4528   C.ar      1 RES1   0.0000
    85 C38     10.8270   5.4907   7.5105   C.ar      1 RES1   0.0000
    86 H41     10.8007   4.8051   6.8837   H         1 RES1   0.0000
    87 C39     11.7880   5.4889   8.5221   C.ar      1 RES1   0.0000
    88 H42     12.3979   4.7903   8.5666   H         1 RES1   0.0000
    89 C40     11.8516   6.4757   9.4390   C.ar      1 RES1   0.0000
    90 H43     12.4980   6.4462  10.1080   H         1 RES1   0.0000
    91 C41     10.9988   7.4903   9.3937   C.ar      1 RES1   0.0000
    92 H44     11.0583   8.1741  10.0215   H         1 RES1   0.0000
    93 C42      9.9978   7.5366   8.3931   C.ar      1 RES1   0.0000
    94 H45      9.3953   8.2444   8.3674   H         1 RES1   0.0000
    95 C43      3.2781   8.1533   7.5165   C.ar      1 RES1   0.0000
    96 C44      3.6765   9.0058   8.5255   C.ar      1 RES1   0.0000
    97 H46      4.5445   9.3366   8.5378   H         1 RES1   0.0000
    98 C45      2.7764   9.3717   9.5305   C.ar      1 RES1   0.0000
    99 H47      3.0430   9.9539  10.2050   H         1 RES1   0.0000
   100 C46      1.4971   8.8709   9.5208   C.ar      1 RES1   0.0000
   101 H48      0.8959   9.1130  10.1892   H         1 RES1   0.0000
   102 C47      1.1143   8.0245   8.5378   C.ar      1 RES1   0.0000
   103 H49      0.2535   7.6733   8.5456   H         1 RES1   0.0000
   104 C48      1.9875   7.6715   7.5141   C.ar      1 RES1   0.0000
   105 H50      1.7016   7.1096   6.8313   H         1 RES1   0.0000
   106 C49      2.7769   6.5462   0.7801   C.ar      1 RES1   0.0000
   107 C50      1.5404   6.0322   1.1170   C.ar      1 RES1   0.0000
   108 H51      1.3627   5.7919   1.9975   H         1 RES1   0.0000
   109 C51      0.5570   5.8733   0.1400   C.ar      1 RES1   0.0000
   110 H52     -0.2533   5.4741   0.3591   H         1 RES1   0.0000
   111 C52      0.7814   6.3002  -1.1427   C.ar      1 RES1   0.0000
   112 H53      0.1057   6.2226  -1.7773   H         1 RES1   0.0000
   113 C53      1.9744   6.8361  -1.4989   C.ar      1 RES1   0.0000
   114 H54      2.1171   7.1207  -2.3723   H         1 RES1   0.0000
   115 C54      3.0009   6.9618  -0.5348   C.ar      1 RES1   0.0000
   116 H55      3.8240   7.3203  -0.7759   H         1 RES1   0.0000
   117 C55      9.4028   4.7672   0.7303   C.ar      1 RES1   0.0000
   118 C56      9.3802   5.2394  -0.5812   C.ar      1 RES1   0.0000
   119 H56      8.7806   5.9084  -0.8205   H         1 RES1   0.0000
   120 C57     10.2502   4.7145  -1.5411   C.ar      1 RES1   0.0000
   121 H57     10.2423   5.0490  -2.4090   H         1 RES1   0.0000
   122 C58     11.0913   3.7369  -1.2111   C.ar      1 RES1   0.0000
   123 H58     11.6611   3.3857  -1.8559   H         1 RES1   0.0000
   124 C59     11.1289   3.2342   0.0813   C.ar      1 RES1   0.0000
   125 H59     11.7182   2.5485   0.2962   H         1 RES1   0.0000
   126 C60     10.2778   3.7646   1.0585   C.ar      1 RES1   0.0000
   127 H60     10.3061   3.4356   1.9293   H         1 RES1   0.0000
   128 C61      6.8941   8.9836   2.2043   C.ar      1 RES1   0.0000
   129 H61      6.7242   8.3312   1.5623   H         1 RES1   0.0000
   130 C62      7.1553  10.2311   1.7715   C.ar      1 RES1   0.0000
   131 H62      7.1800  10.4177   0.8598   H         1 RES1   0.0000
   132 C63      7.3783  11.2032   2.6680   C.ar      1 RES1   0.0000
   133 H63      7.5392  12.0792   2.3985   H         1 RES1   0.0000
   134 C64      7.3637  10.8613   3.9973   C.ar      1 RES1   0.0000
   135 H64      7.5276  11.5063   4.6477   H         1 RES1   0.0000
   136 C65      7.1043   9.5713   4.3591   C.ar      1 RES1   0.0000
   137 H65      7.0978   9.3514   5.2637   H         1 RES1   0.0000
   138 C66      4.5425   4.1268   4.7334   C.ar      1 RES1   0.0000
   139 H66      3.8819   4.7626   4.5743   H         1 RES1   0.0000
   140 C67      4.1637   2.8719   5.0435   C.ar      1 RES1   0.0000
   141 H67      3.2630   2.6520   5.1169   H         1 RES1   0.0000
   142 C68      5.1267   1.9257   5.2480   C.ar      1 RES1   0.0000
   143 H68      4.8911   1.0534   5.4655   H         1 RES1   0.0000
   144 C69      6.4222   2.2750   5.1300   C.ar      1 RES1   0.0000
   145 H69      7.0937   1.6430   5.2427   H         1 RES1   0.0000
   146 C70      6.7366   3.5835   4.8411   C.ar      1 RES1   0.0000
   147 H70      7.6332   3.8256   4.7814   H         1 RES1   0.0000
   148 Cl1     -0.3482   3.3889   2.9102   Cl        2 RES2   0.0000
   149 Cl2      0.7581   5.0584   4.9641   Cl        2 RES2   0.0000
   150 C71     -0.5239   4.0233   4.5350   C.3       2 RES2   0.0000
   151 H71     -1.3596   4.5094   4.5979   H         2 RES2   0.0000
   152 H72     -0.5590   3.2841   5.1615   H         2 RES2   0.0000
   153 Cl3      1.2179   0.5396  -1.1248   Cl        3 RES3   0.0000
   154 Cl4      4.0094   0.2844  -1.0645   Cl        3 RES3   0.0000
   155 C72      2.6560   0.5674  -1.9582   C.3       3 RES3   0.0000
   156 H73      2.6122  -0.0961  -2.6633   H         3 RES3   0.0000
   157 H74      2.7460   1.4360  -2.3802   H         3 RES3   0.0000
   158 Cl5     10.4441   1.8779   5.1740   Cl        4 RES4   0.0000
   159 O1       9.8514   1.6060   3.9320   O.3       4 RES4  -1.0000
   160 O2      11.5772   1.5247   5.4629   O.2       4 RES4   0.0000
   161 O3      10.3175   3.2083   4.8417   O.2       4 RES4   0.0000
   162 O4       9.5064   1.4840   6.1371   O.2       4 RES4   0.0000
@<TRIPOS>BOND
     1     1     2    1
     2     2     8    1
     3     3     1    1
     4     4     1    1
     5     5     1    1
     6     6     1    1
     7     7     1    1
     8     8     9    1
     9     9    10    2
    10    10    11    1
    11    11     2    1
    12    12    11    2
    13    13     3    2
    14    14    13    1
    15    15    14    2
    16    16     3    1
    17    17    16    2
    18    18     4    1
    19    19    18    2
    20    20    19    1
    21    21     4    1
    22    22    21    1
    23    23     5    1
    24    24    23    1
    25    25    24    2
    26    26     5    2
    27    27     8    2
    28    28     9    1
    29    29    28    1
    30    30    28    1
    31    31    28    1
    32    32    31    1
    33    33    31    1
    34    34    31    1
    35    35    10    1
    36    36    35    1
    37    37    35    1
    38    38    35    1
    39    39    38    1
    40    40    38    1
    41    41    38    1
    42    42    14    1
    43    43    42    1
    44    44    42    1
    45    45    42    1
    46    46    45    1
    47    47    45    1
    48    48    45    1
    49    49    15    1
    50    50    49    1
    51    51    49    1
    52    52    49    1
    53    53    52    1
    54    54    52    1
    55    55    52    1
    56    56    19    1
    57    57    56    1
    58    58    56    1
    59    59    56    1
    60    60    59    1
    61    61    59    1
    62    62    59    1
    63    63    20    1
    64    64    63    1
    65    65    63    1
    66    66    63    1
    67    67    66    1
    68    68    66    1
    69    69    66    1
    70    70    24    1
    71    71    70    1
    72    72    70    1
    73    73    70    1
    74    74    73    1
    75    75    73    1
    76    76    73    1
    77    77    25    1
    78    78    77    1
    79    79    77    1
    80    80    77    1
    81    81    80    1
    82    82    80    1
    83    83    80    1
    84    84    12    1
    85    85    84   ar
    86    86    85    1
    87    87    85   ar
    88    88    87    1
    89    89    87   ar
    90    90    89    1
    91    91    89   ar
    92    92    91    1
    93    93    84   ar
    94    94    93    1
    95    95    17    1
    96    96    95   ar
    97    97    96    1
    98    98    96   ar
    99    99    98    1
   100   100    98   ar
   101   101   100    1
   102   102   100   ar
   103   103   102    1
   104   104    95   ar
   105   105   104    1
   106   106    22    1
   107   107   106   ar
   108   108   107    1
   109   109   107   ar
   110   110   109    1
   111   111   109   ar
   112   112   111    1
   113   113   111   ar
   114   114   113    1
   115   115   106   ar
   116   116   115    1
   117   117    27    1
   118   118   117   ar
   119   119   118    1
   120   120   118   ar
   121   121   120    1
   122   122   120   ar
   123   123   122    1
   124   124   122   ar
   125   125   124    1
   126   126   117   ar
   127   127   126    1
   128   128     6   ar
   129   129   128    1
   130   130   128   ar
   131   131   130    1
   132   132   130   ar
   133   133   132    1
   134   134   132   ar
   135   135   134    1
   136   136     6   ar
   137   137   136    1
   138   138     7   ar
   139   139   138    1
   140   140   138   ar
   141   141   140    1
   142   142   140   ar
   143   143   142    1
   144   144   142   ar
   145   145   144    1
   146   146     7   ar
   147   147   146    1
   148    12    13    1
   149    15    16    1
   150    17    18    1
   151    20    21    2
   152    22    23    2
   153    25    26    1
   154    26    27    1
   155    91    93   ar
   156   102   104   ar
   157   113   115   ar
   158   124   126   ar
   159   134   136   ar
   160   144   146   ar
   161   148   150    1
   162   149   150    1
   163   150   151    1
   164   152   150    1
   165   153   155    1
   166   154   155    1
   167   155   156    1
   168   157   155    1
   169   158   159    1
   170   160   158    2
   171   161   158    2
   172   162   158    2
@<TRIPOS>SUBSTRUCTURE
     1 RES1        1 GROUP             0 ****  ****    0  
     2 RES2      148 GROUP             0 ****  ****    0  
     3 RES3      153 GROUP             0 ****  ****    0  
     4 RES4      158 GROUP             0 ****  ****    0  
@<TRIPOS>CRYSIN
   13.9720   18.4810   26.7500   90.0000  101.4930   90.0000   231     1
