@<TRIPOS>MOLECULE
XILTUH
    97   101     1     0     0
SMALL
NO_CHARGES
****
Generated from the CSD

@<TRIPOS>ATOM
     1 Fe1      2.0161   3.8095   0.5052   Fe        1 RES1   0.0000
     2 P1       0.2364   2.8965  -0.4878   P.3       1 RES1   0.0000
     3 P2       3.1132   3.2924  -1.3682   P.3       1 RES1   0.0000
     4 P3       3.8958   4.6022   1.4111   P.3       1 RES1   0.0000
     5 P4       1.1646   3.8814   2.6158   P.3       1 RES1   0.0000
     6 O1      -0.9972  13.8315  -2.8794   O.3       1 RES1   0.0000
     7 O2       5.0482  -3.8468   3.4571   O.3       1 RES1   0.0000
     8 C1       0.6124   8.4931  -2.2197   C.1       1 RES1   0.0000
     9 C2       0.9895   7.3980  -1.8953   C.1       1 RES1   0.0000
    10 C3       1.4409   6.1120  -1.4582   C.2       1 RES1   0.0000
    11 H1       1.7315   5.5219  -2.1449   H         1 RES1   0.0000
    12 C4       1.4482   5.6840  -0.1550   C.2       1 RES1   0.0000
    13 C5       0.8746   6.7474   0.7417   C.ar      1 RES1   0.0000
    14 C6       1.6701   7.6498   1.4537   C.ar      1 RES1   0.0000
    15 H2       2.6147   7.5535   1.4329   H         1 RES1   0.0000
    16 C7       1.1086   8.6865   2.1918   C.ar      1 RES1   0.0000
    17 H3       1.6726   9.2903   2.6613   H         1 RES1   0.0000
    18 C8      -0.2679   8.8460   2.2476   C.ar      1 RES1   0.0000
    19 H4      -0.6493   9.5560   2.7496   H         1 RES1   0.0000
    20 C9      -1.0821   7.9527   1.5600   C.ar      1 RES1   0.0000
    21 H5      -2.0276   8.0419   1.6024   H         1 RES1   0.0000
    22 C10     -0.5152   6.9352   0.8129   C.ar      1 RES1   0.0000
    23 H6      -1.0844   6.3447   0.3326   H         1 RES1   0.0000
    24 C11      0.1894   9.8492  -2.4396   C.ar      1 RES1   0.0000
    25 C12      0.0996  10.4105  -3.7211   C.ar      1 RES1   0.0000
    26 H7       0.3198   9.8811  -4.4782   H         1 RES1   0.0000
    27 C13     -0.3066  11.7303  -3.9059   C.ar      1 RES1   0.0000
    28 H8      -0.3764  12.0908  -4.7819   H         1 RES1   0.0000
    29 C14     -0.6084  12.5128  -2.8028   C.ar      1 RES1   0.0000
    30 C15     -0.5197  11.9786  -1.5213   C.ar      1 RES1   0.0000
    31 H9      -0.7243  12.5206  -0.7678   H         1 RES1   0.0000
    32 C16     -0.1374  10.6678  -1.3410   C.ar      1 RES1   0.0000
    33 H10     -0.0936  10.3103  -0.4623   H         1 RES1   0.0000
    34 C17     -1.2064  14.3808  -4.1817   C.3       1 RES1   0.0000
    35 H11     -0.3633  14.3682  -4.6810   H         1 RES1   0.0000
    36 H12     -1.5244  15.3045  -4.0997   H         1 RES1   0.0000
    37 H13     -1.8761  13.8454  -4.6575   H         1 RES1   0.0000
    38 C18      2.4945   2.0351   1.1157   C.1       1 RES1   0.0000
    39 C19      2.8326   0.9345   1.5267   C.1       1 RES1   0.0000
    40 C20      3.3371  -0.3185   2.0223   C.ar      1 RES1   0.0000
    41 C21      2.9926  -0.8084   3.2832   C.ar      1 RES1   0.0000
    42 H14      2.3623  -0.3256   3.8050   H         1 RES1   0.0000
    43 C22      3.5401  -1.9753   3.8014   C.ar      1 RES1   0.0000
    44 H15      3.2936  -2.2715   4.6701   H         1 RES1   0.0000
    45 C23      4.4441  -2.7068   3.0488   C.ar      1 RES1   0.0000
    46 C24      4.7762  -2.2630   1.7853   C.ar      1 RES1   0.0000
    47 H16      5.3841  -2.7681   1.2572   H         1 RES1   0.0000
    48 C25      4.2383  -1.0926   1.2770   C.ar      1 RES1   0.0000
    49 H17      4.4853  -0.8079   0.4046   H         1 RES1   0.0000
    50 C26      4.7760  -4.3211   4.7756   C.3       1 RES1   0.0000
    51 H18      4.9851  -3.6189   5.4254   H         1 RES1   0.0000
    52 H19      5.3265  -5.1100   4.9594   H         1 RES1   0.0000
    53 H20      3.8281  -4.5612   4.8477   H         1 RES1   0.0000
    54 C27     -1.1311   3.8925  -1.1869   C.3       1 RES1   0.0000
    55 H21     -1.7284   3.3108  -1.7024   H         1 RES1   0.0000
    56 H22     -0.7631   4.5848  -1.7745   H         1 RES1   0.0000
    57 H23     -1.6335   4.3146  -0.4596   H         1 RES1   0.0000
    58 C28     -0.7337   1.5919   0.3425   C.3       1 RES1   0.0000
    59 H24     -1.3614   2.0030   0.9733   H         1 RES1   0.0000
    60 H25     -0.1283   0.9933   0.8273   H         1 RES1   0.0000
    61 H26     -1.2333   1.0789  -0.3271   H         1 RES1   0.0000
    62 C29      0.8154   1.9793  -1.9953   C.3       1 RES1   0.0000
    63 H27      1.1724   1.0943  -1.7349   H         1 RES1   0.0000
    64 H28      0.0567   1.8378  -2.6162   H         1 RES1   0.0000
    65 C30      1.9073   2.7966  -2.6865   C.3       1 RES1   0.0000
    66 H29      1.5172   3.5986  -3.1173   H         1 RES1   0.0000
    67 H30      2.3588   2.2533  -3.3805   H         1 RES1   0.0000
    68 C31      4.2768   4.4306  -2.2260   C.3       1 RES1   0.0000
    69 H31      5.1527   4.3912  -1.7907   H         1 RES1   0.0000
    70 H32      3.9303   5.3462  -2.1810   H         1 RES1   0.0000
    71 H33      4.3654   4.1609  -3.1642   H         1 RES1   0.0000
    72 C32      4.1578   1.7818  -1.3960   C.3       1 RES1   0.0000
    73 H34      4.6491   1.7403  -2.2422   H         1 RES1   0.0000
    74 H35      3.5879   0.9884  -1.3095   H         1 RES1   0.0000
    75 H36      4.7927   1.8095  -0.6498   H         1 RES1   0.0000
    76 C33      4.7640   6.0781   0.7471   C.3       1 RES1   0.0000
    77 H37      5.0687   6.6391   1.4906   H         1 RES1   0.0000
    78 H38      4.1500   6.5908   0.1802   H         1 RES1   0.0000
    79 H39      5.5357   5.7922   0.2163   H         1 RES1   0.0000
    80 C34      5.3244   3.4657   1.5780   C.3       1 RES1   0.0000
    81 H40      5.7493   3.3445   0.7030   H         1 RES1   0.0000
    82 H41      5.0148   2.5990   1.9142   H         1 RES1   0.0000
    83 H42      5.9734   3.8465   2.2062   H         1 RES1   0.0000
    84 C35      3.5906   5.0401   3.1777   C.3       1 RES1   0.0000
    85 H43      4.4415   5.0255   3.6842   H         1 RES1   0.0000
    86 H44      3.2038   5.9486   3.2417   H         1 RES1   0.0000
    87 C36      2.6187   4.0122   3.7500   C.3       1 RES1   0.0000
    88 H45      2.3212   4.2930   4.6512   H         1 RES1   0.0000
    89 H46      3.0647   3.1328   3.8302   H         1 RES1   0.0000
    90 C37      0.0593   5.1500   3.3489   C.3       1 RES1   0.0000
    91 H47     -0.8035   5.1392   2.8857   H         1 RES1   0.0000
    92 H48      0.4692   6.0352   3.2543   H         1 RES1   0.0000
    93 H49     -0.0768   4.9537   4.2997   H         1 RES1   0.0000
    94 C38      0.3185   2.4258   3.3507   C.3       1 RES1   0.0000
    95 H50      0.3546   2.4868   4.3286   H         1 RES1   0.0000
    96 H51      0.7671   1.6057   3.0578   H         1 RES1   0.0000
    97 H52     -0.6161   2.4086   3.0588   H         1 RES1   0.0000
@<TRIPOS>BOND
     1     1     2    1
     2     2    54    1
     3     3     1    1
     4     4     1    1
     5     5     1    1
     6     6    29    1
     7     7    45    1
     8     8     9    3
     9     9    10    1
    10    10    11    1
    11    12     1    1
    12    13    12    1
    13    14    13   ar
    14    15    14    1
    15    16    14   ar
    16    17    16    1
    17    18    16   ar
    18    19    18    1
    19    20    18   ar
    20    21    20    1
    21    22    13   ar
    22    23    22    1
    23    24     8    1
    24    25    24   ar
    25    26    25    1
    26    27    25   ar
    27    28    27    1
    28    29    27   ar
    29    30    29   ar
    30    31    30    1
    31    32    24   ar
    32    33    32    1
    33    34     6    1
    34    35    34    1
    35    36    34    1
    36    37    34    1
    37    38     1    1
    38    39    38    3
    39    40    39    1
    40    41    40   ar
    41    42    41    1
    42    43    41   ar
    43    44    43    1
    44    45    43   ar
    45    46    45   ar
    46    47    46    1
    47    48    40   ar
    48    49    48    1
    49    50     7    1
    50    51    50    1
    51    52    50    1
    52    53    50    1
    53    54    55    1
    54    56    54    1
    55    57    54    1
    56    58     2    1
    57    59    58    1
    58    60    58    1
    59    61    58    1
    60    62     2    1
    61    63    62    1
    62    64    62    1
    63    65     3    1
    64    66    65    1
    65    67    65    1
    66    68     3    1
    67    69    68    1
    68    70    68    1
    69    71    68    1
    70    72     3    1
    71    73    72    1
    72    74    72    1
    73    75    72    1
    74    76     4    1
    75    77    76    1
    76    78    76    1
    77    79    76    1
    78    80     4    1
    79    81    80    1
    80    82    80    1
    81    83    80    1
    82    84     4    1
    83    85    84    1
    84    86    84    1
    85    87     5    1
    86    88    87    1
    87    89    87    1
    88    90     5    1
    89    91    90    1
    90    92    90    1
    91    93    90    1
    92    94     5    1
    93    95    94    1
    94    96    94    1
    95    97    94    1
    96    10    12    2
    97    20    22   ar
    98    30    32   ar
    99    46    48   ar
   100    62    65    1
   101    84    87    1
@<TRIPOS>SUBSTRUCTURE
     1 RES1        1 GROUP             0 ****  ****    0  
@<TRIPOS>CRYSIN
   12.7670   16.2590    9.8110  104.3730  103.3910  105.2190     2     1
