@<TRIPOS>MOLECULE
XINFIM
    75    84     1     0     0
SMALL
NO_CHARGES
****
Generated from the CSD

@<TRIPOS>ATOM
     1 Fe1      0.0000   4.6673   9.4218   Fe        1 RES1   0.0000
     2 C1       1.5456   4.7458   7.0573   C.2       1 RES1   0.0000
     3 C2       1.9575   3.3899   7.1881   C.2       1 RES1   0.0000
     4 C3       2.4299   3.0025   5.9004   C.2       1 RES1   0.0000
     5 C4       1.3571   6.2248   5.0374   C.ar      1 RES1   0.0000
     6 C5       1.1254   6.1150   3.6874   C.ar      1 RES1   0.0000
     7 H1       1.2502   5.3020   3.2530   H         1 RES1   0.0000
     8 C6       0.7081   7.2249   2.9828   C.ar      1 RES1   0.0000
     9 H2       0.5577   7.1558   2.0674   H         1 RES1   0.0000
    10 C7       0.5151   8.4081   3.5970   C.ar      1 RES1   0.0000
    11 H3       0.2384   9.1478   3.1065   H         1 RES1   0.0000
    12 C8       0.7237   8.5170   4.9376   C.ar      1 RES1   0.0000
    13 H4       0.5861   9.3326   5.3638   H         1 RES1   0.0000
    14 C9       1.1410   7.4176   5.6723   C.ar      1 RES1   0.0000
    15 H5       1.2744   7.4900   6.5901   H         1 RES1   0.0000
    16 C10      2.9844   1.6847   5.4908   C.3       1 RES1   0.0000
    17 H6       2.2649   1.0921   5.2634   H         1 RES1   0.0000
    18 H7       3.4910   1.3106   6.2157   H         1 RES1   0.0000
    19 H8       3.5563   1.8016   4.7289   H         1 RES1   0.0000
    20 C11      1.5969   2.1596  10.4612   C.ar      1 RES1   0.0000
    21 C12      0.7196   2.1214  11.5624   C.ar      1 RES1   0.0000
    22 C13      1.0123   1.2275  12.5948   C.ar      1 RES1   0.0000
    23 H9       0.4513   1.2004  13.3349   H         1 RES1   0.0000
    24 C14      2.0946   0.3896  12.5557   C.ar      1 RES1   0.0000
    25 H10      2.2408  -0.2184  13.2426   H         1 RES1   0.0000
    26 C15      2.9659   0.4566  11.4873   C.ar      1 RES1   0.0000
    27 H11      3.7138  -0.0952  11.4628   H         1 RES1   0.0000
    28 C16      2.7284   1.3410  10.4566   C.ar      1 RES1   0.0000
    29 H12      3.3292   1.3927   9.7482   H         1 RES1   0.0000
    30 C17     -0.5563   2.8760  11.6935   C.2       1 RES1   0.0000
    31 N1       1.7676   5.0642   5.7594   N.pl3     1 RES1   0.0000
    32 N2       2.3092   3.9834   5.0412   N.2       1 RES1   0.0000
    33 N3       1.9537   2.6068   8.2703   N.2       1 RES1   0.0000
    34 N4       1.3652   3.0313   9.3464   N.2       1 RES1   0.0000
    35 O1       1.0608   5.5221   7.9364   O.3       1 RES1   0.0000
    36 H13      1.7952   6.0133   8.3374   H         1 RES1   0.0000
    37 O2      -0.9602   3.6449  10.7683   O.co2     1 RES1   0.0000
    38 O3      -1.2460   2.6947  12.6916   O.co2     1 RES1   0.0000
    39 C1E     -1.5456   4.5887   7.0573   C.2       1 RES1   0.0000
    40 C2E     -1.9575   5.9446   7.1881   C.2       1 RES1   0.0000
    41 C3E     -2.4299   6.3320   5.9004   C.2       1 RES1   0.0000
    42 C4E     -1.3571   3.1097   5.0374   C.ar      1 RES1   0.0000
    43 C5E     -1.1254   3.2195   3.6874   C.ar      1 RES1   0.0000
    44 H1E     -1.2502   4.0325   3.2530   H         1 RES1   0.0000
    45 C6E     -0.7081   2.1096   2.9828   C.ar      1 RES1   0.0000
    46 H2E     -0.5577   2.1787   2.0674   H         1 RES1   0.0000
    47 C7E     -0.5151   0.9264   3.5970   C.ar      1 RES1   0.0000
    48 H3E     -0.2384   0.1867   3.1065   H         1 RES1   0.0000
    49 C8E     -0.7237   0.8175   4.9376   C.ar      1 RES1   0.0000
    50 H4E     -0.5861   0.0019   5.3638   H         1 RES1   0.0000
    51 C9E     -1.1410   1.9169   5.6723   C.ar      1 RES1   0.0000
    52 H5E     -1.2744   1.8445   6.5901   H         1 RES1   0.0000
    53 C10E    -2.9844   7.6498   5.4908   C.3       1 RES1   0.0000
    54 H6E     -2.2649   8.2424   5.2634   H         1 RES1   0.0000
    55 H7E     -3.4910   8.0239   6.2157   H         1 RES1   0.0000
    56 H8E     -3.5563   7.5329   4.7289   H         1 RES1   0.0000
    57 C11E    -1.5969   7.1749  10.4612   C.ar      1 RES1   0.0000
    58 C12E    -0.7196   7.2131  11.5624   C.ar      1 RES1   0.0000
    59 C13E    -1.0123   8.1070  12.5948   C.ar      1 RES1   0.0000
    60 H9E     -0.4513   8.1341  13.3349   H         1 RES1   0.0000
    61 C14E    -2.0946   8.9449  12.5557   C.ar      1 RES1   0.0000
    62 H10E    -2.2408   9.5529  13.2426   H         1 RES1   0.0000
    63 C15E    -2.9659   8.8779  11.4873   C.ar      1 RES1   0.0000
    64 H11E    -3.7138   9.4297  11.4628   H         1 RES1   0.0000
    65 C16E    -2.7284   7.9935  10.4566   C.ar      1 RES1   0.0000
    66 H12E    -3.3292   7.9418   9.7482   H         1 RES1   0.0000
    67 C17E     0.5563   6.4585  11.6935   C.2       1 RES1   0.0000
    68 N1E     -1.7676   4.2703   5.7594   N.pl3     1 RES1   0.0000
    69 N2E     -2.3092   5.3511   5.0412   N.2       1 RES1   0.0000
    70 N3E     -1.9537   6.7277   8.2703   N.2       1 RES1   0.0000
    71 N4E     -1.3652   6.3032   9.3464   N.2       1 RES1   0.0000
    72 O1E     -1.0608   3.8124   7.9364   O.3       1 RES1   0.0000
    73 H13E    -1.7952   3.3212   8.3374   H         1 RES1   0.0000
    74 O2E      0.9602   5.6896  10.7683   O.co2     1 RES1   0.0000
    75 O3E      1.2460   6.6398  12.6916   O.co2     1 RES1   0.0000
@<TRIPOS>BOND
     1     1    34    1
     2     2     3    2
     3     3     4    1
     4     4    16    1
     5     5     6   ar
     6     6     7    1
     7     8     6   ar
     8     9     8    1
     9    10     8   ar
    10    11    10    1
    11    12    10   ar
    12    13    12    1
    13    14     5   ar
    14    15    14    1
    15    16    17    1
    16    18    16    1
    17    19    16    1
    18    20    21   ar
    19    21    22   ar
    20    22    23    1
    21    24    22   ar
    22    25    24    1
    23    26    24   ar
    24    27    26    1
    25    28    20   ar
    26    29    28    1
    27    30    21    1
    28    31     2    1
    29    32     4    2
    30    33     3    1
    31    34    20    1
    32    35     1    1
    33    36    35    1
    34    37     1    1
    35    38    30    2
    36    39    40    2
    37    40    41    1
    38    41    53    1
    39    42    43   ar
    40    43    44    1
    41    45    43   ar
    42    46    45    1
    43    47    45   ar
    44    48    47    1
    45    49    47   ar
    46    50    49    1
    47    51    42   ar
    48    52    51    1
    49    53    54    1
    50    55    53    1
    51    56    53    1
    52    57    58   ar
    53    58    59   ar
    54    59    60    1
    55    61    59   ar
    56    62    61    1
    57    63    61   ar
    58    64    63    1
    59    65    57   ar
    60    66    65    1
    61    67    58    1
    62    68    39    1
    63    69    41    2
    64    70    40    1
    65    71     1    1
    66    72     1    1
    67    73    72    1
    68    74     1    1
    69    75    67    2
    70     2    35    1
    71     5    31    1
    72    12    14   ar
    73    26    28   ar
    74    30    37    1
    75    31    32    1
    76    33    34    2
    77    39    72    1
    78    42    68    1
    79    49    51   ar
    80    57    71    1
    81    63    65   ar
    82    67    74    1
    83    68    69    1
    84    70    71    2
@<TRIPOS>SUBSTRUCTURE
     1 RES1        1 GROUP             0 ****  ****    0  
@<TRIPOS>CRYSIN
   14.1911   18.6690   27.1310   90.0000   90.0000   90.0000    73     1
