@<TRIPOS>MOLECULE
XINTUL
    97   106     3     0     0
SMALL
NO_CHARGES
****
Generated from the CSD

@<TRIPOS>ATOM
     1 Fe1      3.2832  12.2630   8.7287   Fe        1 RES1   0.0000
     2 O1       2.7671  14.8488   7.5117   O.3       1 RES1   0.0000
     3 O2       5.9511  11.1320   9.1226   O.3       1 RES1   0.0000
     4 O3       1.6713  14.4888   9.6854   O.3       1 RES1   0.0000
     5 O4       4.1560  10.0293  10.3771   O.3       1 RES1   0.0000
     6 O5       0.7929  13.3962   7.6793   O.3       1 RES1   0.0000
     7 O6       4.3578   9.6883   7.9519   O.3       1 RES1   0.0000
     8 O7      -3.2286  19.2318   7.1031   O.3       1 RES1   0.0000
     9 H1      -3.5092  19.5839   7.8254   H         1 RES1   0.0000
    10 O8       7.9876   3.8722   9.5406   O.3       1 RES1   0.0000
    11 H2       7.2973   3.6721   9.9947   H         1 RES1   0.0000
    12 N1       3.7009  13.8913   7.8398   N.2       1 RES1   0.0000
    13 N2       5.1985  12.2276   8.7511   N.2       1 RES1   0.0000
    14 N3       2.3715  13.3391  10.0024   N.2       1 RES1   0.0000
    15 N4       3.3833  11.1697  10.2810   N.2       1 RES1   0.0000
    16 N5       1.6476  12.3023   7.7276   N.2       1 RES1   0.0000
    17 N6       3.4011  10.6564   7.7320   N.2       1 RES1   0.0000
    18 C1       4.9529  14.2553   7.7380   C.2       1 RES1   0.0000
    19 C2       5.8410  13.2110   8.1788   C.2       1 RES1   0.0000
    20 C3       7.3196  13.2709   7.9549   C.3       1 RES1   0.0000
    21 H3       7.6205  12.4395   7.5101   H         1 RES1   0.0000
    22 H4       7.7837  13.3387   8.8260   H         1 RES1   0.0000
    23 C4       7.6831  14.4779   7.0867   C.3       1 RES1   0.0000
    24 H5       8.6588  14.6392   7.1382   H         1 RES1   0.0000
    25 H6       7.4520  14.2871   6.1433   H         1 RES1   0.0000
    26 C5       6.9349  15.7241   7.5526   C.3       1 RES1   0.0000
    27 H7       7.2892  16.5195   7.0797   H         1 RES1   0.0000
    28 H8       7.0786  15.8545   8.5240   H         1 RES1   0.0000
    29 C6       5.4332  15.5841   7.2700   C.3       1 RES1   0.0000
    30 H9       4.9369  16.3016   7.7386   H         1 RES1   0.0000
    31 H10      5.2666  15.6760   6.2981   H         1 RES1   0.0000
    32 C7       2.1652  12.8580  11.1990   C.2       1 RES1   0.0000
    33 C8       2.8615  11.6164  11.3964   C.2       1 RES1   0.0000
    34 C9       2.9549  10.9342  12.7261   C.3       1 RES1   0.0000
    35 H11      3.8998  10.7149  12.9209   H         1 RES1   0.0000
    36 H12      2.4411  10.0876  12.7019   H         1 RES1   0.0000
    37 C10      2.3997  11.8403  13.8247   C.3       1 RES1   0.0000
    38 H13      2.2573  11.3094  14.6484   H         1 RES1   0.0000
    39 H14      3.0575  12.5509  14.0291   H         1 RES1   0.0000
    40 C11      1.0816  12.4782  13.3997   C.3       1 RES1   0.0000
    41 H15      0.6854  12.9571  14.1707   H         1 RES1   0.0000
    42 H16      0.4480  11.7697  13.1229   H         1 RES1   0.0000
    43 C12      1.2800  13.4586  12.2435   C.3       1 RES1   0.0000
    44 H17      0.4023  13.6843  11.8448   H         1 RES1   0.0000
    45 H18      1.6884  14.2936  12.5830   H         1 RES1   0.0000
    46 C13      1.4187  11.3487   6.8611   C.2       1 RES1   0.0000
    47 C14      2.4245  10.3128   6.9377   C.2       1 RES1   0.0000
    48 C15      2.3098   9.0100   6.2062   C.3       1 RES1   0.0000
    49 H19      1.9981   8.3056   6.8286   H         1 RES1   0.0000
    50 H20      3.2000   8.7445   5.8620   H         1 RES1   0.0000
    51 C16      1.3267   9.1357   5.0404   C.3       1 RES1   0.0000
    52 H21      1.7514   9.6486   4.3082   H         1 RES1   0.0000
    53 H22      1.1119   8.2335   4.6953   H         1 RES1   0.0000
    54 C17      0.0403   9.8331   5.4621   C.3       1 RES1   0.0000
    55 H23     -0.3626   9.3456   6.2226   H         1 RES1   0.0000
    56 H24     -0.6041   9.8157   4.7104   H         1 RES1   0.0000
    57 C18      0.3041  11.2837   5.8707   C.3       1 RES1   0.0000
    58 H25      0.5402  11.8155   5.0710   H         1 RES1   0.0000
    59 H26     -0.5158  11.6714   6.2679   H         1 RES1   0.0000
    60 C19      0.5680  15.9151   7.9406   C.ar      1 RES1   0.0000
    61 C20      1.1387  17.1892   7.8277   C.ar      1 RES1   0.0000
    62 H27      2.0798  17.2811   7.9217   H         1 RES1   0.0000
    63 C21      0.3699  18.3277   7.5800   C.ar      1 RES1   0.0000
    64 H28      0.7922  19.1761   7.5045   H         1 RES1   0.0000
    65 C22     -1.0112  18.2287   7.4424   C.ar      1 RES1   0.0000
    66 C23     -1.6049  16.9838   7.5753   C.ar      1 RES1   0.0000
    67 H29     -2.5477  16.8994   7.4950   H         1 RES1   0.0000
    68 C24     -0.8237  15.8520   7.8258   C.ar      1 RES1   0.0000
    69 H30     -1.2545  15.0110   7.9217   H         1 RES1   0.0000
    70 C25     -1.8270  19.4742   7.1207   C.3       1 RES1   0.0000
    71 H31     -1.6283  20.1719   7.7952   H         1 RES1   0.0000
    72 H32     -1.5484  19.8214   6.2358   H         1 RES1   0.0000
    73 C26      6.0288   8.6228   9.4489   C.ar      1 RES1   0.0000
    74 C27      5.6574   7.3789   8.9333   C.ar      1 RES1   0.0000
    75 H33      4.8373   7.3049   8.4598   H         1 RES1   0.0000
    76 C28      6.4496   6.2425   9.0907   C.ar      1 RES1   0.0000
    77 H34      6.1688   5.4148   8.7184   H         1 RES1   0.0000
    78 C29      7.6452   6.3189   9.7904   C.ar      1 RES1   0.0000
    79 C30      8.0288   7.5432  10.3220   C.ar      1 RES1   0.0000
    80 H35      8.8409   7.6079  10.8102   H         1 RES1   0.0000
    81 C31      7.2413   8.6764  10.1491   C.ar      1 RES1   0.0000
    82 H36      7.5316   9.5045  10.5138   H         1 RES1   0.0000
    83 C32      8.5409   5.1127   9.9875   C.3       1 RES1   0.0000
    84 H37      9.3910   5.2706   9.5057   H         1 RES1   0.0000
    85 H38      8.7553   5.0331  10.9499   H         1 RES1   0.0000
    86 B1       1.4747  14.6493   8.2142   B         1 RES1   0.0000
    87 B2       5.1062   9.8960   9.2285   B         1 RES1   0.0000
    88 C33     -0.1899  14.9144   4.5686   C.3       2 RES2   0.0000
    89 H39     -0.2392  15.8971   4.6764   H         2 RES2   0.0000
    90 H40      0.3308  14.5491   5.3277   H         2 RES2   0.0000
    91 Cl1      0.6298  14.5326   3.0616   Cl        2 RES2   0.0000
    92 Cl2     -1.8268  14.2373   4.6028   Cl        2 RES2   0.0000
    93 C34      2.3542   1.2923   3.3226   C.3       3 RES3   0.0000
    94 H41      2.0803   0.6977   2.5789   H         3 RES3   0.0000
    95 H42      3.0126   1.9409   2.9697   H         3 RES3   0.0000
    96 Cl3      0.9381   2.1638   3.9320   Cl        3 RES3   0.0000
    97 Cl4      3.1000   0.3323   4.5948   Cl        3 RES3   0.0000
@<TRIPOS>BOND
     1     1    12    1
     2     2    12    1
     3     3    13    1
     4     4    14    1
     5     5    15    1
     6     6    16    1
     7     7    17    1
     8     8     9    1
     9    10    11    1
    10    12    18    2
    11    13     1    1
    12    14     1    1
    13    15     1    1
    14    16     1    1
    15    17     1    1
    16    18    19    1
    17    19    13    2
    18    20    19    1
    19    21    20    1
    20    22    20    1
    21    23    20    1
    22    24    23    1
    23    25    23    1
    24    26    23    1
    25    27    26    1
    26    28    26    1
    27    29    18    1
    28    30    29    1
    29    31    29    1
    30    32    14    2
    31    33    15    2
    32    34    33    1
    33    35    34    1
    34    36    34    1
    35    37    34    1
    36    38    37    1
    37    39    37    1
    38    40    37    1
    39    41    40    1
    40    42    40    1
    41    43    32    1
    42    44    43    1
    43    45    43    1
    44    46    16    2
    45    47    17    2
    46    48    47    1
    47    49    48    1
    48    50    48    1
    49    51    48    1
    50    52    51    1
    51    53    51    1
    52    54    51    1
    53    55    54    1
    54    56    54    1
    55    57    46    1
    56    58    57    1
    57    59    57    1
    58    60    61   ar
    59    61    62    1
    60    63    61   ar
    61    64    63    1
    62    65    63   ar
    63    66    65   ar
    64    67    66    1
    65    68    60   ar
    66    69    68    1
    67    70     8    1
    68    71    70    1
    69    72    70    1
    70    73    74   ar
    71    74    75    1
    72    76    74   ar
    73    77    76    1
    74    78    76   ar
    75    79    78   ar
    76    80    79    1
    77    81    73   ar
    78    82    81    1
    79    83    10    1
    80    84    83    1
    81    85    83    1
    82    86     2    1
    83    87     3    1
    84     4    86    1
    85     5    87    1
    86     6    86    1
    87     7    87    1
    88    26    29    1
    89    32    33    1
    90    40    43    1
    91    46    47    1
    92    54    57    1
    93    60    86    1
    94    65    70    1
    95    66    68   ar
    96    73    87    1
    97    78    83    1
    98    79    81   ar
    99    88    89    1
   100    90    88    1
   101    91    88    1
   102    92    88    1
   103    93    94    1
   104    95    93    1
   105    96    93    1
   106    97    93    1
@<TRIPOS>SUBSTRUCTURE
     1 RES1        1 GROUP             0 ****  ****    0  
     2 RES2       88 GROUP             0 ****  ****    0  
     3 RES3       93 GROUP             0 ****  ****    0  
@<TRIPOS>CRYSIN
   12.1466   16.3786   19.7090   90.0000  106.6850   90.0000    14     1
