@<TRIPOS>MOLECULE
XIPSAS
    87    91     3     0     0
SMALL
NO_CHARGES
****
Generated from the CSD

@<TRIPOS>ATOM
     1 Fe1      0.0857  -4.5379  15.0559   Fe        1 RES1   0.0000
     2 O1       0.7749  -6.3858  15.3227   O.2       1 RES1   0.0000
     3 O2       1.9126  -4.1110  14.3736   O.2       1 RES1   0.0000
     4 O3      -0.4784  -5.0799  13.2342   O.2       1 RES1   0.0000
     5 O4      -0.5221  -2.7095  14.4757   O.2       1 RES1   0.0000
     6 O5      -1.6153  -4.9925  15.9346   O.2       1 RES1   0.0000
     7 O6       0.6210  -3.7395  16.8030   O.2       1 RES1   0.0000
     8 C1       1.8121  -8.4638  14.8874   C.3       1 RES1   0.0000
     9 H1       1.0529  -8.7703  15.4272   H         1 RES1   0.0000
    10 H2       2.6489  -8.6911  15.3433   H         1 RES1   0.0000
    11 H3       1.7878  -8.9022  14.0102   H         1 RES1   0.0000
    12 C2       1.7286  -6.9727  14.7053   C.2       1 RES1   0.0000
    13 C3       2.6873  -6.3084  13.9096   C.2       1 RES1   0.0000
    14 C4       2.7425  -4.9089  13.8001   C.2       1 RES1   0.0000
    15 C5       3.8424  -4.2374  13.0234   C.3       1 RES1   0.0000
    16 H4       3.6207  -3.2912  12.8934   H         1 RES1   0.0000
    17 H5       3.9391  -4.6729  12.1506   H         1 RES1   0.0000
    18 H6       4.6840  -4.3103  13.5206   H         1 RES1   0.0000
    19 C6       3.7571  -7.0984  13.2380   C.ar      1 RES1   0.0000
    20 C7       3.6446  -7.4848  11.9029   C.ar      1 RES1   0.0000
    21 H7       2.8511  -7.2943  11.4161   H         1 RES1   0.0000
    22 C8       4.6959  -8.1496  11.2873   C.ar      1 RES1   0.0000
    23 H8       4.6017  -8.3973  10.3748   H         1 RES1   0.0000
    24 C9       5.9390  -8.1003  13.1914   C.ar      1 RES1   0.0000
    25 H9       6.7402  -8.3187  13.6531   H         1 RES1   0.0000
    26 C10      4.9452  -7.4286  13.8887   C.ar      1 RES1   0.0000
    27 H10      5.0730  -7.1954  14.8000   H         1 RES1   0.0000
    28 C11     -0.4066  -5.1991  10.8968   C.3       1 RES1   0.0000
    29 H11      0.4604  -5.6329  10.7571   H         1 RES1   0.0000
    30 H12     -0.6034  -4.6111  10.1383   H         1 RES1   0.0000
    31 H13     -1.1059  -5.8823  10.9701   H         1 RES1   0.0000
    32 C12     -0.3638  -4.3856  12.1637   C.2       1 RES1   0.0000
    33 C13     -0.2962  -2.9876  12.1318   C.2       1 RES1   0.0000
    34 C14     -0.5187  -2.2180  13.2976   C.2       1 RES1   0.0000
    35 C15     -0.8421  -0.7533  13.2028   C.3       1 RES1   0.0000
    36 H14     -1.7919  -0.6433  12.9907   H         1 RES1   0.0000
    37 H15     -0.2997  -0.3443  12.4977   H         1 RES1   0.0000
    38 H16     -0.6458  -0.3192  14.0589   H         1 RES1   0.0000
    39 C16     -0.0404  -2.3147  10.8171   C.ar      1 RES1   0.0000
    40 C17     -1.0150  -1.5920  10.1175   C.ar      1 RES1   0.0000
    41 H17     -1.8900  -1.4869  10.4704   H         1 RES1   0.0000
    42 C18     -0.6665  -1.0320   8.8891   C.ar      1 RES1   0.0000
    43 H18     -1.3357  -0.5417   8.4246   H         1 RES1   0.0000
    44 C19      1.4287  -1.8110   8.9947   C.ar      1 RES1   0.0000
    45 H19      2.2901  -1.9085   8.6074   H         1 RES1   0.0000
    46 C20      1.2103  -2.3964  10.2286   C.ar      1 RES1   0.0000
    47 H20      1.9159  -2.8523  10.6716   H         1 RES1   0.0000
    48 C21     -3.5987  -4.8928  17.2157   C.3       1 RES1   0.0000
    49 H21     -4.1841  -4.1784  16.8861   H         1 RES1   0.0000
    50 H22     -3.7555  -5.0288  18.1739   H         1 RES1   0.0000
    51 H23     -3.7918  -5.7230  16.7318   H         1 RES1   0.0000
    52 C22     -2.1530  -4.5027  16.9914   C.2       1 RES1   0.0000
    53 C23     -1.4813  -3.6774  17.9101   C.2       1 RES1   0.0000
    54 C24     -0.1080  -3.3781  17.7895   C.2       1 RES1   0.0000
    55 C25      0.5943  -2.6074  18.8703   C.3       1 RES1   0.0000
    56 H24      1.5451  -2.5256  18.6484   H         1 RES1   0.0000
    57 H25      0.4967  -3.0776  19.7233   H         1 RES1   0.0000
    58 H26      0.1985  -1.7140  18.9436   H         1 RES1   0.0000
    59 C26     -2.2500  -3.1502  19.0864   C.ar      1 RES1   0.0000
    60 C27     -2.8192  -1.8909  19.0623   C.ar      1 RES1   0.0000
    61 H27     -2.6831  -1.3185  18.3181   H         1 RES1   0.0000
    62 C28     -3.5905  -1.4753  20.1375   C.ar      1 RES1   0.0000
    63 H28     -3.9823  -0.6092  20.0989   H         1 RES1   0.0000
    64 C29     -3.2539  -3.4207  21.2424   C.ar      1 RES1   0.0000
    65 H29     -3.4088  -3.9741  21.9988   H         1 RES1   0.0000
    66 C30     -2.4595  -3.9166  20.2247   C.ar      1 RES1   0.0000
    67 H30     -2.0593  -4.7732  20.3035   H         1 RES1   0.0000
    68 N1       5.8339  -8.4559  11.9145   N.ar      1 RES1   0.0000
    69 N2       0.5255  -1.1271   8.3178   N.ar      1 RES1   0.0000
    70 N3      -3.8122  -2.2187  21.2208   N.ar      1 RES1   0.0000
    71 I1     -11.5364  -0.4978  27.0165   I         2 RES2   0.0000
    72 I2      -5.9987  -1.6880  22.8658   I         2 RES2   0.0000
    73 F1      -8.8867  -2.2431  27.3650   F         2 RES2   0.0000
    74 F2      -6.7908  -2.7000  25.7917   F         2 RES2   0.0000
    75 F3      -8.7291  -0.0107  22.4246   F         2 RES2   0.0000
    76 F4     -10.8221   0.4634  24.0055   F         2 RES2   0.0000
    77 C31     -9.9318  -0.8985  25.7295   C.ar      2 RES2   0.0000
    78 C32     -8.8775  -1.6892  26.1373   C.ar      2 RES2   0.0000
    79 C33     -7.7840  -1.9223  25.3229   C.ar      2 RES2   0.0000
    80 C34     -7.6929  -1.3708  24.0580   C.ar      2 RES2   0.0000
    81 C35     -8.7647  -0.5918  23.6403   C.ar      2 RES2   0.0000
    82 C36     -9.8454  -0.3520  24.4566   C.ar      2 RES2   0.0000
    83 Cl1      2.4951  -0.5687  13.5591   Cl        3 RES3   0.0000
    84 Cl2      4.2635  -1.6250  15.5551   Cl        3 RES3   0.0000
    85 Cl3      1.9453  -0.0684  16.3505   Cl        3 RES3   0.0000
    86 C37      2.5926  -1.2207  15.1974   C.3       3 RES3   0.0000
    87 H31      2.0456  -2.0564  15.2410   H         3 RES3   0.0000
@<TRIPOS>BOND
     1     1     2    1
     2     2    12   un
     3     3     1    1
     4     4     1    1
     5     5     1    1
     6     6     1    1
     7     7     1    1
     8     8     9    1
     9    10     8    1
    10    11     8    1
    11    12     8    1
    12    13    12   un
    13    14     3   un
    14    15    14    1
    15    16    15    1
    16    17    15    1
    17    18    15    1
    18    19    13    1
    19    20    19   ar
    20    21    20    1
    21    22    20   ar
    22    23    22    1
    23    24    25    1
    24    26    19   ar
    25    27    26    1
    26    28    29    1
    27    30    28    1
    28    31    28    1
    29    32     4   un
    30    33    32   un
    31    34     5   un
    32    35    34    1
    33    36    35    1
    34    37    35    1
    35    38    35    1
    36    39    33    1
    37    40    39   ar
    38    41    40    1
    39    42    40   ar
    40    43    42    1
    41    44    45    1
    42    46    39   ar
    43    47    46    1
    44    48    49    1
    45    50    48    1
    46    51    48    1
    47    52     6   un
    48    53    52   un
    49    54     7   un
    50    55    54    1
    51    56    55    1
    52    57    55    1
    53    58    55    1
    54    59    53    1
    55    60    59   ar
    56    61    60    1
    57    62    60   ar
    58    63    62    1
    59    64    65    1
    60    66    59   ar
    61    67    66    1
    62    68    22   ar
    63    69    42   ar
    64    70    62   ar
    65    13    14   un
    66    24    26   ar
    67    24    68   ar
    68    28    32    1
    69    33    34   un
    70    44    46   ar
    71    44    69   ar
    72    48    52    1
    73    53    54   un
    74    64    66   ar
    75    64    70   ar
    76    71    77    1
    77    72    80    1
    78    73    78    1
    79    74    79    1
    80    75    81    1
    81    76    82    1
    82    77    78   ar
    83    78    79   ar
    84    79    80   ar
    85    80    81   ar
    86    81    82   ar
    87    82    77   ar
    88    83    86    1
    89    84    86    1
    90    85    86    1
    91    86    87    1
@<TRIPOS>SUBSTRUCTURE
     1 RES1        1 GROUP             0 ****  ****    0  
     2 RES2       71 GROUP             0 ****  ****    0  
     3 RES3       83 GROUP             0 ****  ****    0  
@<TRIPOS>CRYSIN
    7.6330   16.4167   18.6385  113.3409   98.4034   95.2702     2     1
