@<TRIPOS>MOLECULE
XITLAQ
    82    91     3     0     0
SMALL
USER_CHARGES
****
Generated from the CSD

@<TRIPOS>ATOM
     1 Fe1      4.4325   5.8909   6.9662   Fe        1 RES1   2.0000
     2 N1       2.8590   8.1990   7.6460   N.pl3     1 RES1   0.0000
     3 N2       1.0700   6.8667   4.9041   N.pl3     1 RES1   0.0000
     4 N3       1.8607   6.1488   8.2263   N.pl3     1 RES1   0.0000
     5 N4       4.1379   7.7692   7.4756   N.2       1 RES1   0.0000
     6 N5       3.0690   6.1468   5.5801   N.2       1 RES1   0.0000
     7 N6       2.9873   5.3853   8.1940   N.2       1 RES1   0.0000
     8 C1       4.1234   9.8649   8.2744   C.2       1 RES1   0.0000
     9 H1       4.4307  10.7083   8.5856   H         1 RES1   0.0000
    10 C2       2.9059   5.7820   4.2490   C.ar      1 RES1   0.0000
    11 C3       3.2701   4.8337   2.1081   C.ar      1 RES1   0.0000
    12 H2       3.8206   4.3645   1.4920   H         1 RES1   0.0000
    13 C4       2.8246   9.4587   8.1460   C.2       1 RES1   0.0000
    14 H3       2.0491   9.9612   8.3648   H         1 RES1   0.0000
    15 C5       1.9929   5.2484   1.7024   C.ar      1 RES1   0.0000
    16 H4       1.6912   5.0309   0.8282   H         1 RES1   0.0000
    17 C6       3.7496   5.0883   3.3771   C.ar      1 RES1   0.0000
    18 H5       4.6156   4.8046   3.6462   H         1 RES1   0.0000
    19 C7       1.6455   6.2206   3.8225   C.ar      1 RES1   0.0000
    20 C8       4.9082   8.7845   7.8535   C.2       1 RES1   0.0000
    21 H6       5.8580   8.7779   7.8399   H         1 RES1   0.0000
    22 C9       2.7961   4.4377   9.1040   C.2       1 RES1   0.0000
    23 H7       3.4215   3.7535   9.3119   H         1 RES1   0.0000
    24 C10      0.9797   5.6900   9.1340   C.2       1 RES1   0.0000
    25 H8       0.1284   6.0617   9.3328   H         1 RES1   0.0000
    26 C11      1.9629   6.7790   5.9138   C.2       1 RES1   0.0000
    27 C12      1.5417   4.5872   9.7162   C.2       1 RES1   0.0000
    28 H9       1.1629   4.0381  10.3926   H         1 RES1   0.0000
    29 C13      1.1623   5.9643   2.5409   C.ar      1 RES1   0.0000
    30 H10      0.3070   6.2664   2.2592   H         1 RES1   0.0000
    31 C14      1.7813   7.2774   7.3211   C.3       1 RES1   0.0000
    32 H11      0.8964   7.7337   7.4146   H         1 RES1   0.0000
    33 C15     -0.2821   7.4096   4.9545   C.3       1 RES1   0.0000
    34 H12     -0.7034   7.3196   4.0743   H         1 RES1   0.0000
    35 H13     -0.2446   8.3570   5.2032   H         1 RES1   0.0000
    36 H14     -0.8072   6.9179   5.6199   H         1 RES1   0.0000
    37 N1B      6.0059   3.5828   6.2865   N.pl3     1 RES1   0.0000
    38 N2B      7.7949   4.9151   9.0284   N.pl3     1 RES1   0.0000
    39 N3B      7.0042   5.6330   5.7062   N.pl3     1 RES1   0.0000
    40 N4B      4.7270   4.0126   6.4569   N.2       1 RES1   0.0000
    41 N5B      5.7959   5.6350   8.3524   N.2       1 RES1   0.0000
    42 N6B      5.8776   6.3965   5.7385   N.2       1 RES1   0.0000
    43 C1B      4.7415   1.9169   5.6581   C.2       1 RES1   0.0000
    44 H1B      4.4342   1.0735   5.3469   H         1 RES1   0.0000
    45 C2B      5.9590   5.9998   9.6835   C.ar      1 RES1   0.0000
    46 C3B      5.5948   6.9481  11.8244   C.ar      1 RES1   0.0000
    47 H2B      5.0443   7.4173  12.4404   H         1 RES1   0.0000
    48 C4B      6.0403   2.3231   5.7864   C.2       1 RES1   0.0000
    49 H3B      6.8158   1.8206   5.5676   H         1 RES1   0.0000
    50 C5B      6.8720   6.5334  12.2301   C.ar      1 RES1   0.0000
    51 H4B      7.1737   6.7509  13.1043   H         1 RES1   0.0000
    52 C6B      5.1153   6.6935  10.5554   C.ar      1 RES1   0.0000
    53 H5B      4.2493   6.9772  10.2863   H         1 RES1   0.0000
    54 C7B      7.2194   5.5612  10.1100   C.ar      1 RES1   0.0000
    55 C8B      3.9567   2.9973   6.0790   C.2       1 RES1   0.0000
    56 H6B      3.0069   3.0039   6.0926   H         1 RES1   0.0000
    57 C9B      6.0688   7.3441   4.8284   C.2       1 RES1   0.0000
    58 H7B      5.4434   8.0283   4.6205   H         1 RES1   0.0000
    59 C10B     7.8852   6.0918   4.7985   C.2       1 RES1   0.0000
    60 H8B      8.7365   5.7201   4.5997   H         1 RES1   0.0000
    61 C11B     6.9020   5.0028   8.0187   C.2       1 RES1   0.0000
    62 C12B     7.3232   7.1946   4.2163   C.2       1 RES1   0.0000
    63 H9B      7.7020   7.7437   3.5399   H         1 RES1   0.0000
    64 C13B     7.7026   5.8175  11.3916   C.ar      1 RES1   0.0000
    65 H10B     8.5579   5.5154  11.6733   H         1 RES1   0.0000
    66 C14B     7.0836   4.5044   6.6114   C.3       1 RES1   0.0000
    67 H11B     7.9685   4.0481   6.5179   H         1 RES1   0.0000
    68 C15B     9.1470   4.3722   8.9780   C.3       1 RES1   0.0000
    69 H12B     9.5683   4.4622   9.8582   H         1 RES1   0.0000
    70 H13B     9.1095   3.4248   8.7293   H         1 RES1   0.0000
    71 H14B     9.6721   4.8639   8.3126   H         1 RES1   0.0000
    72 Cl1     -0.4136   3.2731   5.5988   Cl        2 RES2   0.0000
    73 O1       0.5082   2.2593   5.1768   O.2       2 RES2   0.0000
    74 O2      -1.4994   2.6594   6.3201   O.3       2 RES2  -1.0000
    75 O3       0.2515   4.2213   6.4353   O.2       2 RES2   0.0000
    76 O4      -0.9341   3.9476   4.4446   O.2       2 RES2   0.0000
    77 N7       3.3372  -2.2807   4.5268   N.1       3 RES3   0.0000
    78 C16      2.4192  -1.7013   4.8645   C.1       3 RES3   0.0000
    79 C17      1.2356  -0.9614   5.2783   C.3       3 RES3   0.0000
    80 H15      0.5344  -1.0622   4.6012   H         3 RES3   0.0000
    81 H16      1.4609  -0.0128   5.3767   H         3 RES3   0.0000
    82 H17      0.9148  -1.3117   6.1355   H         3 RES3   0.0000
@<TRIPOS>BOND
     1     1     5    1
     2     2     5    1
     3     3    19    1
     4     4     7    1
     5     5    20    2
     6     6     1    1
     7     7     1    1
     8     8     9    1
     9    10     6    1
    10    11    12    1
    11    13     2    1
    12    14    13    1
    13    15    11   ar
    14    16    15    1
    15    17    10   ar
    16    18    17    1
    17    19    10   ar
    18    20     8    1
    19    21    20    1
    20    22     7    2
    21    23    22    1
    22    24     4    1
    23    25    24    1
    24    26     3    1
    25    27    22    1
    26    28    27    1
    27    29    15   ar
    28    30    29    1
    29    31     2    1
    30    32    31    1
    31    33     3    1
    32    34    33    1
    33    35    33    1
    34    36    33    1
    35    37    40    1
    36    38    54    1
    37    39    42    1
    38    40     1    1
    39    41     1    1
    40    42     1    1
    41    43    44    1
    42    45    41    1
    43    46    47    1
    44    48    37    1
    45    49    48    1
    46    50    46   ar
    47    51    50    1
    48    52    45   ar
    49    53    52    1
    50    54    45   ar
    51    55    40    2
    52    56    55    1
    53    57    42    2
    54    58    57    1
    55    59    39    1
    56    60    59    1
    57    61    38    1
    58    62    57    1
    59    63    62    1
    60    64    50   ar
    61    65    64    1
    62    66    37    1
    63    67    66    1
    64    68    38    1
    65    69    68    1
    66    70    68    1
    67    71    68    1
    68     4    31    1
    69     6    26    2
    70     8    13    2
    71    11    17   ar
    72    19    29   ar
    73    24    27    2
    74    26    31    1
    75    39    66    1
    76    41    61    2
    77    43    48    2
    78    43    55    1
    79    46    52   ar
    80    54    64   ar
    81    59    62    2
    82    61    66    1
    83    72    73    2
    84    74    72    1
    85    75    72    2
    86    76    72    2
    87    77    78    3
    88    78    79    1
    89    79    80    1
    90    81    79    1
    91    82    79    1
@<TRIPOS>SUBSTRUCTURE
     1 RES1        1 GROUP             0 ****  ****    0  
     2 RES2       72 GROUP             0 ****  ****    0  
     3 RES3       77 GROUP             0 ****  ****    0  
@<TRIPOS>CRYSIN
   11.3128   11.7818   14.1459   90.0000   99.9650   90.0000    14     1
