@<TRIPOS>MOLECULE
XIVMEV
    83    91     2     0     0
SMALL
USER_CHARGES
****
Generated from the CSD

@<TRIPOS>ATOM
     1 Fe1      2.1990   9.8053   4.8490   Fe        1 RES1   1.0000
     2 O1       1.2789   8.7647   6.1605   O.3       1 RES1   0.0000
     3 O2      -1.9473  11.5725   6.2439   O.3       1 RES1   0.0000
     4 O3       2.7391   8.3725   3.7109   O.3       1 RES1   0.0000
     5 O4       6.6605  10.0894   3.3122   O.3       1 RES1   0.0000
     6 N1       0.3905  10.2028   3.8554   N.2       1 RES1   0.0000
     7 N2      -1.8061  10.1038   3.8115   N.pl3     1 RES1   0.0000
     8 N3       0.4549  12.3218   7.6364   N.pl3     1 RES1   0.0000
     9 N4       1.6356  11.5405   5.9527   N.2       1 RES1   0.0000
    10 N5       4.0445   9.7296   5.8078   N.2       1 RES1   0.0000
    11 N6       6.1468   9.0953   5.9450   N.pl3     1 RES1   0.0000
    12 N7       4.5375  11.2431   1.7590   N.pl3     1 RES1   0.0000
    13 N8       3.2242  11.1358   3.5266   N.2       1 RES1   0.0000
    14 C1      -0.0086   9.8493   2.5773   C.2       1 RES1   0.0000
    15 H1       0.5724   9.6746   1.8453   H         1 RES1   0.0000
    16 C2      -1.3612   9.7930   2.5397   C.2       1 RES1   0.0000
    17 H2      -1.8998   9.5817   1.7856   H         1 RES1   0.0000
    18 C3      -0.7165  10.3698   4.5756   C.2       1 RES1   0.0000
    19 C4      -0.7840  10.7752   6.0461   C.3       1 RES1   0.0000
    20 C5       0.4370  11.5608   6.5157   C.2       1 RES1   0.0000
    21 C6       1.7331  12.8212   7.7691   C.2       1 RES1   0.0000
    22 H3       2.0479  13.3998   8.4543   H         1 RES1   0.0000
    23 C7       2.4534  12.3296   6.7363   C.2       1 RES1   0.0000
    24 H4       3.3736  12.5003   6.5762   H         1 RES1   0.0000
    25 C8      -0.8953   9.5156   6.9035   C.ar      1 RES1   0.0000
    26 C9      -2.0260   9.2651   7.6872   C.ar      1 RES1   0.0000
    27 H5      -2.7511   9.8787   7.6722   H         1 RES1   0.0000
    28 C10     -2.1045   8.1342   8.4845   C.ar      1 RES1   0.0000
    29 H6      -2.8791   7.9660   9.0090   H         1 RES1   0.0000
    30 C11     -1.0341   7.2499   8.5061   C.ar      1 RES1   0.0000
    31 H7      -1.0779   6.4774   9.0572   H         1 RES1   0.0000
    32 C12      0.0955   7.4730   7.7381   C.ar      1 RES1   0.0000
    33 H8       0.8133   6.8514   7.7705   H         1 RES1   0.0000
    34 C13      0.1943   8.6046   6.9135   C.ar      1 RES1   0.0000
    35 C14     -3.2207  10.0327   4.2044   C.3       1 RES1   0.0000
    36 H9      -3.2928   9.6221   5.0911   H         1 RES1   0.0000
    37 H10     -3.7129   9.4913   3.5520   H         1 RES1   0.0000
    38 H11     -3.5983  10.9359   4.2300   H         1 RES1   0.0000
    39 C15     -0.5996  12.5355   8.6369   C.3       1 RES1   0.0000
    40 H12     -1.3079  13.0918   8.2501   H         1 RES1   0.0000
    41 H13     -0.2205  12.9867   9.4193   H         1 RES1   0.0000
    42 H14     -0.9734  11.6704   8.9069   H         1 RES1   0.0000
    43 C16     -1.9441  12.7993   5.4854   C.3       1 RES1   0.0000
    44 H15     -1.1927  13.3594   5.7729   H         1 RES1   0.0000
    45 H16     -2.7863  13.2788   5.6362   H         1 RES1   0.0000
    46 H17     -1.8507  12.5931   4.5324   H         1 RES1   0.0000
    47 C17      4.3148   9.3701   7.1105   C.2       1 RES1   0.0000
    48 H18      3.6918   9.3935   7.8282   H         1 RES1   0.0000
    49 C18      5.5961   8.9812   7.2061   C.2       1 RES1   0.0000
    50 H19      6.0398   8.6847   7.9920   H         1 RES1   0.0000
    51 C19      5.1715   9.5613   5.1250   C.2       1 RES1   0.0000
    52 C20      5.3258   9.7084   3.6123   C.3       1 RES1   0.0000
    53 C21      4.3643  10.7161   2.9990   C.2       1 RES1   0.0000
    54 C22      3.4472  12.0564   1.5086   C.2       1 RES1   0.0000
    55 H20      3.2895  12.5687   0.7243   H         1 RES1   0.0000
    56 C23      2.6498  11.9811   2.5985   C.2       1 RES1   0.0000
    57 H21      1.8238  12.4379   2.7083   H         1 RES1   0.0000
    58 C24      5.0483   8.3382   2.9762   C.ar      1 RES1   0.0000
    59 C25      6.0468   7.6518   2.2843   C.ar      1 RES1   0.0000
    60 H22      6.9110   8.0381   2.2036   H         1 RES1   0.0000
    61 C26      5.7971   6.4160   1.7136   C.ar      1 RES1   0.0000
    62 H23      6.4878   5.9580   1.2501   H         1 RES1   0.0000
    63 C27      4.5391   5.8489   1.8191   C.ar      1 RES1   0.0000
    64 H24      4.3684   4.9999   1.4293   H         1 RES1   0.0000
    65 C28      3.5276   6.5173   2.4912   C.ar      1 RES1   0.0000
    66 H25      2.6673   6.1194   2.5523   H         1 RES1   0.0000
    67 C29      3.7499   7.7729   3.0831   C.ar      1 RES1   0.0000
    68 C30      7.5218   8.6957   5.6475   C.3       1 RES1   0.0000
    69 H26      7.5267   8.0883   4.8792   H         1 RES1   0.0000
    70 H27      7.9045   8.2398   6.4259   H         1 RES1   0.0000
    71 H28      8.0551   9.4913   5.4397   H         1 RES1   0.0000
    72 C31      5.6005  10.9774   0.7734   C.3       1 RES1   0.0000
    73 H29      6.4462  11.3539   1.0960   H         1 RES1   0.0000
    74 H30      5.3636  11.3918  -0.0828   H         1 RES1   0.0000
    75 H31      5.6987  10.0107   0.6511   H         1 RES1   0.0000
    76 C32      7.0329  11.4009   3.7799   C.3       1 RES1   0.0000
    77 H32      6.4253  12.0688   3.3979   H         1 RES1   0.0000
    78 H33      7.9516  11.5983   3.5019   H         1 RES1   0.0000
    79 H34      6.9755  11.4272   4.7578   H         1 RES1   0.0000
    80 O5       1.4181   3.3217   9.6401   O.3       2 RES2  -1.0000
    81 O6       3.4585   3.0851   9.0111   O.2       2 RES2   0.0000
    82 O7       2.3266   4.8151   8.3659   O.2       2 RES2   0.0000
    83 N9       2.4134   3.7525   8.9967   N.pl3     2 RES2   0.0000
@<TRIPOS>BOND
     1     1     2    1
     2     2    34    1
     3     3    19    1
     4     4     1    1
     5     5    52    1
     6     6     1    1
     7     7    16    1
     8     8    20    1
     9     9     1    1
    10    10     1    1
    11    11    49    1
    12    12    53    1
    13    13     1    1
    14    14     6    1
    15    15    14    1
    16    16    14    2
    17    17    16    1
    18    18     6    2
    19    19    18    1
    20    20     9    2
    21    21     8    1
    22    22    21    1
    23    23     9    1
    24    24    23    1
    25    25    19    1
    26    26    25   ar
    27    27    26    1
    28    28    26   ar
    29    29    28    1
    30    30    28   ar
    31    31    30    1
    32    32    30   ar
    33    33    32    1
    34    34    25   ar
    35    35     7    1
    36    36    35    1
    37    37    35    1
    38    38    35    1
    39    39     8    1
    40    40    39    1
    41    41    39    1
    42    42    39    1
    43    43     3    1
    44    44    43    1
    45    45    43    1
    46    46    43    1
    47    47    10    1
    48    48    47    1
    49    49    47    2
    50    50    49    1
    51    51    10    2
    52    52    51    1
    53    53    13    2
    54    54    12    1
    55    55    54    1
    56    56    13    1
    57    57    56    1
    58    58    52    1
    59    59    58   ar
    60    60    59    1
    61    61    59   ar
    62    62    61    1
    63    63    61   ar
    64    64    63    1
    65    65    63   ar
    66    66    65    1
    67    67     4    1
    68    68    11    1
    69    69    68    1
    70    70    68    1
    71    71    68    1
    72    72    12    1
    73    73    72    1
    74    74    72    1
    75    75    72    1
    76    76     5    1
    77    77    76    1
    78    78    76    1
    79    79    76    1
    80     7    18    1
    81    11    51    1
    82    19    20    1
    83    21    23    2
    84    32    34   ar
    85    52    53    1
    86    54    56    2
    87    58    67   ar
    88    65    67   ar
    89    80    83    1
    90    81    83    2
    91    82    83    2
@<TRIPOS>SUBSTRUCTURE
     1 RES1        1 GROUP             0 ****  ****    0  
     2 RES2       80 GROUP             0 ****  ****    0  
@<TRIPOS>CRYSIN
   13.9987   12.2216   19.6864   90.0000  101.9129   90.0000    14     1
