@<TRIPOS>MOLECULE
XIWZAI
    85    91     4     0     0
SMALL
USER_CHARGES
****
Generated from the CSD

@<TRIPOS>ATOM
     1 Fe1      7.4834  10.0346   4.1549   Fe        1 RES1   2.0000
     2 N1       5.7889   9.0048   4.1102   N.ar      1 RES1   0.0000
     3 N2       7.8816   8.8445   2.7351   N.2       1 RES1   0.0000
     4 N3       9.3892  10.6664   3.7873   N.ar      1 RES1   0.0000
     5 N4       6.7507  11.3900   2.9205   N.ar      1 RES1   0.0000
     6 N5       6.8073  11.2684   5.4314   N.2       1 RES1   0.0000
     7 N6       8.0704   9.0371   5.8379   N.ar      1 RES1   0.0000
     8 C1       4.7146   9.0951   4.9158   C.ar      1 RES1   0.0000
     9 H1       4.7115   9.7514   5.6023   H         1 RES1   0.0000
    10 C2       3.6137   8.2687   4.7783   C.ar      1 RES1   0.0000
    11 H2       2.8770   8.3573   5.3718   H         1 RES1   0.0000
    12 C3       3.5857   7.3152   3.7814   C.ar      1 RES1   0.0000
    13 H3       2.8425   6.7304   3.6908   H         1 RES1   0.0000
    14 C4       4.6657   7.2290   2.9160   C.ar      1 RES1   0.0000
    15 H4       4.6650   6.5997   2.2041   H         1 RES1   0.0000
    16 C5       5.7502   8.0783   3.1058   C.ar      1 RES1   0.0000
    17 C6       6.9525   8.0585   2.3122   C.2       1 RES1   0.0000
    18 H5       7.0513   7.5126   1.5421   H         1 RES1   0.0000
    19 C7       9.1436   8.9836   2.1179   C.ar      1 RES1   0.0000
    20 C8       9.6262   8.2244   1.0746   C.ar      1 RES1   0.0000
    21 H6       9.0792   7.5640   0.6665   H         1 RES1   0.0000
    22 C9      10.9344   8.4421   0.6233   C.ar      1 RES1   0.0000
    23 H7      11.2768   7.9189  -0.0920   H         1 RES1   0.0000
    24 C10     11.7175   9.3854   1.1957   C.ar      1 RES1   0.0000
    25 H8      12.6026   9.5145   0.8754   H         1 RES1   0.0000
    26 C11     11.2449  10.1759   2.2494   C.ar      1 RES1   0.0000
    27 C12     12.0168  11.1583   2.8965   C.ar      1 RES1   0.0000
    28 H9      12.9085  11.3308   2.6169   H         1 RES1   0.0000
    29 C13     11.4825  11.8440   3.9099   C.ar      1 RES1   0.0000
    30 H10     12.0053  12.5122   4.3371   H         1 RES1   0.0000
    31 C14     10.1534  11.6110   4.3717   C.ar      1 RES1   0.0000
    32 C15      9.9349   9.9729   2.7336   C.ar      1 RES1   0.0000
    33 C16      9.6178  12.4236   5.4942   C.3       1 RES1   0.0000
    34 H11      8.8536  12.9509   5.1800   H         1 RES1   0.0000
    35 H12     10.3164  13.0253   5.8247   H         1 RES1   0.0000
    36 H13      9.3284  11.8295   6.2182   H         1 RES1   0.0000
    37 C17      6.7860  11.4439   1.5843   C.ar      1 RES1   0.0000
    38 H14      7.2616  10.7686   1.1139   H         1 RES1   0.0000
    39 C18      6.1604  12.4386   0.8579   C.ar      1 RES1   0.0000
    40 H15      6.1817  12.4190  -0.0921   H         1 RES1   0.0000
    41 C19      5.5117  13.4513   1.5051   C.ar      1 RES1   0.0000
    42 H16      5.0822  14.1408   1.0131   H         1 RES1   0.0000
    43 C20      5.4884  13.4569   2.8936   C.ar      1 RES1   0.0000
    44 H17      5.0513  14.1536   3.3688   H         1 RES1   0.0000
    45 C21      6.1123  12.4277   3.5661   C.ar      1 RES1   0.0000
    46 C22      6.1435  12.2952   5.0099   C.2       1 RES1   0.0000
    47 H18      5.7134  12.9081   5.5951   H         1 RES1   0.0000
    48 C23      6.9593  10.9292   6.7990   C.ar      1 RES1   0.0000
    49 C24      6.5261  11.6579   7.8766   C.ar      1 RES1   0.0000
    50 H19      6.0735  12.4813   7.7384   H         1 RES1   0.0000
    51 C25      6.7434  11.1959   9.1754   C.ar      1 RES1   0.0000
    52 H20      6.4274  11.6941   9.9197   H         1 RES1   0.0000
    53 C26      7.4178  10.0200   9.3682   C.ar      1 RES1   0.0000
    54 H21      7.5693   9.7125  10.2548   H         1 RES1   0.0000
    55 C27      7.8893   9.2556   8.2861   C.ar      1 RES1   0.0000
    56 C28      8.6102   8.0577   8.4236   C.ar      1 RES1   0.0000
    57 H22      8.8030   7.7125   9.2875   H         1 RES1   0.0000
    58 C29      9.0274   7.3996   7.3206   C.ar      1 RES1   0.0000
    59 H23      9.5129   6.5887   7.4147   H         1 RES1   0.0000
    60 C30      8.7524   7.9060   6.0248   C.ar      1 RES1   0.0000
    61 C31      7.6438   9.7183   6.9694   C.ar      1 RES1   0.0000
    62 C32      9.2405   7.1305   4.8575   C.3       1 RES1   0.0000
    63 H24      8.4751   6.7887   4.3498   H         1 RES1   0.0000
    64 H25      9.7867   6.3796   5.1704   H         1 RES1   0.0000
    65 H26      9.7811   7.7113   4.2830   H         1 RES1   0.0000
    66 P1       8.0537   4.1763   1.4124   P.3       2 RES2  -1.0000
    67 F1       8.3723   5.3182   0.3617   F         2 RES2   0.0000
    68 F2       7.7350   3.0281   2.4422   F         2 RES2   0.0000
    69 F3       9.5853   4.0417   1.7651   F         2 RES2   0.0000
    70 F4       8.2647   3.1024   0.2735   F         2 RES2   0.0000
    71 F5       6.5348   4.2566   0.9999   F         2 RES2   0.0000
    72 F6       7.8590   5.2480   2.5334   F         2 RES2   0.0000
    73 P2       2.6651  10.6014   8.2691   P.3       3 RES3  -1.0000
    74 F7       3.3258  11.6607   7.2563   F         3 RES3   0.0000
    75 F8       2.0255   9.5514   9.2561   F         3 RES3   0.0000
    76 F9       3.8550   9.6189   7.9543   F         3 RES3   0.0000
    77 F10      1.8340  10.0015   7.0545   F         3 RES3   0.0000
    78 F11      1.5120  11.6334   8.5686   F         3 RES3   0.0000
    79 F12      3.5236  11.2287   9.4624   F         3 RES3   0.0000
    80 N7       5.0751   0.9036   1.6994   N.1       4 RES4   0.0000
    81 C33      4.6900   1.8550   2.2389   C.1       4 RES4   0.0000
    82 C34      4.1963   3.0594   2.8637   C.3       4 RES4   0.0000
    83 H27      3.3731   3.3463   2.4167   H         4 RES4   0.0000
    84 H28      4.8716   3.7662   2.7896   H         4 RES4   0.0000
    85 H29      4.0105   2.8841   3.8100   H         4 RES4   0.0000
@<TRIPOS>BOND
     1     1     2    1
     2     2     8   ar
     3     3     1    1
     4     4     1    1
     5     5     1    1
     6     6     1    1
     7     7     1    1
     8     8     9    1
     9    10     8   ar
    10    11    10    1
    11    12    10   ar
    12    13    12    1
    13    14    12   ar
    14    15    14    1
    15    16     2   ar
    16    17     3    2
    17    18    17    1
    18    19     3    1
    19    20    19   ar
    20    21    20    1
    21    22    20   ar
    22    23    22    1
    23    24    22   ar
    24    25    24    1
    25    26    24   ar
    26    27    26   ar
    27    28    27    1
    28    29    27   ar
    29    30    29    1
    30    31     4   ar
    31    32     4   ar
    32    33    31    1
    33    34    33    1
    34    35    33    1
    35    36    33    1
    36    37     5   ar
    37    38    37    1
    38    39    37   ar
    39    40    39    1
    40    41    39   ar
    41    42    41    1
    42    43    41   ar
    43    44    43    1
    44    45     5   ar
    45    46     6    2
    46    47    46    1
    47    48     6    1
    48    49    48   ar
    49    50    49    1
    50    51    49   ar
    51    52    51    1
    52    53    51   ar
    53    54    53    1
    54    55    53   ar
    55    56    55   ar
    56    57    56    1
    57    58    56   ar
    58    59    58    1
    59    60     7   ar
    60    61     7   ar
    61    62    60    1
    62    63    62    1
    63    64    62    1
    64    65    62    1
    65    14    16   ar
    66    16    17    1
    67    19    32   ar
    68    26    32   ar
    69    29    31   ar
    70    43    45   ar
    71    45    46    1
    72    48    61   ar
    73    55    61   ar
    74    58    60   ar
    75    66    67    1
    76    68    66    1
    77    69    66    1
    78    70    66    1
    79    71    66    1
    80    72    66    1
    81    73    74    1
    82    75    73    1
    83    76    73    1
    84    77    73    1
    85    78    73    1
    86    79    73    1
    87    80    81    3
    88    81    82    1
    89    82    83    1
    90    84    82    1
    91    85    82    1
@<TRIPOS>SUBSTRUCTURE
     1 RES1        1 GROUP             0 ****  ****    0  
     2 RES2       66 GROUP             0 ****  ****    0  
     3 RES3       73 GROUP             0 ****  ****    0  
     4 RES4       80 GROUP             0 ****  ****    0  
@<TRIPOS>CRYSIN
    9.3461   13.2991   15.0465   83.4940   86.7450   71.2900     2     1
