@<TRIPOS>MOLECULE
XOBLEI
    91    99     1     0     0
SMALL
NO_CHARGES
****
Generated from the CSD

@<TRIPOS>ATOM
     1 Fe1     -2.1255   1.0807   8.1617   Fe        1 RES1   0.0000
     2 O1      -1.5422   2.3614   9.7866   O.3       1 RES1   0.0000
     3 O2       3.9958  -5.5262  10.0641   O.2       1 RES1   0.0000
     4 O3      -3.8376   1.7835   7.3820   O.3       1 RES1   0.0000
     5 O4       4.8384  -5.2087   7.8451   O.3       1 RES1   0.0000
     6 O5      -3.0906   0.5482  10.3275   O.3       1 RES1   0.0000
     7 O6      -0.7715  -5.4456   0.6616   O.2       1 RES1   0.0000
     8 O7      -0.9850  -6.8681   2.4097   O.3       1 RES1   0.0000
     9 O8      -1.6612   2.4929   6.3707   O.3       1 RES1   0.0000
    10 N1      -2.3897  -0.6428   6.7853   N.2       1 RES1   0.0000
    11 N2      -7.5524  -0.3103   3.6762   N.2       1 RES1   0.0000
    12 N3      -0.2992   0.0599   8.3684   N.2       1 RES1   0.0000
    13 N4      -8.5685   0.3920   3.4359   N.2       1 RES1   0.0000
    14 N5       3.0454   2.9213  12.8390   N.2       1 RES1   0.0000
    15 N6       3.1151   3.8819  13.7881   N.2       1 RES1   0.0000
    16 C1       0.6425   0.4483   9.1855   C.2       1 RES1   0.0000
    17 C2      -5.8598   2.0319   6.1925   C.ar      1 RES1   0.0000
    18 C3      -6.8050   1.5526   5.2838   C.ar      1 RES1   0.0000
    19 C4      -6.6492   0.2750   4.6172   C.ar      1 RES1   0.0000
    20 C5      -5.5231  -0.4765   4.9007   C.ar      1 RES1   0.0000
    21 C6       1.7583   1.7837  11.0587   C.ar      1 RES1   0.0000
    22 C7       1.8606   2.8309  12.1089   C.ar      1 RES1   0.0000
    23 C8      -0.3321   3.5395  11.5843   C.ar      1 RES1   0.0000
    24 C9       0.7851   3.7166  12.3641   C.ar      1 RES1   0.0000
    25 C10     -1.3550  -1.6777   6.9804   C.3       1 RES1   0.0000
    26 C11     -0.1059  -1.0626   7.2538   C.3       1 RES1   0.0000
    27 C12      0.9671  -2.0678   7.6824   C.ar      1 RES1   0.0000
    28 C13      0.9942  -2.6822   9.0643   C.ar      1 RES1   0.0000
    29 C14      1.9646  -3.6169   9.4370   C.ar      1 RES1   0.0000
    30 C15      2.9332  -3.9567   8.4356   C.ar      1 RES1   0.0000
    31 C16      2.9190  -3.3447   7.0610   C.ar      1 RES1   0.0000
    32 C17      1.9428  -2.4077   6.6954   C.ar      1 RES1   0.0000
    33 C18     -1.2604  -2.7240   5.6774   C.ar      1 RES1   0.0000
    34 C19     -1.1073  -2.4262   4.1606   C.ar      1 RES1   0.0000
    35 C20     -1.3119  -4.0077   5.9724   C.ar      1 RES1   0.0000
    36 C21     -0.9980  -3.3882   2.9794   C.ar      1 RES1   0.0000
    37 C22     -1.0424  -4.6722   3.2887   C.ar      1 RES1   0.0000
    38 C23     -1.2025  -4.9781   4.7937   C.ar      1 RES1   0.0000
    39 C24     -0.9184  -5.6633   1.9831   C.2       1 RES1   0.0000
    40 C25     -9.4737  -0.2046   2.4857   C.ar      1 RES1   0.0000
    41 C26     -9.3033  -1.4701   1.8256   C.ar      1 RES1   0.0000
    42 C27    -10.2616  -1.9526   0.9099   C.ar      1 RES1   0.0000
    43 C28    -11.3949  -1.1873   0.6406   C.ar      1 RES1   0.0000
    44 C29    -11.5661   0.0696   1.2945   C.ar      1 RES1   0.0000
    45 C30    -10.6087   0.5589   2.2135   C.ar      1 RES1   0.0000
    46 C31      3.9467  -4.9642   8.8894   C.2       1 RES1   0.0000
    47 C32      5.3684   3.0761  14.2615   C.ar      1 RES1   0.0000
    48 C33      6.4970   3.2592  15.0497   C.ar      1 RES1   0.0000
    49 C34      6.5892   4.3230  16.0987   C.ar      1 RES1   0.0000
    50 C35      5.5416   5.2074  16.3572   C.ar      1 RES1   0.0000
    51 C36      4.4073   5.0290  15.5706   C.ar      1 RES1   0.0000
    52 C37     -3.4122  -0.8894   6.0287   C.2       1 RES1   0.0000
    53 C38     -4.5348  -0.0137   5.8222   C.ar      1 RES1   0.0000
    54 C39     -4.6952   1.2792   6.5028   C.ar      1 RES1   0.0000
    55 C40     -0.4612   2.4731  10.4986   C.ar      1 RES1   0.0000
    56 C41      0.6271   1.5722  10.2442   C.ar      1 RES1   0.0000
    57 C42      4.3120   3.9657  14.5198   C.ar      1 RES1   0.0000
    58 H1       7.3132   2.5711  14.8502   H         1 RES1   0.0000
    59 H2       7.4749   4.4585  16.7098   H         1 RES1   0.0000
    60 H3      -8.4201  -2.0482   2.0463   H         1 RES1   0.0000
    61 H4       5.2795   2.2586  13.4460   H         1 RES1   0.0000
    62 H5      -1.5043  -2.1185   8.0472   H         1 RES1   0.0000
    63 H6     -10.1296  -2.9307   0.3993   H         1 RES1   0.0000
    64 H7     -12.1388  -1.5721  -0.0769   H         1 RES1   0.0000
    65 H8       1.5605  -0.1071   9.0960   H         1 RES1   0.0000
    66 H9      -1.4320  -4.2525   7.1392   H         1 RES1   0.0000
    67 H10     -3.9353   0.8888  10.0081   H         1 RES1   0.0000
    68 H11     -2.7396   1.2805  10.8703   H         1 RES1   0.0000
    69 H12     -0.8791  -3.1659   1.8058   H         1 RES1   0.0000
    70 H13     -2.5613   2.7251   6.2391   H         1 RES1   0.0000
    71 H14      0.2573  -2.4169   9.8593   H         1 RES1   0.0000
    72 H15     -5.4167  -1.4531   4.3814   H         1 RES1   0.0000
    73 H16      1.9357  -1.9394   5.6238   H         1 RES1   0.0000
    74 H17      2.5897   1.1125  10.8758   H         1 RES1   0.0000
    75 H18     -1.1602   4.2137  11.7676   H         1 RES1   0.0000
    76 H19     -1.3836   3.1486   7.1149   H         1 RES1   0.0000
    77 H20     -3.4672  -1.8503   5.4720   H         1 RES1   0.0000
    78 H21     -5.9705   3.0074   6.7121   H         1 RES1   0.0000
    79 H22    -10.7155   1.5326   2.7367   H         1 RES1   0.0000
    80 H23     -1.2413  -5.9690   5.0376   H         1 RES1   0.0000
    81 H24      0.8701   4.5323  13.1846   H         1 RES1   0.0000
    82 H25      3.5774   5.7008  15.7488   H         1 RES1   0.0000
    83 H26     -7.6857   2.1348   5.0592   H         1 RES1   0.0000
    84 H27      1.9917  -4.0958  10.5013   H         1 RES1   0.0000
    85 H28     -0.8932  -7.4282   1.4717   H         1 RES1   0.0000
    86 H29     -1.0866  -1.4333   3.9018   H         1 RES1   0.0000
    87 H30      3.6679  -3.6014   6.2855   H         1 RES1   0.0000
    88 H31    -12.4431   0.6671   1.0889   H         1 RES1   0.0000
    89 H32      5.6081   6.0338  17.1697   H         1 RES1   0.0000
    90 H33      0.0811  -0.6882   6.1587   H         1 RES1   0.0000
    91 H34      5.4449  -5.8757   8.2600   H         1 RES1   0.0000
@<TRIPOS>BOND
     1     1     2    1
     2     2    55    1
     3     3    46    2
     4     4     1    1
     5     5    46    1
     6     6     1    1
     7     7    39    2
     8     8    39    1
     9     9     1    1
    10    10     1    1
    11    11    13    2
    12    12     1    1
    13    13    40    1
    14    14    15    2
    15    15    57    1
    16    16    12    2
    17    17    18   ar
    18    18    19   ar
    19    19    11    1
    20    20    19   ar
    21    21    22   ar
    22    22    14    1
    23    23    24   ar
    24    24    22   ar
    25    25    10    1
    26    26    12    1
    27    27    26    1
    28    28    27   ar
    29    29    28   ar
    30    30    29   ar
    31    31    30   ar
    32    32    27   ar
    33    33    25    1
    34    34    33   ar
    35    35    33   ar
    36    36    34   ar
    37    37    36   ar
    38    38    35   ar
    39    39    37    1
    40    40    41   ar
    41    41    42   ar
    42    42    43   ar
    43    43    44   ar
    44    44    45   ar
    45    45    40   ar
    46    46    30    1
    47    47    48   ar
    48    48    49   ar
    49    49    50   ar
    50    50    51   ar
    51    51    57   ar
    52    52    10    2
    53    53    20   ar
    54    54     4    1
    55    55    23   ar
    56    56    16    1
    57    57    47   ar
    58    58    48    1
    59    59    49    1
    60    60    41    1
    61    61    47    1
    62    62    25    1
    63    63    42    1
    64    64    43    1
    65    65    16    1
    66    66    35    1
    67    67     6    1
    68    68     6    1
    69    69    36    1
    70    70     9    1
    71    71    28    1
    72    72    20    1
    73    73    32    1
    74    74    21    1
    75    75    23    1
    76    76     9    1
    77    77    52    1
    78    78    17    1
    79    79    45    1
    80    80    38    1
    81    81    24    1
    82    82    51    1
    83    83    18    1
    84    84    29    1
    85    85     8    1
    86    86    34    1
    87    87    31    1
    88    88    44    1
    89    89    50    1
    90    90    26    1
    91    91     5    1
    92    17    54   ar
    93    21    56   ar
    94    25    26    1
    95    31    32   ar
    96    37    38   ar
    97    52    53    1
    98    53    54   ar
    99    55    56   ar
@<TRIPOS>SUBSTRUCTURE
     1 RES1        1 GROUP             0 ****  ****    0  
@<TRIPOS>CRYSIN
   10.9300   14.6600   11.7100   94.1800  107.1000   86.3500     1     1
