@<TRIPOS>MOLECULE
XOFDUR
    94   103     2     0     0
SMALL
USER_CHARGES
****
Generated from the CSD

@<TRIPOS>ATOM
     1 Fe1      0.7896   2.2480   3.0565   Fe        1 RES1   1.0000
     2 Cl1     -1.4072   2.5680   2.5077   Cl        1 RES1   0.0000
     3 N1       1.0195   4.2558   4.0015   N.3       1 RES1   0.0000
     4 C1       0.6426   5.2542   2.9701   C.3       1 RES1   0.0000
     5 H1       0.9603   6.1523   3.2389   H         1 RES1   0.0000
     6 H2      -0.3434   5.2887   2.8790   H         1 RES1   0.0000
     7 C2       1.2652   4.8590   1.6611   C.ar      1 RES1   0.0000
     8 N2       1.4203   3.5293   1.4658   N.ar      1 RES1   0.0000
     9 C3       1.9311   3.1056   0.2986   C.ar      1 RES1   0.0000
    10 H3       2.0293   2.1711   0.1582   H         1 RES1   0.0000
    11 C4       2.3171   3.9666  -0.7042   C.ar      1 RES1   0.0000
    12 H4       2.6750   3.6348  -1.5212   H         1 RES1   0.0000
    13 C5       2.1727   5.3290  -0.4941   C.ar      1 RES1   0.0000
    14 H5       2.4418   5.9483  -1.1613   H         1 RES1   0.0000
    15 C6       1.6348   5.7766   0.6947   C.ar      1 RES1   0.0000
    16 H6       1.5186   6.7067   0.8474   H         1 RES1   0.0000
    17 C7       0.1147   4.3089   5.1777   C.3       1 RES1   0.0000
    18 H7      -0.7921   4.5749   4.8826   H         1 RES1   0.0000
    19 H8       0.4419   4.9934   5.8142   H         1 RES1   0.0000
    20 C8       0.0437   2.9702   5.8732   C.ar      1 RES1   0.0000
    21 N3       0.2388   1.8917   5.0832   N.ar      1 RES1   0.0000
    22 C9       0.1479   0.6694   5.6202   C.ar      1 RES1   0.0000
    23 H9       0.2872  -0.0871   5.0638   H         1 RES1   0.0000
    24 C10     -0.1405   0.4682   6.9528   C.ar      1 RES1   0.0000
    25 H10     -0.2092  -0.4111   7.3073   H         1 RES1   0.0000
    26 C11     -0.3274   1.5710   7.7629   C.ar      1 RES1   0.0000
    27 H11     -0.5184   1.4595   8.6856   H         1 RES1   0.0000
    28 C12     -0.2318   2.8387   7.2188   C.ar      1 RES1   0.0000
    29 H12     -0.3537   3.6072   7.7642   H         1 RES1   0.0000
    30 C13      2.4481   4.4489   4.3780   C.3       1 RES1   0.0000
    31 H13      2.5044   5.0986   5.1225   H         1 RES1   0.0000
    32 H14      2.9400   4.8266   3.6064   H         1 RES1   0.0000
    33 C14      3.1027   3.1455   4.8009   C.3       1 RES1   0.0000
    34 H15      4.0831   3.2610   4.8647   H         1 RES1   0.0000
    35 H16      2.7607   2.8626   5.6866   H         1 RES1   0.0000
    36 N4       2.7747   2.1332   3.7797   N.2       1 RES1   0.0000
    37 C15      3.6964   1.3528   3.3436   C.2       1 RES1   0.0000
    38 H17      4.5685   1.4616   3.7034   H         1 RES1   0.0000
    39 C16      3.5066   0.3215   2.3476   C.ar      1 RES1   0.0000
    40 C17      2.2389   0.0019   1.8122   C.ar      1 RES1   0.0000
    41 O1       1.1191   0.6012   2.2203   O.3       1 RES1   0.0000
    42 C18      2.1696  -0.9641   0.8004   C.ar      1 RES1   0.0000
    43 H18      1.3288  -1.1844   0.4160   H         1 RES1   0.0000
    44 C19      3.3116  -1.6000   0.3550   C.ar      1 RES1   0.0000
    45 H19      3.2462  -2.2402  -0.3446   H         1 RES1   0.0000
    46 C20      4.5483  -1.3224   0.9084   C.ar      1 RES1   0.0000
    47 H20      5.3225  -1.7866   0.6126   H         1 RES1   0.0000
    48 C21      4.6448  -0.3639   1.8964   C.ar      1 RES1   0.0000
    49 H21      5.4921  -0.1657   2.2767   H         1 RES1   0.0000
    50 B1       8.2371   2.0384   4.0694   B         2 RES2  -1.0000
    51 C22      7.1346   2.9331   3.2172   C.ar      2 RES2   0.0000
    52 C23      6.7251   4.1946   3.6761   C.ar      2 RES2   0.0000
    53 H22      7.0530   4.5016   4.5125   H         2 RES2   0.0000
    54 C24      5.8620   5.0136   2.9599   C.ar      2 RES2   0.0000
    55 H23      5.6205   5.8655   3.3078   H         2 RES2   0.0000
    56 C25      5.3538   4.5972   1.7483   C.ar      2 RES2   0.0000
    57 H24      4.7538   5.1506   1.2609   H         2 RES2   0.0000
    58 C26      5.7285   3.3650   1.2575   C.ar      2 RES2   0.0000
    59 H25      5.3848   3.0634   0.4262   H         2 RES2   0.0000
    60 C27      6.6091   2.5608   1.9747   C.ar      2 RES2   0.0000
    61 H26      6.8644   1.7240   1.6054   H         2 RES2   0.0000
    62 C28      8.1836   0.4518   3.5980   C.ar      2 RES2   0.0000
    63 C29      8.6904   0.0802   2.3377   C.ar      2 RES2   0.0000
    64 H27      9.0967   0.7499   1.7994   H         2 RES2   0.0000
    65 C30      8.6259  -1.2109   1.8435   C.ar      2 RES2   0.0000
    66 H28      8.9743  -1.4064   0.9801   H         2 RES2   0.0000
    67 C31      8.0564  -2.2168   2.6011   C.ar      2 RES2   0.0000
    68 H29      8.0033  -3.1037   2.2665   H         2 RES2   0.0000
    69 C32      7.5679  -1.9056   3.8494   C.ar      2 RES2   0.0000
    70 H30      7.1859  -2.5886   4.3900   H         2 RES2   0.0000
    71 C33      7.6258  -0.5971   4.3290   C.ar      2 RES2   0.0000
    72 H31      7.2688  -0.4121   5.1914   H         2 RES2   0.0000
    73 C34      9.7407   2.6262   3.7560   C.ar      2 RES2   0.0000
    74 C35      9.9923   3.7141   2.9071   C.ar      2 RES2   0.0000
    75 H32      9.2578   4.1320   2.4732   H         2 RES2   0.0000
    76 C36     11.2753   4.2090   2.6720   C.ar      2 RES2   0.0000
    77 H33     11.3976   4.9435   2.0827   H         2 RES2   0.0000
    78 C37     12.3661   3.6391   3.2905   C.ar      2 RES2   0.0000
    79 H34     13.2387   3.9843   3.1470   H         2 RES2   0.0000
    80 C38     12.1662   2.5503   4.1294   C.ar      2 RES2   0.0000
    81 H35     12.9073   2.1435   4.5610   H         2 RES2   0.0000
    82 C39     10.8816   2.0544   4.3392   C.ar      2 RES2   0.0000
    83 H36     10.7745   1.2959   4.9005   H         2 RES2   0.0000
    84 C40      7.8359   2.1982   5.6600   C.ar      2 RES2   0.0000
    85 C41      6.5189   1.9353   6.0717   C.ar      2 RES2   0.0000
    86 H37      5.9094   1.5869   5.4314   H         2 RES2   0.0000
    87 C42      6.0588   2.1541   7.3602   C.ar      2 RES2   0.0000
    88 H38      5.1506   1.9746   7.5753   H         2 RES2   0.0000
    89 C43      6.9137   2.6311   8.3275   C.ar      2 RES2   0.0000
    90 H39      6.6059   2.7872   9.2139   H         2 RES2   0.0000
    91 C44      8.2240   2.8783   7.9850   C.ar      2 RES2   0.0000
    92 H40      8.8290   3.2025   8.6422   H         2 RES2   0.0000
    93 C45      8.6748   2.6579   6.6784   C.ar      2 RES2   0.0000
    94 H41      9.5863   2.8276   6.4753   H         2 RES2   0.0000
@<TRIPOS>BOND
     1     1     2    1
     2     3     1    1
     3     4     3    1
     4     5     4    1
     5     6     4    1
     6     7     4    1
     7     8     1    1
     8     9     8   ar
     9    10     9    1
    10    11     9   ar
    11    12    11    1
    12    13    11   ar
    13    14    13    1
    14    15     7   ar
    15    16    15    1
    16    17     3    1
    17    18    17    1
    18    19    17    1
    19    20    17    1
    20    21     1    1
    21    22    21   ar
    22    23    22    1
    23    24    22   ar
    24    25    24    1
    25    26    24   ar
    26    27    26    1
    27    28    20   ar
    28    29    28    1
    29    30     3    1
    30    31    30    1
    31    32    30    1
    32    33    30    1
    33    34    33    1
    34    35    33    1
    35    36     1    1
    36    37    36    2
    37    38    37    1
    38    39    37    1
    39    40    39   ar
    40    41     1    1
    41    42    40   ar
    42    43    42    1
    43    44    42   ar
    44    45    44    1
    45    46    44   ar
    46    47    46    1
    47    48    39   ar
    48    49    48    1
    49     7     8   ar
    50    13    15   ar
    51    20    21   ar
    52    26    28   ar
    53    33    36    1
    54    40    41    1
    55    46    48   ar
    56    50    51    1
    57    51    52   ar
    58    52    53    1
    59    54    52   ar
    60    55    54    1
    61    56    54   ar
    62    57    56    1
    63    58    56   ar
    64    59    58    1
    65    60    51   ar
    66    61    60    1
    67    62    50    1
    68    63    62   ar
    69    64    63    1
    70    65    63   ar
    71    66    65    1
    72    67    65   ar
    73    68    67    1
    74    69    67   ar
    75    70    69    1
    76    71    62   ar
    77    72    71    1
    78    73    50    1
    79    74    73   ar
    80    75    74    1
    81    76    74   ar
    82    77    76    1
    83    78    76   ar
    84    79    78    1
    85    80    78   ar
    86    81    80    1
    87    82    73   ar
    88    83    82    1
    89    84    50    1
    90    85    84   ar
    91    86    85    1
    92    87    85   ar
    93    88    87    1
    94    89    87   ar
    95    90    89    1
    96    91    89   ar
    97    92    91    1
    98    93    84   ar
    99    94    93    1
   100    58    60   ar
   101    69    71   ar
   102    80    82   ar
   103    91    93   ar
@<TRIPOS>SUBSTRUCTURE
     1 RES1        1 GROUP             0 ****  ****    0  
     2 RES2       50 GROUP             0 ****  ****    0  
@<TRIPOS>CRYSIN
   28.1490   10.6220   26.6770   90.0000  106.9120   90.0000    15     1
