@<TRIPOS>MOLECULE
XOFGUX
    99   106     1     0     0
SMALL
NO_CHARGES
****
Generated from the CSD

@<TRIPOS>ATOM
     1 Fe1     -0.0517  10.4922   5.6261   Fe        1 RES1   0.0000
     2 N1       1.8831  10.7291   4.8496   N.2       1 RES1   0.0000
     3 C1       2.9366  11.0374   4.4654   C.1       1 RES1   0.0000
     4 S1       4.4025  11.4923   3.9357   S.2       1 RES1   0.0000
     5 N2       0.4839   8.4685   6.4716   N.ar      1 RES1   0.0000
     6 C2       1.5818   7.8398   6.0309   C.ar      1 RES1   0.0000
     7 H1       2.1511   8.2951   5.4224   H         1 RES1   0.0000
     8 C3       1.9254   6.5530   6.4225   C.ar      1 RES1   0.0000
     9 H2       2.7016   6.1358   6.0683   H         1 RES1   0.0000
    10 C4       1.1271   5.8811   7.3329   C.ar      1 RES1   0.0000
    11 C5       0.0258   6.5520   7.8472   C.ar      1 RES1   0.0000
    12 H3      -0.5194   6.1421   8.5089   H         1 RES1   0.0000
    13 C6      -0.2699   7.8245   7.3866   C.ar      1 RES1   0.0000
    14 H4      -1.0387   8.2637   7.7314   H         1 RES1   0.0000
    15 C7       1.4586   4.5012   7.8234   C.2       1 RES1   0.0000
    16 C8       2.0615   3.5004   6.8976   C.ar      1 RES1   0.0000
    17 C9       2.7531   2.4174   7.4641   C.ar      1 RES1   0.0000
    18 H5       2.8912   2.3775   8.4032   H         1 RES1   0.0000
    19 C10      3.2327   1.4057   6.6467   C.ar      1 RES1   0.0000
    20 H6       3.7049   0.6757   7.0281   H         1 RES1   0.0000
    21 C11      3.0277   1.4553   5.2807   C.ar      1 RES1   0.0000
    22 H7       3.3554   0.7554   4.7282   H         1 RES1   0.0000
    23 C12      2.3470   2.5173   4.7123   C.ar      1 RES1   0.0000
    24 H8       2.2080   2.5433   3.7729   H         1 RES1   0.0000
    25 C13      1.8630   3.5491   5.5167   C.ar      1 RES1   0.0000
    26 H9       1.4018   4.2829   5.1265   H         1 RES1   0.0000
    27 O1       1.2123   4.2162   8.9860   O.2       1 RES1   0.0000
    28 N3       0.6286  11.4061   7.5776   N.ar      1 RES1   0.0000
    29 C14      1.7642  12.1088   7.6985   C.ar      1 RES1   0.0000
    30 H10      2.2986  12.2360   6.9235   H         1 RES1   0.0000
    31 C15      2.2008  12.6603   8.8983   C.ar      1 RES1   0.0000
    32 H11      3.0015  13.1698   8.9309   H         1 RES1   0.0000
    33 C16      1.4486  12.4538  10.0505   C.ar      1 RES1   0.0000
    34 C17      0.2859  11.7114   9.9359   C.ar      1 RES1   0.0000
    35 H12     -0.2505  11.5414  10.7020   H         1 RES1   0.0000
    36 C18     -0.0918  11.2153   8.6944   C.ar      1 RES1   0.0000
    37 H13     -0.8984  10.7167   8.6327   H         1 RES1   0.0000
    38 C19      1.8690  12.9163  11.4240   C.2       1 RES1   0.0000
    39 C20      2.5633  14.2222  11.6115   C.ar      1 RES1   0.0000
    40 C21      2.4224  15.2752  10.7177   C.ar      1 RES1   0.0000
    41 H14      1.9086  15.1591   9.9267   H         1 RES1   0.0000
    42 C22      3.0325  16.5026  10.9765   C.ar      1 RES1   0.0000
    43 H15      2.9267  17.2240  10.3678   H         1 RES1   0.0000
    44 C23      3.7904  16.6664  12.1182   C.ar      1 RES1   0.0000
    45 H16      4.2111  17.5010  12.2908   H         1 RES1   0.0000
    46 C24      3.9398  15.6204  13.0147   C.ar      1 RES1   0.0000
    47 H17      4.4645  15.7383  13.7975   H         1 RES1   0.0000
    48 C25      3.3259  14.4020  12.7704   C.ar      1 RES1   0.0000
    49 H18      3.4226  13.6881  13.3901   H         1 RES1   0.0000
    50 O2       1.6166  12.1980  12.3781   O.2       1 RES1   0.0000
    51 N1B     -1.9864  10.2553   6.4026   N.2       1 RES1   0.0000
    52 C1B     -3.0399   9.9470   6.7868   C.1       1 RES1   0.0000
    53 S1B     -4.5058   9.4921   7.3165   S.2       1 RES1   0.0000
    54 N2B     -0.5872  12.5159   4.7806   N.ar      1 RES1   0.0000
    55 C2B     -1.6851  13.1446   5.2214   C.ar      1 RES1   0.0000
    56 H1B     -2.2544  12.6893   5.8298   H         1 RES1   0.0000
    57 C3B     -2.0287  14.4314   4.8297   C.ar      1 RES1   0.0000
    58 H2B     -2.8049  14.8486   5.1839   H         1 RES1   0.0000
    59 C4B     -1.2304  15.1033   3.9194   C.ar      1 RES1   0.0000
    60 C5B     -0.1291  14.4324   3.4050   C.ar      1 RES1   0.0000
    61 H3B      0.4161  14.8423   2.7433   H         1 RES1   0.0000
    62 C6B      0.1666  13.1599   3.8656   C.ar      1 RES1   0.0000
    63 H4B      0.9354  12.7207   3.5208   H         1 RES1   0.0000
    64 C7B     -1.5619  16.4832   3.4288   C.2       1 RES1   0.0000
    65 C8B     -2.1648  17.4840   4.3546   C.ar      1 RES1   0.0000
    66 C9B     -2.8564  18.5670   3.7882   C.ar      1 RES1   0.0000
    67 H5B     -2.9945  18.6069   2.8491   H         1 RES1   0.0000
    68 C10B    -3.3360  19.5787   4.6055   C.ar      1 RES1   0.0000
    69 H6B     -3.8082  20.3087   4.2241   H         1 RES1   0.0000
    70 C11B    -3.1310  19.5291   5.9716   C.ar      1 RES1   0.0000
    71 H7B     -3.4587  20.2290   6.5240   H         1 RES1   0.0000
    72 C12B    -2.4503  18.4671   6.5399   C.ar      1 RES1   0.0000
    73 H8B     -2.3113  18.4411   7.4794   H         1 RES1   0.0000
    74 C13B    -1.9663  17.4353   5.7355   C.ar      1 RES1   0.0000
    75 H9B     -1.5051  16.7015   6.1257   H         1 RES1   0.0000
    76 O1B     -1.3156  16.7682   2.2662   O.2       1 RES1   0.0000
    77 N3B     -0.7319   9.5783   3.6746   N.ar      1 RES1   0.0000
    78 C14B    -1.8675   8.8756   3.5537   C.ar      1 RES1   0.0000
    79 H10B    -2.4019   8.7484   4.3287   H         1 RES1   0.0000
    80 C15B    -2.3041   8.3241   2.3540   C.ar      1 RES1   0.0000
    81 H11B    -3.1048   7.8146   2.3213   H         1 RES1   0.0000
    82 C16B    -1.5519   8.5306   1.2017   C.ar      1 RES1   0.0000
    83 C17B    -0.3892   9.2730   1.3163   C.ar      1 RES1   0.0000
    84 H12B     0.1472   9.4430   0.5502   H         1 RES1   0.0000
    85 C18B    -0.0115   9.7691   2.5579   C.ar      1 RES1   0.0000
    86 H13B     0.7951  10.2677   2.6195   H         1 RES1   0.0000
    87 C19B    -1.9723   8.0681  -0.1718   C.2       1 RES1   0.0000
    88 C20B    -2.6666   6.7622  -0.3593   C.ar      1 RES1   0.0000
    89 C21B    -2.5257   5.7092   0.5345   C.ar      1 RES1   0.0000
    90 H14B    -2.0119   5.8253   1.3255   H         1 RES1   0.0000
    91 C22B    -3.1358   4.4818   0.2757   C.ar      1 RES1   0.0000
    92 H15B    -3.0300   3.7604   0.8844   H         1 RES1   0.0000
    93 C23B    -3.8937   4.3180  -0.8660   C.ar      1 RES1   0.0000
    94 H16B    -4.3144   3.4834  -1.0386   H         1 RES1   0.0000
    95 C24B    -4.0431   5.3640  -1.7624   C.ar      1 RES1   0.0000
    96 H17B    -4.5678   5.2461  -2.5453   H         1 RES1   0.0000
    97 C25B    -3.4292   6.5824  -1.5182   C.ar      1 RES1   0.0000
    98 H18B    -3.5259   7.2963  -2.1379   H         1 RES1   0.0000
    99 O2B     -1.7199   8.7864  -1.1259   O.2       1 RES1   0.0000
@<TRIPOS>BOND
     1     1     2    1
     2     2     3    2
     3     3     4    2
     4     5     1    1
     5     6     5   ar
     6     7     6    1
     7     8     6   ar
     8     9     8    1
     9    10     8   ar
    10    11    10   ar
    11    12    11    1
    12    13     5   ar
    13    14    13    1
    14    15    10    1
    15    16    15    1
    16    17    16   ar
    17    18    17    1
    18    19    17   ar
    19    20    19    1
    20    21    19   ar
    21    22    21    1
    22    23    21   ar
    23    24    23    1
    24    25    16   ar
    25    26    25    1
    26    27    15    2
    27    28     1    1
    28    29    28   ar
    29    30    29    1
    30    31    29   ar
    31    32    31    1
    32    33    31   ar
    33    34    33   ar
    34    35    34    1
    35    36    28   ar
    36    37    36    1
    37    38    33    1
    38    39    38    1
    39    40    39   ar
    40    41    40    1
    41    42    40   ar
    42    43    42    1
    43    44    42   ar
    44    45    44    1
    45    46    44   ar
    46    47    46    1
    47    48    39   ar
    48    49    48    1
    49    50    38    2
    50    51     1    1
    51    52    51    2
    52    53    52    2
    53    54     1    1
    54    55    54   ar
    55    56    55    1
    56    57    55   ar
    57    58    57    1
    58    59    57   ar
    59    60    59   ar
    60    61    60    1
    61    62    54   ar
    62    63    62    1
    63    64    59    1
    64    65    64    1
    65    66    65   ar
    66    67    66    1
    67    68    66   ar
    68    69    68    1
    69    70    68   ar
    70    71    70    1
    71    72    70   ar
    72    73    72    1
    73    74    65   ar
    74    75    74    1
    75    76    64    2
    76    77     1    1
    77    78    77   ar
    78    79    78    1
    79    80    78   ar
    80    81    80    1
    81    82    80   ar
    82    83    82   ar
    83    84    83    1
    84    85    77   ar
    85    86    85    1
    86    87    82    1
    87    88    87    1
    88    89    88   ar
    89    90    89    1
    90    91    89   ar
    91    92    91    1
    92    93    91   ar
    93    94    93    1
    94    95    93   ar
    95    96    95    1
    96    97    88   ar
    97    98    97    1
    98    99    87    2
    99    11    13   ar
   100    23    25   ar
   101    34    36   ar
   102    46    48   ar
   103    60    62   ar
   104    72    74   ar
   105    83    85   ar
   106    95    97   ar
@<TRIPOS>SUBSTRUCTURE
     1 RES1        1 GROUP             0 ****  ****    0  
@<TRIPOS>CRYSIN
    9.0610   20.9844   11.2527   90.0000   90.5260   90.0000    14     1
