@<TRIPOS>MOLECULE
XOFRIW
    76    82     2     0     0
SMALL
USER_CHARGES
****
Generated from the CSD

@<TRIPOS>ATOM
     1 Fe1      6.1518   3.9689   2.8018   Fe        1 RES1   1.0000
     2 N1       5.5527   2.1980   3.9040   N.2       1 RES1   0.0000
     3 N2       6.9156   5.7413   1.8642   N.2       1 RES1   0.0000
     4 N3       8.1387   3.3739   3.1323   N.2       1 RES1   0.0000
     5 N4       6.5861   4.8764   4.6624   N.2       1 RES1   0.0000
     6 N5       7.1197   7.3087   0.3529   N.pl3     1 RES1   0.0000
     7 N6       5.6047   0.3496   5.0777   N.pl3     1 RES1   0.0000
     8 O1       4.3938   4.6424   2.8724   O.3       1 RES1   0.0000
     9 O2       6.1235   3.0479   1.1454   O.3       1 RES1   0.0000
    10 O3       1.9941   5.3594   2.2571   O.3       1 RES1   0.0000
    11 O4       5.4818   2.0577  -1.1750   O.3       1 RES1   0.0000
    12 C1       8.3751   2.2364   0.9856   C.ar      1 RES1   0.0000
    13 C2       7.0619   2.4101   0.4941   C.ar      1 RES1   0.0000
    14 C3       8.8299   2.7276   2.2535   C.2       1 RES1   0.0000
    15 C4       8.7158   3.8336   4.3422   C.ar      1 RES1   0.0000
    16 C5       6.3219   1.2617   4.4197   C.2       1 RES1   0.0000
    17 H1       7.2477   1.2387   4.3356   H         1 RES1   0.0000
    18 C6       4.3648   5.8360   4.9576   C.ar      1 RES1   0.0000
    19 C7       5.7123   5.5350   5.3534   C.2       1 RES1   0.0000
    20 C8       7.9036   4.6638   5.1349   C.ar      1 RES1   0.0000
    21 C9       8.9995   1.0636  -1.0380   C.ar      1 RES1   0.0000
    22 H2       9.6434   0.6297  -1.5501   H         1 RES1   0.0000
    23 C10      4.2708   1.8483   4.2540   C.2       1 RES1   0.0000
    24 H3       3.5028   2.3229   4.0305   H         1 RES1   0.0000
    25 C11      3.7797   5.4155   3.7409   C.ar      1 RES1   0.0000
    26 C12      3.6024   6.6390   5.8438   C.ar      1 RES1   0.0000
    27 H4       3.9591   6.8835   6.6677   H         1 RES1   0.0000
    28 C13      8.4330   5.2160   6.3022   C.ar      1 RES1   0.0000
    29 H5       7.9140   5.7830   6.8259   H         1 RES1   0.0000
    30 C14      2.4721   5.8386   3.4393   C.ar      1 RES1   0.0000
    31 C15      7.6282   6.7906   2.4005   C.2       1 RES1   0.0000
    32 H6       7.9710   6.8244   3.2644   H         1 RES1   0.0000
    33 C16      9.3188   1.5501   0.1891   C.ar      1 RES1   0.0000
    34 H7      10.1814   1.4270   0.5145   H         1 RES1   0.0000
    35 C17      6.7603   1.8684  -0.7779   C.ar      1 RES1   0.0000
    36 C18     10.4968   4.0704   5.9263   C.ar      1 RES1   0.0000
    37 H8      11.3582   3.8613   6.2062   H         1 RES1   0.0000
    38 C19     10.0040   3.5253   4.7659   C.ar      1 RES1   0.0000
    39 H9      10.5335   2.9503   4.2622   H         1 RES1   0.0000
    40 C20      6.6305   6.1050   0.6252   C.2       1 RES1   0.0000
    41 H10      6.1500   5.5852   0.0225   H         1 RES1   0.0000
    42 C21      7.7155   1.2186  -1.5239   C.ar      1 RES1   0.0000
    43 H11      7.4950   0.8795  -2.3615   H         1 RES1   0.0000
    44 C22      2.3573   7.0543   5.5012   C.ar      1 RES1   0.0000
    45 H12      1.8823   7.6055   6.0808   H         1 RES1   0.0000
    46 C23      4.3041   0.7082   4.9734   C.2       1 RES1   0.0000
    47 H13      3.5736   0.2555   5.3292   H         1 RES1   0.0000
    48 C24      7.7485   7.7538   1.4787   C.2       1 RES1   0.0000
    49 H14      8.1793   8.5709   1.5858   H         1 RES1   0.0000
    50 C25      9.7207   4.9232   6.6770   C.ar      1 RES1   0.0000
    51 H15     10.0739   5.3055   7.4476   H         1 RES1   0.0000
    52 C26      0.6860   5.7298   1.8641   C.3       1 RES1   0.0000
    53 H16      0.0601   5.4541   2.5375   H         1 RES1   0.0000
    54 H17      0.4697   5.3027   1.0319   H         1 RES1   0.0000
    55 H18      0.6420   6.6823   1.7562   H         1 RES1   0.0000
    56 C27      1.7823   6.6673   4.3011   C.ar      1 RES1   0.0000
    57 H19      0.9312   6.9670   4.0750   H         1 RES1   0.0000
    58 C28      6.9154   8.0490  -0.8929   C.3       1 RES1   0.0000
    59 H20      7.7435   8.4514  -1.1662   H         1 RES1   0.0000
    60 H21      6.2576   8.7348  -0.7545   H         1 RES1   0.0000
    61 H22      6.6113   7.4479  -1.5770   H         1 RES1   0.0000
    62 C29      6.1575  -0.7965   5.8069   C.3       1 RES1   0.0000
    63 H23      7.0981  -0.8641   5.6309   H         1 RES1   0.0000
    64 H24      5.7185  -1.6002   5.5195   H         1 RES1   0.0000
    65 H25      6.0159  -0.6742   6.7490   H         1 RES1   0.0000
    66 C30      5.1114   1.4625  -2.4072   C.3       1 RES1   0.0000
    67 H26      5.7475   1.7036  -3.0835   H         1 RES1   0.0000
    68 H27      4.2390   1.7722  -2.6624   H         1 RES1   0.0000
    69 H28      5.0948   0.5071  -2.3089   H         1 RES1   0.0000
    70 H29      5.9532   5.8478   6.2064   H         1 RES1   0.0000
    71 H30      9.7259   2.5375   2.4399   H         1 RES1   0.0000
    72 Cl1     -0.2227  -0.3326   4.7521   Cl        2 RES2   0.0000
    73 O5      -0.8822   0.3006   5.8485   O.3       2 RES2  -1.0000
    74 O6       1.0450  -0.0203   4.7135   O.2       2 RES2   0.0000
    75 O7      -0.3703  -1.7426   4.8144   O.2       2 RES2   0.0000
    76 O8      -0.9162   0.0398   3.6030   O.2       2 RES2   0.0000
@<TRIPOS>BOND
     1     1     2    1
     2     2    16    2
     3     3     1    1
     4     4     1    1
     5     5     1    1
     6     6    40    1
     7     7    16    1
     8     8     1    1
     9     9     1    1
    10    10    30    1
    11    11    35    1
    12    12    13   ar
    13    13     9    1
    14    14     4    2
    15    15     4    1
    16    16    17    1
    17    18    19    1
    18    19     5    2
    19    20     5    1
    20    21    22    1
    21    23     2    1
    22    24    23    1
    23    25     8    1
    24    26    18   ar
    25    27    26    1
    26    28    20   ar
    27    29    28    1
    28    30    25   ar
    29    31     3    1
    30    32    31    1
    31    33    12   ar
    32    34    33    1
    33    35    13   ar
    34    36    37    1
    35    38    15   ar
    36    39    38    1
    37    40     3    2
    38    41    40    1
    39    42    21   ar
    40    43    42    1
    41    44    26   ar
    42    45    44    1
    43    46     7    1
    44    47    46    1
    45    48     6    1
    46    49    48    1
    47    50    28   ar
    48    51    50    1
    49    52    10    1
    50    53    52    1
    51    54    52    1
    52    55    52    1
    53    56    30   ar
    54    57    56    1
    55    58     6    1
    56    59    58    1
    57    60    58    1
    58    61    58    1
    59    62     7    1
    60    63    62    1
    61    64    62    1
    62    65    62    1
    63    66    11    1
    64    67    66    1
    65    68    66    1
    66    69    66    1
    67    70    19    1
    68    71    14    1
    69    12    14    1
    70    15    20   ar
    71    18    25   ar
    72    21    33   ar
    73    23    46    2
    74    31    48    2
    75    35    42   ar
    76    36    38   ar
    77    36    50   ar
    78    44    56   ar
    79    72    73    1
    80    74    72    2
    81    75    72    2
    82    76    72    2
@<TRIPOS>SUBSTRUCTURE
     1 RES1        1 GROUP             0 ****  ****    0  
     2 RES2       72 GROUP             0 ****  ****    0  
@<TRIPOS>CRYSIN
   10.3441   10.4721   15.1434   99.2550  107.1220   93.3160     2     1
