@<TRIPOS>MOLECULE
XOJCIL
    96   100     2     0     0
SMALL
USER_CHARGES
****
Generated from the CSD

@<TRIPOS>ATOM
     1 Fe1      0.0000   0.0000   0.0000   Fe        1 RES1   2.0000
     2 N1       1.4576  -2.6276   2.7763   N.pl3     1 RES1   0.0000
     3 N2       1.6453  -1.4559   3.4278   N.2       1 RES1   0.0000
     4 N3       1.1412  -0.5135   2.6922   N.2       1 RES1   0.0000
     5 N4       0.6472  -1.0782   1.5428   N.2       1 RES1   0.0000
     6 N5       4.3651  -3.2735   2.8845   N.2       1 RES1   0.0000
     7 N6       4.3160  -2.2217   2.2098   N.1       1 RES1   1.0000
     8 N7       4.3888  -1.2212   1.6511   N.3       1 RES1  -1.0000
     9 N8       1.8141   3.0670   2.0348   N.pl3     1 RES1   0.0000
    10 N9       2.6980   2.8905   1.0266   N.2       1 RES1   0.0000
    11 N10      2.1952   2.0047   0.2455   N.2       1 RES1   0.0000
    12 N11      0.9820   1.5776   0.7279   N.2       1 RES1   0.0000
    13 N12      3.3422   2.0400   4.2446   N.2       1 RES1   0.0000
    14 N13      4.4734   2.3753   3.8763   N.1       1 RES1   1.0000
    15 N14      5.5297   2.5588   3.5293   N.3       1 RES1  -1.0000
    16 N15     -3.3060   0.5806   2.3442   N.pl3     1 RES1   0.0000
    17 N16     -3.3542   1.7082   1.5834   N.2       1 RES1   0.0000
    18 N17     -2.3178   1.6694   0.8101   N.2       1 RES1   0.0000
    19 N18     -1.5923   0.5365   1.0411   N.2       1 RES1   0.0000
    20 N19     -5.2253  -1.5900   2.1218   N.2       1 RES1   0.0000
    21 N20     -5.5570  -1.7523   0.9618   N.1       1 RES1   1.0000
    22 N21     -5.8091  -2.0417  -0.1005   N.3       1 RES1  -1.0000
    23 C1       0.8327  -2.3682   1.6501   C.2       1 RES1   0.0000
    24 H1       0.5589  -3.0176   1.0121   H         1 RES1   0.0000
    25 C2       1.9956  -3.8752   3.3089   C.3       1 RES1   0.0000
    26 H2       1.3357  -4.6005   3.1755   H         1 RES1   0.0000
    27 H3       2.1509  -3.7782   4.2814   H         1 RES1   0.0000
    28 C3       3.2950  -4.2476   2.6284   C.3       1 RES1   0.0000
    29 H4       3.5851  -5.1370   2.9474   H         1 RES1   0.0000
    30 H5       3.1425  -4.3093   1.6520   H         1 RES1   0.0000
    31 C4       0.7870   2.2958   1.8260   C.2       1 RES1   0.0000
    32 H6       0.0143   2.2535   2.3770   H         1 RES1   0.0000
    33 C5       2.1218   3.9599   3.1591   C.3       1 RES1   0.0000
    34 H7       1.3638   4.5776   3.3118   H         1 RES1   0.0000
    35 H8       2.9233   4.5017   2.9445   H         1 RES1   0.0000
    36 C6       2.3793   3.1394   4.4225   C.3       1 RES1   0.0000
    37 H9       2.7149   3.7447   5.1301   H         1 RES1   0.0000
    38 H10      1.5199   2.7600   4.7347   H         1 RES1   0.0000
    39 C7      -2.2313  -0.1112   2.0068   C.2       1 RES1   0.0000
    40 H11     -1.9617  -0.9370   2.3915   H         1 RES1   0.0000
    41 C8      -4.3391   0.3053   3.3524   C.3       1 RES1   0.0000
    42 H12     -4.5705   1.1435   3.8251   H         1 RES1   0.0000
    43 H13     -3.9885  -0.3353   4.0194   H         1 RES1   0.0000
    44 C9      -5.5679  -0.2629   2.7144   C.3       1 RES1   0.0000
    45 H14     -6.2828  -0.3671   3.3911   H         1 RES1   0.0000
    46 H15     -5.8949   0.3494   2.0078   H         1 RES1   0.0000
    47 N1B     -1.4576   2.6276  -2.7763   N.pl3     1 RES1   0.0000
    48 N2B     -1.6453   1.4559  -3.4278   N.2       1 RES1   0.0000
    49 N3B     -1.1412   0.5135  -2.6922   N.2       1 RES1   0.0000
    50 N4B     -0.6472   1.0782  -1.5428   N.2       1 RES1   0.0000
    51 N5B     -4.3651   3.2735  -2.8845   N.2       1 RES1   0.0000
    52 N6B     -4.3160   2.2217  -2.2098   N.1       1 RES1   1.0000
    53 N7B     -4.3888   1.2212  -1.6511   N.3       1 RES1  -1.0000
    54 N8B     -1.8141  -3.0670  -2.0348   N.pl3     1 RES1   0.0000
    55 N9B     -2.6980  -2.8905  -1.0266   N.2       1 RES1   0.0000
    56 N10B    -2.1952  -2.0047  -0.2455   N.2       1 RES1   0.0000
    57 N11B    -0.9820  -1.5776  -0.7279   N.2       1 RES1   0.0000
    58 N12B    -3.3422  -2.0400  -4.2446   N.2       1 RES1   0.0000
    59 N13B    -4.4734  -2.3753  -3.8763   N.1       1 RES1   1.0000
    60 N14B    -5.5297  -2.5588  -3.5293   N.3       1 RES1  -1.0000
    61 N15B     3.3060  -0.5806  -2.3442   N.pl3     1 RES1   0.0000
    62 N16B     3.3542  -1.7082  -1.5834   N.2       1 RES1   0.0000
    63 N17B     2.3178  -1.6694  -0.8101   N.2       1 RES1   0.0000
    64 N18B     1.5923  -0.5365  -1.0411   N.2       1 RES1   0.0000
    65 N19B     5.2253   1.5900  -2.1218   N.2       1 RES1   0.0000
    66 N20B     5.5570   1.7523  -0.9618   N.1       1 RES1   1.0000
    67 N21B     5.8091   2.0417   0.1005   N.3       1 RES1  -1.0000
    68 C1B     -0.8327   2.3682  -1.6501   C.2       1 RES1   0.0000
    69 H1B     -0.5589   3.0176  -1.0121   H         1 RES1   0.0000
    70 C2B     -1.9956   3.8752  -3.3089   C.3       1 RES1   0.0000
    71 H2B     -1.3357   4.6005  -3.1755   H         1 RES1   0.0000
    72 H3B     -2.1509   3.7782  -4.2814   H         1 RES1   0.0000
    73 C3B     -3.2950   4.2476  -2.6284   C.3       1 RES1   0.0000
    74 H4B     -3.5851   5.1370  -2.9474   H         1 RES1   0.0000
    75 H5B     -3.1425   4.3093  -1.6520   H         1 RES1   0.0000
    76 C4B     -0.7870  -2.2958  -1.8260   C.2       1 RES1   0.0000
    77 H6B     -0.0143  -2.2535  -2.3770   H         1 RES1   0.0000
    78 C5B     -2.1218  -3.9599  -3.1591   C.3       1 RES1   0.0000
    79 H7B     -1.3638  -4.5776  -3.3118   H         1 RES1   0.0000
    80 H8B     -2.9233  -4.5017  -2.9445   H         1 RES1   0.0000
    81 C6B     -2.3793  -3.1394  -4.4225   C.3       1 RES1   0.0000
    82 H9B     -2.7149  -3.7447  -5.1301   H         1 RES1   0.0000
    83 H10B    -1.5199  -2.7600  -4.7347   H         1 RES1   0.0000
    84 C7B      2.2313   0.1112  -2.0068   C.2       1 RES1   0.0000
    85 H11B     1.9617   0.9370  -2.3915   H         1 RES1   0.0000
    86 C8B      4.3391  -0.3053  -3.3524   C.3       1 RES1   0.0000
    87 H12B     4.5705  -1.1435  -3.8251   H         1 RES1   0.0000
    88 H13B     3.9885   0.3353  -4.0194   H         1 RES1   0.0000
    89 C9B      5.5679   0.2629  -2.7144   C.3       1 RES1   0.0000
    90 H14B     6.2828   0.3671  -3.3911   H         1 RES1   0.0000
    91 H15B     5.8949  -0.3494  -2.0078   H         1 RES1   0.0000
    92 Cl1     11.0593   3.0023   4.9024   Cl        2 RES2   0.0000
    93 O1      11.9700   4.0146   4.4186   O.2       2 RES2   0.0000
    94 O2      11.0338   3.0123   6.3414   O.2       2 RES2   0.0000
    95 O3      11.4915   1.7064   4.4351   O.2       2 RES2   0.0000
    96 O4       9.7300   3.2823   4.4022   O.3       2 RES2  -1.0000
@<TRIPOS>BOND
     1     1     5    1
     2     2     3    1
     3     3     4    2
     4     4     5    1
     5     5    23    2
     6     6     7    2
     7     7     8    2
     8     9    10    1
     9    10    11    2
    10    11    12    1
    11    12     1    1
    12    13    14    2
    13    14    15    2
    14    16    17    1
    15    17    18    2
    16    18    19    1
    17    19     1    1
    18    20    21    2
    19    21    22    2
    20    23     2    1
    21    24    23    1
    22    25     2    1
    23    26    25    1
    24    27    25    1
    25    28     6    1
    26    29    28    1
    27    30    28    1
    28    31     9    1
    29    32    31    1
    30    33     9    1
    31    34    33    1
    32    35    33    1
    33    36    13    1
    34    37    36    1
    35    38    36    1
    36    39    16    1
    37    40    39    1
    38    41    16    1
    39    42    41    1
    40    43    41    1
    41    44    20    1
    42    45    44    1
    43    46    44    1
    44    47    48    1
    45    48    49    2
    46    49    50    1
    47    50     1    1
    48    51    52    2
    49    52    53    2
    50    54    55    1
    51    55    56    2
    52    56    57    1
    53    57     1    1
    54    58    59    2
    55    59    60    2
    56    61    62    1
    57    62    63    2
    58    63    64    1
    59    64     1    1
    60    65    66    2
    61    66    67    2
    62    68    47    1
    63    69    68    1
    64    70    47    1
    65    71    70    1
    66    72    70    1
    67    73    51    1
    68    74    73    1
    69    75    73    1
    70    76    54    1
    71    77    76    1
    72    78    54    1
    73    79    78    1
    74    80    78    1
    75    81    58    1
    76    82    81    1
    77    83    81    1
    78    84    61    1
    79    85    84    1
    80    86    61    1
    81    87    86    1
    82    88    86    1
    83    89    65    1
    84    90    89    1
    85    91    89    1
    86    12    31    2
    87    19    39    2
    88    25    28    1
    89    33    36    1
    90    41    44    1
    91    50    68    2
    92    57    76    2
    93    64    84    2
    94    70    73    1
    95    78    81    1
    96    86    89    1
    97    92    93    2
    98    94    92    2
    99    95    92    2
   100    96    92    1
@<TRIPOS>SUBSTRUCTURE
     1 RES1        1 GROUP             0 ****  ****    0  
     2 RES2       92 GROUP             0 ****  ****    0  
@<TRIPOS>CRYSIN
   12.8715   17.6468   10.3064   90.0000  110.2930   90.0000    14     1
