@<TRIPOS>MOLECULE
XOLLET
    80    82     1     0     0
SMALL
NO_CHARGES
****
Generated from the CSD

@<TRIPOS>ATOM
     1 Fe1     -0.9295   3.9258   3.7781   Fe        1 RES1   0.0000
     2 H1      -1.9364   3.4774   4.7026   H         1 RES1   0.0000
     3 Si1     -2.5428   3.0931   2.2724   Si        1 RES1   0.0000
     4 O1       0.6902   4.6066   6.1411   O.2       1 RES1   0.0000
     5 O2       0.9074   4.9730   1.7459   O.2       1 RES1   0.0000
     6 O3      -0.1119   1.1464   4.0511   O.2       1 RES1   0.0000
     7 N1      -2.8108   5.7797   2.4538   N.pl3     1 RES1   0.0000
     8 N2      -2.1934   6.6863   4.2934   N.pl3     1 RES1   0.0000
     9 C1      -2.0417   5.5616   3.5501   C.3       1 RES1   0.0000
    10 C2       0.0160   4.4278   5.2310   C.1       1 RES1   0.0000
    11 C3       0.1892   4.5346   2.5213   C.1       1 RES1   0.0000
    12 C4      -0.4172   2.2487   3.9091   C.1       1 RES1   0.0000
    13 C5      -4.1636   2.4592   3.1156   C.3       1 RES1   0.0000
    14 C6      -4.8359   3.6226   3.8647   C.3       1 RES1   0.0000
    15 H2      -5.0873   4.3212   3.2260   H         1 RES1   0.0000
    16 H3      -4.2104   3.9913   4.5234   H         1 RES1   0.0000
    17 H4      -5.6376   3.2952   4.3240   H         1 RES1   0.0000
    18 C7      -3.8602   1.3516   4.1496   C.3       1 RES1   0.0000
    19 H5      -4.6933   1.0706   4.5820   H         1 RES1   0.0000
    20 H6      -3.2408   1.6965   4.8260   H         1 RES1   0.0000
    21 H7      -3.4531   0.5839   3.6954   H         1 RES1   0.0000
    22 C8      -5.2066   1.9170   2.1231   C.3       1 RES1   0.0000
    23 H8      -6.0319   1.6967   2.6038   H         1 RES1   0.0000
    24 H9      -4.8566   1.1111   1.6890   H         1 RES1   0.0000
    25 H10     -5.3965   2.5976   1.4437   H         1 RES1   0.0000
    26 C9      -1.9961   1.9382   0.8164   C.3       1 RES1   0.0000
    27 C10     -2.9283   2.1114  -0.4013   C.3       1 RES1   0.0000
    28 H11     -2.9071   3.0455  -0.6983   H         1 RES1   0.0000
    29 H12     -3.8439   1.8702  -0.1487   H         1 RES1   0.0000
    30 H13     -2.6261   1.5302  -1.1297   H         1 RES1   0.0000
    31 C11     -1.9850   0.4483   1.1933   C.3       1 RES1   0.0000
    32 H14     -2.8821   0.1768   1.4791   H         1 RES1   0.0000
    33 H15     -1.3500   0.3004   1.9244   H         1 RES1   0.0000
    34 H16     -1.7159  -0.0833   0.4145   H         1 RES1   0.0000
    35 C12     -0.5909   2.3157   0.3385   C.3       1 RES1   0.0000
    36 H17     -0.3598   1.7823  -0.4505   H         1 RES1   0.0000
    37 H18      0.0562   2.1388   1.0531   H         1 RES1   0.0000
    38 H19     -0.5693   3.2677   0.1068   H         1 RES1   0.0000
    39 C13     -3.0038   4.7505   1.4322   C.3       1 RES1   0.0000
    40 H20     -2.4179   4.9207   0.6523   H         1 RES1   0.0000
    41 H21     -3.9449   4.7362   1.1258   H         1 RES1   0.0000
    42 C14     -3.4252   7.0266   2.4977   C.2       1 RES1   0.0000
    43 C15     -3.0443   7.6047   3.6539   C.2       1 RES1   0.0000
    44 C16     -4.3028   7.5173   1.3970   C.3       1 RES1   0.0000
    45 H22     -5.1276   6.9891   1.3764   H         1 RES1   0.0000
    46 H23     -3.8347   7.4263   0.5408   H         1 RES1   0.0000
    47 H24     -4.5222   8.4602   1.5505   H         1 RES1   0.0000
    48 C17     -3.3750   8.9297   4.2614   C.3       1 RES1   0.0000
    49 H25     -2.5790   9.5010   4.2516   H         1 RES1   0.0000
    50 H26     -3.6734   8.7998   5.1853   H         1 RES1   0.0000
    51 H27     -4.0897   9.3563   3.7437   H         1 RES1   0.0000
    52 C18     -1.5718   6.9361   5.5665   C.ar      1 RES1   0.0000
    53 C19     -0.3082   7.5733   5.5573   C.ar      1 RES1   0.0000
    54 C20      0.3129   7.7520   6.7981   C.ar      1 RES1   0.0000
    55 H28      1.1661   8.1673   6.8351   H         1 RES1   0.0000
    56 C21     -0.2833   7.3421   7.9591   C.ar      1 RES1   0.0000
    57 H29      0.1674   7.4636   8.7873   H         1 RES1   0.0000
    58 C22     -1.5345   6.7535   7.9408   C.ar      1 RES1   0.0000
    59 H30     -1.9369   6.4798   8.7572   H         1 RES1   0.0000
    60 C23     -2.2140   6.5561   6.7368   C.ar      1 RES1   0.0000
    61 C24      0.3840   8.0385   4.2997   C.3       1 RES1   0.0000
    62 H31     -0.1667   7.7488   3.5162   H         1 RES1   0.0000
    63 C25      0.4850   9.5659   4.2706   C.3       1 RES1   0.0000
    64 H32     -0.4141   9.9540   4.2940   H         1 RES1   0.0000
    65 H33      0.9407   9.8474   3.4489   H         1 RES1   0.0000
    66 H34      0.9952   9.8744   5.0481   H         1 RES1   0.0000
    67 C26      1.7729   7.4160   4.1603   C.3       1 RES1   0.0000
    68 H35      2.3478   7.7336   4.8881   H         1 RES1   0.0000
    69 H36      2.1632   7.6749   3.2996   H         1 RES1   0.0000
    70 H37      1.6996   6.4396   4.2052   H         1 RES1   0.0000
    71 C27     -3.5957   5.9292   6.7567   C.3       1 RES1   0.0000
    72 H38     -3.9288   5.8887   5.8144   H         1 RES1   0.0000
    73 C28     -3.5474   4.5037   7.2989   C.3       1 RES1   0.0000
    74 H39     -3.2197   4.5164   8.2229   H         1 RES1   0.0000
    75 H40     -2.9451   3.9636   6.7464   H         1 RES1   0.0000
    76 H41     -4.4471   4.1149   7.2777   H         1 RES1   0.0000
    77 C29     -4.5729   6.7777   7.5624   C.3       1 RES1   0.0000
    78 H42     -4.2892   6.8011   8.4994   H         1 RES1   0.0000
    79 H43     -5.4702   6.3878   7.5017   H         1 RES1   0.0000
    80 H44     -4.5880   7.6890   7.2020   H         1 RES1   0.0000
@<TRIPOS>BOND
     1     1     2    1
     2     3     1    1
     3     4    10    3
     4     5    11    3
     5     6    12    3
     6     7     9    1
     7     8     9    1
     8     9     1    1
     9    10     1    1
    10    11     1    1
    11    12     1    1
    12    13     3    1
    13    14    13    1
    14    15    14    1
    15    16    14    1
    16    17    14    1
    17    18    13    1
    18    19    18    1
    19    20    18    1
    20    21    18    1
    21    22    13    1
    22    23    22    1
    23    24    22    1
    24    25    22    1
    25    26     3    1
    26    27    26    1
    27    28    27    1
    28    29    27    1
    29    30    27    1
    30    31    26    1
    31    32    31    1
    32    33    31    1
    33    34    31    1
    34    35    26    1
    35    36    35    1
    36    37    35    1
    37    38    35    1
    38    39     3    1
    39    40    39    1
    40    41    39    1
    41    42     7    1
    42    43     8    1
    43    44    42    1
    44    45    44    1
    45    46    44    1
    46    47    44    1
    47    48    43    1
    48    49    48    1
    49    50    48    1
    50    51    48    1
    51    52     8    1
    52    53    52   ar
    53    54    53   ar
    54    55    54    1
    55    56    54   ar
    56    57    56    1
    57    58    56   ar
    58    59    58    1
    59    60    52   ar
    60    61    53    1
    61    62    61    1
    62    63    61    1
    63    64    63    1
    64    65    63    1
    65    66    63    1
    66    67    61    1
    67    68    67    1
    68    69    67    1
    69    70    67    1
    70    71    60    1
    71    72    71    1
    72    73    71    1
    73    74    73    1
    74    75    73    1
    75    76    73    1
    76    77    71    1
    77    78    77    1
    78    79    77    1
    79    80    77    1
    80     7    39    1
    81    42    43    2
    82    58    60   ar
@<TRIPOS>SUBSTRUCTURE
     1 RES1        1 GROUP             0 ****  ****    0  
@<TRIPOS>CRYSIN
    8.5500   11.3730   16.0634  105.0205   96.1600   99.7320     2     1
