@<TRIPOS>MOLECULE
XOPDAJ
    86    85     6     0     0
SMALL
USER_CHARGES
****
Generated from the CSD

@<TRIPOS>ATOM
     1 Fe1     13.7105   7.7422   8.7178   Fe        1 RES1   0.0000
     2 S1       9.9131   8.0330  11.5604   S.2       1 RES1   0.0000
     3 S2      15.4331   4.2995  11.4722   S.2       1 RES1   0.0000
     4 S3      15.7217  11.0845  11.4314   S.2       1 RES1   0.0000
     5 O1      13.5856   7.7331   4.2905   O.3       1 RES1   0.0000
     6 N1      15.2747   7.7323   7.5158   N.ar      1 RES1   0.0000
     7 N2      12.9021   9.1138   7.5819   N.ar      1 RES1   0.0000
     8 N3      12.9166   6.3580   7.5468   N.ar      1 RES1   0.0000
     9 N4      14.4990   6.3473   9.8404   N.2       1 RES1   0.0000
    10 N5      12.1298   7.7777   9.8755   N.2       1 RES1   0.0000
    11 N6      14.5405   9.1086   9.8337   N.2       1 RES1  -1.0000
    12 C1      13.6408   7.7569   5.6820   C.3       1 RES1   0.0000
    13 C2      15.1021   7.7446   6.1863   C.ar      1 RES1   0.0000
    14 C3      16.1585   7.7299   5.3085   C.ar      1 RES1   0.0000
    15 C4      17.4622   7.7058   5.8182   C.ar      1 RES1   0.0000
    16 C5      17.6384   7.7068   7.1720   C.ar      1 RES1   0.0000
    17 C6      16.5233   7.7072   8.0066   C.ar      1 RES1   0.0000
    18 C7      12.9352   9.0059   6.2200   C.ar      1 RES1   0.0000
    19 C8      12.3403   9.9181   5.3881   C.ar      1 RES1   0.0000
    20 C9      11.7303  11.0400   5.9544   C.ar      1 RES1   0.0000
    21 C10     11.7238  11.1745   7.3203   C.ar      1 RES1   0.0000
    22 C11     12.3143  10.2059   8.1037   C.ar      1 RES1   0.0000
    23 C12     12.9648   6.4905   6.2052   C.ar      1 RES1   0.0000
    24 C13     12.4266   5.5504   5.3544   C.ar      1 RES1   0.0000
    25 C14     11.8230   4.4002   5.9153   C.ar      1 RES1   0.0000
    26 C15     11.7985   4.2759   7.2677   C.ar      1 RES1   0.0000
    27 C16     12.3431   5.2614   8.0619   C.ar      1 RES1   0.0000
    28 C17     14.8943   5.5428  10.5038   C.1       1 RES1   0.0000
    29 C18     11.2135   7.8832  10.5551   C.1       1 RES1   0.0000
    30 C19     15.0202   9.9187  10.4647   C.1       1 RES1   0.0000
    31 H1      16.0106   7.7350   4.3903   H         1 RES1   0.0000
    32 H2      18.1949   7.6849   5.2465   H         1 RES1   0.0000
    33 H3      18.4949   7.7080   7.5347   H         1 RES1   0.0000
    34 H4      16.6450   7.6913   8.9276   H         1 RES1   0.0000
    35 H5      12.3431   9.7924   4.4672   H         1 RES1   0.0000
    36 H6      11.3343  11.6839   5.4124   H         1 RES1   0.0000
    37 H7      11.3228  11.9153   7.7154   H         1 RES1   0.0000
    38 H8      12.3071  10.3098   9.0274   H         1 RES1   0.0000
    39 H9      12.4574   5.6695   4.4321   H         1 RES1   0.0000
    40 H10     11.4507   3.7450   5.3719   H         1 RES1   0.0000
    41 H11     11.4169   3.5231   7.6588   H         1 RES1   0.0000
    42 H12     12.3100   5.1655   8.9869   H         1 RES1   0.0000
    43 H13     13.9474   8.4087   3.9993   H         1 RES1   0.0000
    44 O2       8.6512   9.2637   3.4195   O.3       2 RES2   0.0000
    45 C20      8.2290  10.3284   3.7283   C.3       2 RES2   0.0000
    46 C21      7.4189  10.8517   4.5885   C.3       2 RES2   0.0000
    47 C22      7.3916  12.1847   4.9472   C.3       2 RES2   0.0000
    48 H14      9.1076  10.7253   3.8456   H         2 RES2   0.0000
    49 H15      7.9214  10.5467   2.8356   H         2 RES2   0.0000
    50 H16      6.5556  10.5989   4.2245   H         2 RES2   0.0000
    51 H17      7.5986  10.3138   5.3760   H         2 RES2   0.0000
    52 H18      7.2057  12.7221   4.1732   H         2 RES2   0.0000
    53 H19      6.7046  12.3230   5.6038   H         2 RES2   0.0000
    54 H20      8.2406  12.4387   5.3153   H         2 RES2   0.0000
    55 H21      9.1608   9.3062   2.7776   H         2 RES2   0.0000
    56 O3       6.6999   1.7778  10.5308   O.3       3 RES3   0.0000
    57 C23      5.5413   1.3473  11.2926   C.3       3 RES3   0.0000
    58 C24      5.7925   2.0817  12.6221   C.3       3 RES3   0.0000
    59 C25      4.4960   1.5225  13.2747   C.3       3 RES3   0.0000
    60 H22      4.7502   1.6376  10.8126   H         3 RES3   0.0000
    61 H23      5.5442   0.3789  11.3358   H         3 RES3   0.0000
    62 H24      6.6018   1.7853  13.0684   H         3 RES3   0.0000
    63 H25      5.8018   3.0484  12.5453   H         3 RES3   0.0000
    64 H26      4.5266   0.5601  13.2855   H         3 RES3   0.0000
    65 H27      4.4239   1.8470  14.1755   H         3 RES3   0.0000
    66 H28      3.7361   1.8103  12.7677   H         3 RES3   0.0000
    67 H29      6.6292   1.5008   9.7622   H         3 RES3   0.0000
    68 O4       6.0539   5.3617  14.4680   O.3       4 RES4   0.0000
    69 O5       5.5982   5.8910  15.9931   O.3       5 RES5   0.0000
    70 N7      10.6847   4.0111  12.7731   N.4       6 RES6   1.0000
    71 C26     11.8910   4.7746  12.2702   C.3       6 RES6   0.0000
    72 C27     11.1302   2.6724  13.2141   C.3       6 RES6   0.0000
    73 C28     10.0983   4.7481  13.8990   C.3       6 RES6   0.0000
    74 C29      9.6877   3.8913  11.6688   C.3       6 RES6   0.0000
    75 H30     12.5365   4.8540  12.9767   H         6 RES6   0.0000
    76 H31     12.2824   4.2994  11.5340   H         6 RES6   0.0000
    77 H32     11.6256   5.6501  11.9816   H         6 RES6   0.0000
    78 H33     10.3763   2.1814  13.5498   H         6 RES6   0.0000
    79 H34     11.5120   2.2022  12.4698   H         6 RES6   0.0000
    80 H35     11.7871   2.7611  13.9085   H         6 RES6   0.0000
    81 H36     10.7516   4.8446  14.5961   H         6 RES6   0.0000
    82 H37      9.8165   5.6166  13.6024   H         6 RES6   0.0000
    83 H38      9.3405   4.2648  14.2361   H         6 RES6   0.0000
    84 H39      9.4257   4.7665  11.3735   H         6 RES6   0.0000
    85 H40     10.0776   3.4107  10.9340   H         6 RES6   0.0000
    86 H41      8.9150   3.4180  11.9870   H         6 RES6   0.0000
@<TRIPOS>BOND
     1     1     6    1
     2     2    29    2
     3     3    28    2
     4     4    30    2
     5     5    12    1
     6     6    13   ar
     7     7     1    1
     8     8     1    1
     9     9     1    1
    10    10     1    1
    11    11     1    1
    12    12    13    1
    13    13    14   ar
    14    14    15   ar
    15    15    16   ar
    16    16    17   ar
    17    17     6   ar
    18    18     7   ar
    19    19    18   ar
    20    20    19   ar
    21    21    20   ar
    22    22     7   ar
    23    23     8   ar
    24    24    23   ar
    25    25    24   ar
    26    26    25   ar
    27    27     8   ar
    28    28     9    2
    29    29    10    2
    30    30    11    2
    31    31    14    1
    32    32    15    1
    33    33    16    1
    34    34    17    1
    35    35    19    1
    36    36    20    1
    37    37    21    1
    38    38    22    1
    39    39    24    1
    40    40    25    1
    41    41    26    1
    42    42    27    1
    43    43     5    1
    44    12    18    1
    45    12    23    1
    46    21    22   ar
    47    26    27   ar
    48    44    45    1
    49    45    46    1
    50    46    47    1
    51    47    52    1
    52    48    45    1
    53    49    45    1
    54    50    46    1
    55    51    46    1
    56    53    47    1
    57    54    47    1
    58    55    44    1
    59    56    57    1
    60    57    58    1
    61    58    59    1
    62    59    64    1
    63    60    57    1
    64    61    57    1
    65    62    58    1
    66    63    58    1
    67    65    59    1
    68    66    59    1
    69    67    56    1
    70    70    71    1
    71    71    75    1
    72    72    70    1
    73    73    70    1
    74    74    70    1
    75    76    71    1
    76    77    71    1
    77    78    72    1
    78    79    72    1
    79    80    72    1
    80    81    73    1
    81    82    73    1
    82    83    73    1
    83    84    74    1
    84    85    74    1
    85    86    74    1
@<TRIPOS>SUBSTRUCTURE
     1 RES1        1 GROUP             0 ****  ****    0  
     2 RES2       44 GROUP             0 ****  ****    0  
     3 RES3       56 GROUP             0 ****  ****    0  
     4 RES4       68 GROUP             0 ****  ****    0  
     5 RES5       69 GROUP             0 ****  ****    0  
     6 RES6       70 GROUP             0 ****  ****    0  
@<TRIPOS>CRYSIN
   12.1530   12.5990   13.8160   81.4860   77.7580   60.6390     2     1
