@<TRIPOS>MOLECULE
XOYGUO
    87    95     2     0     0
SMALL
USER_CHARGES
****
Generated from the CSD

@<TRIPOS>ATOM
     1 Fe1      0.3454   4.8046   2.8980   Fe        1 RES1   0.0000
     2 C1       0.2774   4.8394   4.8208   C.1       1 RES1  -1.0000
     3 N1       0.2689   4.8458   5.9702   N.1       1 RES1   0.0000
     4 C2      -0.3863   2.9809   3.0248   C.1       1 RES1   0.0000
     5 N2      -0.7965   1.9177   3.0823   N.1       1 RES1   0.0000
     6 C3       0.9413   6.6721   3.0508   C.1       1 RES1   0.0000
     7 N3       1.2906   7.7534   3.1221   N.1       1 RES1   0.0000
     8 N4       2.3221   4.0663   3.1933   N.ar      1 RES1   0.0000
     9 C4       2.9647   3.7810   4.2550   C.ar      1 RES1   0.0000
    10 H1       2.5372   3.9646   5.0592   H         1 RES1   0.0000
    11 C5       4.2394   3.2257   4.3427   C.ar      1 RES1   0.0000
    12 H2       4.5939   3.0364   5.1811   H         1 RES1   0.0000
    13 C6       4.9805   2.9520   3.2289   C.ar      1 RES1   0.0000
    14 H3       5.8339   2.5831   3.2604   H         1 RES1   0.0000
    15 C7       4.2540   3.3181   1.8974   C.ar      1 RES1   0.0000
    16 C8       4.9444   3.0892   0.8850   C.ar      1 RES1   0.0000
    17 H4       5.7986   2.7245   0.8685   H         1 RES1   0.0000
    18 C9       4.1043   3.5316  -0.3439   C.ar      1 RES1   0.0000
    19 H5       4.5211   3.4551  -1.1727   H         1 RES1   0.0000
    20 C10      2.8436   4.0134  -0.3589   C.ar      1 RES1   0.0000
    21 H6       2.4293   4.2354  -1.1617   H         1 RES1   0.0000
    22 C11      2.1951   4.1664   0.8178   C.ar      1 RES1   0.0000
    23 C12      2.9420   3.8100   2.0837   C.ar      1 RES1   0.0000
    24 N5       1.0609   4.5868   1.1014   N.am      1 RES1   0.0000
    25 C13      0.0824   4.9155   0.1000   C.2       1 RES1   0.0000
    26 O1       0.1177   4.8376  -1.0973   O.2       1 RES1   0.0000
    27 C14     -1.1470   5.4019   0.7959   C.ar      1 RES1   0.0000
    28 C15     -2.3077   5.9202  -0.1356   C.ar      1 RES1   0.0000
    29 H7      -2.1892   5.8651  -1.0562   H         1 RES1   0.0000
    30 C16     -3.4192   6.4207   0.3082   C.ar      1 RES1   0.0000
    31 H8      -4.0850   6.7526  -0.2507   H         1 RES1   0.0000
    32 C17     -3.5367   6.4185   1.8932   C.ar      1 RES1   0.0000
    33 C18     -4.6218   6.8962   2.1905   C.ar      1 RES1   0.0000
    34 H9      -5.2642   7.2537   1.6220   H         1 RES1   0.0000
    35 C19     -4.6810   6.7622   3.7851   C.ar      1 RES1   0.0000
    36 H10     -5.4636   7.0748   4.1769   H         1 RES1   0.0000
    37 C20     -3.7593   6.2596   4.6578   C.ar      1 RES1   0.0000
    38 H11     -3.9093   6.2217   5.5742   H         1 RES1   0.0000
    39 C21     -2.4626   5.7669   4.0153   C.ar      1 RES1   0.0000
    40 H12     -1.7442   5.4190   4.4920   H         1 RES1   0.0000
    41 C22     -2.4928   5.9142   2.5207   C.ar      1 RES1   0.0000
    42 N6      -1.2261   5.4109   1.9686   N.ar      1 RES1   0.0000
    43 P1       0.2592  12.8325   4.0895   P.3       2 RES2   1.0000
    44 C23     -0.7303  11.4720   4.7317   C.ar      2 RES2   0.0000
    45 C24     -0.7683  10.2416   4.0440   C.ar      2 RES2   0.0000
    46 H13     -0.2697  10.1195   3.2687   H         2 RES2   0.0000
    47 C25     -1.5583   9.2181   4.5399   C.ar      2 RES2   0.0000
    48 H14     -1.5964   8.4060   4.0892   H         2 RES2   0.0000
    49 C26     -2.2853   9.3954   5.6880   C.ar      2 RES2   0.0000
    50 H15     -2.8121   8.7004   6.0140   H         2 RES2   0.0000
    51 C27     -2.2394  10.5934   6.3620   C.ar      2 RES2   0.0000
    52 H16     -2.7352  10.7051   7.1414   H         2 RES2   0.0000
    53 C28     -1.4585  11.6341   5.8852   C.ar      2 RES2   0.0000
    54 H17     -1.4270  12.4411   6.3455   H         2 RES2   0.0000
    55 C29     -0.3039  13.2785   2.4330   C.ar      2 RES2   0.0000
    56 C30      0.2201  14.4278   1.8535   C.ar      2 RES2   0.0000
    57 H18      0.8092  14.9627   2.3357   H         2 RES2   0.0000
    58 C31     -0.1271  14.7802   0.5754   C.ar      2 RES2   0.0000
    59 H19      0.2297  15.5481   0.1932   H         2 RES2   0.0000
    60 C32     -0.9921  14.0062  -0.1370   C.ar      2 RES2   0.0000
    61 H20     -1.2173  14.2389  -1.0083   H         2 RES2   0.0000
    62 C33     -1.5253  12.8947   0.4315   C.ar      2 RES2   0.0000
    63 H21     -2.1274  12.3783  -0.0534   H         2 RES2   0.0000
    64 C34     -1.1900  12.5178   1.7165   C.ar      2 RES2   0.0000
    65 H22     -1.5631  11.7534   2.0933   H         2 RES2   0.0000
    66 C35      1.9975  12.3991   4.0317   C.ar      2 RES2   0.0000
    67 C36      2.9379  13.3914   3.7385   C.ar      2 RES2   0.0000
    68 H23      2.6592  14.2728   3.6358   H         2 RES2   0.0000
    69 C37      4.2787  13.0781   3.6015   C.ar      2 RES2   0.0000
    70 H24      4.8999  13.7404   3.4002   H         2 RES2   0.0000
    71 C38      4.6773  11.7839   3.7659   C.ar      2 RES2   0.0000
    72 H25      5.5755  11.5679   3.6632   H         2 RES2   0.0000
    73 C39      3.7909  10.8022   4.0769   C.ar      2 RES2   0.0000
    74 H26      4.0863   9.9293   4.1988   H         2 RES2   0.0000
    75 C40      2.4491  11.1053   4.2139   C.ar      2 RES2   0.0000
    76 H27      1.8445  10.4332   4.4290   H         2 RES2   0.0000
    77 C41      0.0243  14.2349   5.1742   C.ar      2 RES2   0.0000
    78 C42     -1.1213  15.0151   5.0030   C.ar      2 RES2   0.0000
    79 H28     -1.7047  14.8463   4.2988   H         2 RES2   0.0000
    80 C43     -1.3764  16.0402   5.8921   C.ar      2 RES2   0.0000
    81 H29     -2.1465  16.5522   5.7962   H         2 RES2   0.0000
    82 C44     -0.5032  16.3112   6.9195   C.ar      2 RES2   0.0000
    83 H30     -0.6787  17.0127   7.5045   H         2 RES2   0.0000
    84 C45      0.6315  15.5463   7.0853   C.ar      2 RES2   0.0000
    85 H31      1.2166  15.7318   7.7839   H         2 RES2   0.0000
    86 C46      0.9037  14.4963   6.2113   C.ar      2 RES2   0.0000
    87 H32      1.6669  13.9780   6.3236   H         2 RES2   0.0000
@<TRIPOS>BOND
     1     1     2    1
     2     2     3    3
     3     4     1    1
     4     5     4    3
     5     6     1    1
     6     7     6    3
     7     8     1    1
     8     9     8   ar
     9    10     9    1
    10    11     9   ar
    11    12    11    1
    12    13    11   ar
    13    14    13    1
    14    15    13   ar
    15    16    15   ar
    16    17    16    1
    17    18    16   ar
    18    19    18    1
    19    20    18   ar
    20    21    20    1
    21    22    20   ar
    22    23     8   ar
    23    24     1    1
    24    25    24   am
    25    26    25    2
    26    27    25    1
    27    28    27   ar
    28    29    28    1
    29    30    28   ar
    30    31    30    1
    31    32    30   ar
    32    33    32   ar
    33    34    33    1
    34    35    33   ar
    35    36    35    1
    36    37    35   ar
    37    38    37    1
    38    39    37   ar
    39    40    39    1
    40    41    32   ar
    41    42     1    1
    42    15    23   ar
    43    22    23   ar
    44    22    24    1
    45    27    42   ar
    46    39    41   ar
    47    41    42   ar
    48    43    44    1
    49    44    45   ar
    50    45    46    1
    51    47    45   ar
    52    48    47    1
    53    49    47   ar
    54    50    49    1
    55    51    49   ar
    56    52    51    1
    57    53    44   ar
    58    54    53    1
    59    55    43    1
    60    56    55   ar
    61    57    56    1
    62    58    56   ar
    63    59    58    1
    64    60    58   ar
    65    61    60    1
    66    62    60   ar
    67    63    62    1
    68    64    55   ar
    69    65    64    1
    70    66    43    1
    71    67    66   ar
    72    68    67    1
    73    69    67   ar
    74    70    69    1
    75    71    69   ar
    76    72    71    1
    77    73    71   ar
    78    74    73    1
    79    75    66   ar
    80    76    75    1
    81    77    43    1
    82    78    77   ar
    83    79    78    1
    84    80    78   ar
    85    81    80    1
    86    82    80   ar
    87    83    82    1
    88    84    82   ar
    89    85    84    1
    90    86    77   ar
    91    87    86    1
    92    51    53   ar
    93    62    64   ar
    94    73    75   ar
    95    84    86   ar
@<TRIPOS>SUBSTRUCTURE
     1 RES1        1 GROUP             0 ****  ****    0  
     2 RES2       43 GROUP             0 ****  ****    0  
@<TRIPOS>CRYSIN
    9.3047   14.7946   14.8284  109.4130   97.3060  100.3200     2     1
