@<TRIPOS>MOLECULE
XUCSOG
    77    78     1     0     0
SMALL
NO_CHARGES
****
Generated from the CSD

@<TRIPOS>ATOM
     1 Fe1     25.5135   2.4795  13.5561   Fe        1 RES1   0.0000
     2 P1      24.3140   0.6369  13.5859   P.3       1 RES1   0.0000
     3 C1      23.6592   0.2301  16.3539   C.3       1 RES1   0.0000
     4 H1      24.0949   1.0979  16.4833   H         1 RES1   0.0000
     5 H2      23.8364  -0.3432  17.1293   H         1 RES1   0.0000
     6 H3      22.6934   0.3620  16.2581   H         1 RES1   0.0000
     7 P2      23.6003   3.5509  13.6706   P.3       1 RES1   0.0000
     8 C2      24.2116  -0.4379  15.0885   C.3       1 RES1   0.0000
     9 H4      23.6425  -1.2179  14.8746   H         1 RES1   0.0000
    10 H5      25.1189  -0.7806  15.2876   H         1 RES1   0.0000
    11 C3      23.5187  -1.6795  12.0403   C.3       1 RES1   0.0000
    12 H6      23.2989  -2.1423  12.8761   H         1 RES1   0.0000
    13 H7      23.8296  -2.3317  11.3776   H         1 RES1   0.0000
    14 H8      22.7206  -1.2249  11.7006   H         1 RES1   0.0000
    15 C4      24.6232  -0.6474  12.3004   C.3       1 RES1   0.0000
    16 H9      24.8127  -0.1835  11.4475   H         1 RES1   0.0000
    17 H10     25.4455  -1.1386  12.5531   H         1 RES1   0.0000
    18 C5      22.5284   1.0547  13.3234   C.3       1 RES1   0.0000
    19 H11     22.3430   1.1545  12.3559   H         1 RES1   0.0000
    20 H12     21.9552   0.3303  13.6789   H         1 RES1   0.0000
    21 C6      22.2294   2.3672  14.0531   C.3       1 RES1   0.0000
    22 H13     22.1763   2.2107  15.0298   H         1 RES1   0.0000
    23 H14     21.3633   2.7374  13.7472   H         1 RES1   0.0000
    24 C7      23.6286   4.4761  16.3602   C.3       1 RES1   0.0000
    25 H15     23.0098   3.7917  16.6883   H         1 RES1   0.0000
    26 H16     23.5745   5.2675  16.9367   H         1 RES1   0.0000
    27 H17     24.5440   4.1230  16.3730   H         1 RES1   0.0000
    28 C8      23.2510   4.8623  14.9246   C.3       1 RES1   0.0000
    29 H18     23.7480   5.6811  14.6742   H         1 RES1   0.0000
    30 H19     22.2852   5.0781  14.8979   H         1 RES1   0.0000
    31 C9      21.6317   5.1031  12.1827   C.3       1 RES1   0.0000
    32 H20     20.9279   4.5157  12.5282   H         1 RES1   0.0000
    33 H21     21.3905   5.4073  11.2829   H         1 RES1   0.0000
    34 H22     21.7307   5.8785  12.7736   H         1 RES1   0.0000
    35 C10     22.9591   4.3321  12.1256   C.3       1 RES1   0.0000
    36 H23     23.6527   4.9551  11.7937   H         1 RES1   0.0000
    37 H24     22.8635   3.6181  11.4475   H         1 RES1   0.0000
    38 C11     25.5135   2.4795  11.5956   C.1       1 RES1   0.0000
    39 C12     25.5135   2.4795  10.4122   C.1       1 RES1   0.0000
    40 H25     25.5135   2.4795   9.4629   H         1 RES1   0.0000
    41 H26     25.5135   2.4795  15.0485   H         1 RES1   0.0000
    42 P1M     26.7130   4.3221  13.5859   P.3       1 RES1   0.0000
    43 C1M     27.3678   4.7290  16.3539   C.3       1 RES1   0.0000
    44 H1M     26.9321   3.8611  16.4833   H         1 RES1   0.0000
    45 H2M     27.1906   5.3022  17.1293   H         1 RES1   0.0000
    46 H3M     28.3336   4.5970  16.2581   H         1 RES1   0.0000
    47 P2M     27.4267   1.4082  13.6706   P.3       1 RES1   0.0000
    48 C2M     26.8154   5.3969  15.0885   C.3       1 RES1   0.0000
    49 H4M     27.3845   6.1770  14.8746   H         1 RES1   0.0000
    50 H5M     25.9081   5.7396  15.2876   H         1 RES1   0.0000
    51 C3M     27.5083   6.6386  12.0403   C.3       1 RES1   0.0000
    52 H6M     27.7281   7.1014  12.8761   H         1 RES1   0.0000
    53 H7M     27.1974   7.2908  11.3776   H         1 RES1   0.0000
    54 H8M     28.3064   6.1839  11.7006   H         1 RES1   0.0000
    55 C4M     26.4038   5.6064  12.3004   C.3       1 RES1   0.0000
    56 H9M     26.2143   5.1425  11.4475   H         1 RES1   0.0000
    57 H10M    25.5815   6.0976  12.5531   H         1 RES1   0.0000
    58 C5M     28.4986   3.9044  13.3234   C.3       1 RES1   0.0000
    59 H11M    28.6840   3.8046  12.3559   H         1 RES1   0.0000
    60 H12M    29.0718   4.6288  13.6789   H         1 RES1   0.0000
    61 C6M     28.7976   2.5919  14.0531   C.3       1 RES1   0.0000
    62 H13M    28.8507   2.7483  15.0298   H         1 RES1   0.0000
    63 H14M    29.6637   2.2217  13.7472   H         1 RES1   0.0000
    64 C7M     27.3984   0.4829  16.3602   C.3       1 RES1   0.0000
    65 H15M    28.0172   1.1674  16.6883   H         1 RES1   0.0000
    66 H16M    27.4525  -0.3085  16.9367   H         1 RES1   0.0000
    67 H17M    26.4830   0.8361  16.3730   H         1 RES1   0.0000
    68 C8M     27.7760   0.0967  14.9246   C.3       1 RES1   0.0000
    69 H18M    27.2790  -0.7220  14.6742   H         1 RES1   0.0000
    70 H19M    28.7418  -0.1190  14.8979   H         1 RES1   0.0000
    71 C9M     29.3953  -0.1440  12.1827   C.3       1 RES1   0.0000
    72 H20M    30.0991   0.4433  12.5282   H         1 RES1   0.0000
    73 H21M    29.6365  -0.4483  11.2829   H         1 RES1   0.0000
    74 H22M    29.2963  -0.9194  12.7736   H         1 RES1   0.0000
    75 C10M    28.0679   0.6269  12.1256   C.3       1 RES1   0.0000
    76 H23M    27.3743   0.0040  11.7937   H         1 RES1   0.0000
    77 H24M    28.1635   1.3409  11.4475   H         1 RES1   0.0000
@<TRIPOS>BOND
     1     1     2    1
     2     2     8    1
     3     3     4    1
     4     5     3    1
     5     6     3    1
     6     7     1    1
     7     8     3    1
     8     9     8    1
     9    10     8    1
    10    11    12    1
    11    13    11    1
    12    14    11    1
    13    15     2    1
    14    16    15    1
    15    17    15    1
    16    18     2    1
    17    19    18    1
    18    20    18    1
    19    21     7    1
    20    22    21    1
    21    23    21    1
    22    24    25    1
    23    26    24    1
    24    27    24    1
    25    28     7    1
    26    29    28    1
    27    30    28    1
    28    31    32    1
    29    33    31    1
    30    34    31    1
    31    35     7    1
    32    36    35    1
    33    37    35    1
    34    38     1    1
    35    39    38    3
    36    40    39    1
    37    41     1    1
    38    42     1    1
    39    43    44    1
    40    45    43    1
    41    46    43    1
    42    47     1    1
    43    48    42    1
    44    49    48    1
    45    50    48    1
    46    51    52    1
    47    53    51    1
    48    54    51    1
    49    55    42    1
    50    56    55    1
    51    57    55    1
    52    58    42    1
    53    59    58    1
    54    60    58    1
    55    61    47    1
    56    62    61    1
    57    63    61    1
    58    64    65    1
    59    66    64    1
    60    67    64    1
    61    68    47    1
    62    69    68    1
    63    70    68    1
    64    71    72    1
    65    73    71    1
    66    74    71    1
    67    75    47    1
    68    76    75    1
    69    77    75    1
    70    11    15    1
    71    18    21    1
    72    24    28    1
    73    31    35    1
    74    43    48    1
    75    51    55    1
    76    58    61    1
    77    64    68    1
    78    71    75    1
@<TRIPOS>SUBSTRUCTURE
     1 RES1        1 GROUP             0 ****  ****    0  
@<TRIPOS>CRYSIN
   34.0180    9.9181   15.5283   90.0000   90.0000   90.0000    43     1
