@<TRIPOS>MOLECULE
XUCTAT
    83    85     1     0     0
SMALL
NO_CHARGES
****
Generated from the CSD

@<TRIPOS>ATOM
     1 Fe1      1.7276   4.5129  12.6891   Fe        1 RES1   0.0000
     2 P1       0.8459   5.5984  14.4133   P.3       1 RES1   0.0000
     3 P2       2.6929   3.4191  10.9727   P.3       1 RES1   0.0000
     4 P3       2.5236   6.3497  11.7728   P.3       1 RES1   0.0000
     5 P4      -0.3817   4.6390  11.8153   P.3       1 RES1   0.0000
     6 O1       1.2012   2.6857  13.4765   O.co2     1 RES1   0.0000
     7 O2       1.8638   1.1005  14.9195   O.co2     1 RES1   0.0000
     8 O3       4.1250   1.4026  16.0235   O.3       1 RES1   0.0000
     9 H1       3.4207   1.0498  15.7316   H         1 RES1   0.0000
    10 O4       5.3335   3.2169  15.6333   O.2       1 RES1   0.0000
    11 C1       3.2384   3.0342  14.5219   C.2       1 RES1   0.0000
    12 C2       2.0408   2.2074  14.3176   C.2       1 RES1   0.0000
    13 C3       3.2633   4.1842  13.8076   C.2       1 RES1   0.0000
    14 H2       3.9924   4.7925  13.8552   H         1 RES1   0.0000
    15 C4       4.1658   2.3439  11.3144   C.3       1 RES1   0.0000
    16 H3       4.6934   2.2696  10.4807   H         1 RES1   0.0000
    17 H4       4.7343   2.8021  11.9822   H         1 RES1   0.0000
    18 C5       4.1347   7.0014  12.4049   C.3       1 RES1   0.0000
    19 H5       4.2314   7.9360  12.0919   H         1 RES1   0.0000
    20 H6       4.0886   7.0257  13.3936   H         1 RES1   0.0000
    21 C6       3.8792   0.9436  11.8195   C.3       1 RES1   0.0000
    22 H7       3.3533   0.4566  11.1510   H         1 RES1   0.0000
    23 H8       3.3751   0.9967  12.6578   H         1 RES1   0.0000
    24 H9       4.7251   0.4733  11.9751   H         1 RES1   0.0000
    25 C7       3.4606   4.6256   9.7975   C.3       1 RES1   0.0000
    26 H10      4.4406   4.6378   9.9360   H         1 RES1   0.0000
    27 H11      3.2879   4.3298   8.8677   H         1 RES1   0.0000
    28 C8       4.3140   2.5851  15.4257   C.2       1 RES1   0.0000
    29 C9       1.7093   2.3196   9.8907   C.3       1 RES1   0.0000
    30 H12      1.3085   1.6096  10.4524   H         1 RES1   0.0000
    31 H13      0.9648   2.8476   9.5062   H         1 RES1   0.0000
    32 C10     -0.6869   6.4902  13.9148   C.3       1 RES1   0.0000
    33 H14     -1.2228   6.7177  14.7147   H         1 RES1   0.0000
    34 H15     -0.4538   7.3291  13.4431   H         1 RES1   0.0000
    35 C11     -0.6922   5.4904  10.2101   C.3       1 RES1   0.0000
    36 H16     -0.3371   6.4097  10.2897   H         1 RES1   0.0000
    37 H17     -0.1494   5.0292   9.5203   H         1 RES1   0.0000
    38 C12     -1.4847   5.5753  12.9919   C.3       1 RES1   0.0000
    39 H18     -2.1292   6.1185  12.4721   H         1 RES1   0.0000
    40 H19     -2.0004   4.9306  13.5386   H         1 RES1   0.0000
    41 C13      0.2466   4.4815  15.7339   C.3       1 RES1   0.0000
    42 H20     -0.2937   3.7715  15.3054   H         1 RES1   0.0000
    43 H21      1.0371   4.0416  16.1384   H         1 RES1   0.0000
    44 C14      2.9006   6.0502   9.9918   C.3       1 RES1   0.0000
    45 H22      2.0757   6.1594   9.4549   H         1 RES1   0.0000
    46 H23      3.5642   6.7132   9.6760   H         1 RES1   0.0000
    47 C15      1.6902   6.9134  15.3744   C.3       1 RES1   0.0000
    48 H24      2.1018   7.5491  14.7359   H         1 RES1   0.0000
    49 H25      1.0055   7.4110  15.8890   H         1 RES1   0.0000
    50 C16      5.3932   6.2368  12.0087   C.3       1 RES1   0.0000
    51 H26      5.5165   6.2929  11.0378   H         1 RES1   0.0000
    52 H27      5.3016   5.2992  12.2740   H         1 RES1   0.0000
    53 H28      6.1692   6.6312  12.4597   H         1 RES1   0.0000
    54 C17     -2.0974   5.5935   9.6790   C.3       1 RES1   0.0000
    55 H29     -2.0899   6.0760   8.8270   H         1 RES1   0.0000
    56 H30     -2.6546   6.0760  10.3233   H         1 RES1   0.0000
    57 H31     -2.4624   4.6939   9.5416   H         1 RES1   0.0000
    58 C18     -1.2543   3.0357  11.6285   C.3       1 RES1   0.0000
    59 H32     -1.1125   2.7277  10.6982   H         1 RES1   0.0000
    60 H33     -0.8026   2.3818  12.2210   H         1 RES1   0.0000
    61 C19      2.4690   1.6506   8.7368   C.3       1 RES1   0.0000
    62 H34      2.7644   2.3348   8.1002   H         1 RES1   0.0000
    63 H35      1.8785   1.0149   8.2823   H         1 RES1   0.0000
    64 H36      3.2489   1.1758   9.0923   H         1 RES1   0.0000
    65 C20      1.6108   7.9542  11.7063   C.3       1 RES1   0.0000
    66 H37      0.6467   7.7584  11.5949   H         1 RES1   0.0000
    67 H38      1.7219   8.4123  12.5765   H         1 RES1   0.0000
    68 C21     -2.7625   2.9508  11.9168   C.3       1 RES1   0.0000
    69 H39     -3.2222   3.6911  11.4676   H         1 RES1   0.0000
    70 H40     -2.9145   3.0099  12.8824   H         1 RES1   0.0000
    71 H41     -3.1107   2.0981  11.5807   H         1 RES1   0.0000
    72 C22      2.7689   6.4401  16.3436   C.3       1 RES1   0.0000
    73 H42      3.4916   6.0077  15.8413   H         1 RES1   0.0000
    74 H43      2.3810   5.7984  16.9750   H         1 RES1   0.0000
    75 H44      3.1268   7.2077  16.8352   H         1 RES1   0.0000
    76 C23     -0.5791   5.0762  16.8618   C.3       1 RES1   0.0000
    77 H45     -1.3588   5.5374  16.4886   H         1 RES1   0.0000
    78 H46     -0.0328   5.7149  17.3676   H         1 RES1   0.0000
    79 H47     -0.8797   4.3601  17.4595   H         1 RES1   0.0000
    80 C24      2.0347   8.9190  10.6009   C.3       1 RES1   0.0000
    81 H48      1.7911   8.5443   9.7290   H         1 RES1   0.0000
    82 H49      3.0045   9.0541  10.6399   H         1 RES1   0.0000
    83 H50      1.5800   9.7777  10.7247   H         1 RES1   0.0000
@<TRIPOS>BOND
     1     1     2    1
     2     2    32    1
     3     3     1    1
     4     4     1    1
     5     5     1    1
     6     6     1    1
     7     7    12    2
     8     8     9    1
     9    10    28    2
    10    11    12    1
    11    12     6    1
    12    13     1    1
    13    14    13    1
    14    15     3    1
    15    16    15    1
    16    17    15    1
    17    18     4    1
    18    19    18    1
    19    20    18    1
    20    21    15    1
    21    22    21    1
    22    23    21    1
    23    24    21    1
    24    25     3    1
    25    26    25    1
    26    27    25    1
    27    28     8    1
    28    29     3    1
    29    30    29    1
    30    31    29    1
    31    32    33    1
    32    34    32    1
    33    35     5    1
    34    36    35    1
    35    37    35    1
    36    38     5    1
    37    39    38    1
    38    40    38    1
    39    41     2    1
    40    42    41    1
    41    43    41    1
    42    44     4    1
    43    45    44    1
    44    46    44    1
    45    47     2    1
    46    48    47    1
    47    49    47    1
    48    50    18    1
    49    51    50    1
    50    52    50    1
    51    53    50    1
    52    54    35    1
    53    55    54    1
    54    56    54    1
    55    57    54    1
    56    58     5    1
    57    59    58    1
    58    60    58    1
    59    61    29    1
    60    62    61    1
    61    63    61    1
    62    64    61    1
    63    65     4    1
    64    66    65    1
    65    67    65    1
    66    68    58    1
    67    69    68    1
    68    70    68    1
    69    71    68    1
    70    72    47    1
    71    73    72    1
    72    74    72    1
    73    75    72    1
    74    76    41    1
    75    77    76    1
    76    78    76    1
    77    79    76    1
    78    80    65    1
    79    81    80    1
    80    82    80    1
    81    83    80    1
    82    11    13    2
    83    11    28    1
    84    25    44    1
    85    32    38    1
@<TRIPOS>SUBSTRUCTURE
     1 RES1        1 GROUP             0 ****  ****    0  
@<TRIPOS>CRYSIN
   10.6250   15.1710   18.0260   90.0000  101.1470   90.0000   231     1
