@<TRIPOS>MOLECULE
XUGTEA
   123   131     4     0     0
SMALL
USER_CHARGES
****
Generated from the CSD

@<TRIPOS>ATOM
     1 Fe1      5.8177   5.8177   5.8177   Fe        1 RES1   2.0000
     2 N1       4.7191   4.0955   6.4597   N.2       1 RES1   0.0000
     3 N2       7.2461   4.7690   7.1974   N.2       1 RES1   0.0000
     4 N3       4.7096   2.2150   7.6096   N.pl3     1 RES1   0.0000
     5 C1       8.6093   5.1874   7.6234   C.3       1 RES1   0.0000
     6 H1       8.5019   6.0381   8.0982   H         1 RES1   0.0000
     7 C2       9.4778   5.4795   6.4141   C.ar      1 RES1   0.0000
     8 C3       6.7745   3.6454   7.6321   C.2       1 RES1   0.0000
     9 H2       7.2821   3.0875   8.1761   H         1 RES1   0.0000
    10 C4      11.0661   6.8975   5.2688   C.ar      1 RES1   0.0000
    11 C5      11.1683   5.9342   4.2171   C.ar      1 RES1   0.0000
    12 C6       9.6263   4.5065   5.4040   C.ar      1 RES1   0.0000
    13 H3       9.1603   3.7043   5.4646   H         1 RES1   0.0000
    14 C7       9.3474   4.2587   8.5729   C.3       1 RES1   0.0000
    15 H4       8.7947   4.0803   9.3387   H         1 RES1   0.0000
    16 H5      10.1634   4.6763   8.8571   H         1 RES1   0.0000
    17 H6       9.5466   3.4340   8.1242   H         1 RES1   0.0000
    18 C8      10.2031   6.6393   6.3413   C.ar      1 RES1   0.0000
    19 H7      10.1201   7.2717   7.0188   H         1 RES1   0.0000
    20 C9       3.4912   2.3407   7.0205   C.2       1 RES1   0.0000
    21 H8       2.7826   1.7447   7.0933   H         1 RES1   0.0000
    22 C10      3.4981   3.4964   6.3101   C.2       1 RES1   0.0000
    23 H9       2.7912   3.8256   5.8042   H         1 RES1   0.0000
    24 C11      5.1112   1.1349   8.5105   C.3       1 RES1   0.0000
    25 H10      4.3939   0.5025   8.5920   H         1 RES1   0.0000
    26 H11      5.3173   1.4987   9.3734   H         1 RES1   0.0000
    27 H12      5.8874   0.6930   8.1553   H         1 RES1   0.0000
    28 C12      5.4421   3.2954   7.2423   C.2       1 RES1   0.0000
    29 C13     10.4458   4.7300   4.3384   C.ar      1 RES1   0.0000
    30 H13     10.5307   4.0785   3.6818   H         1 RES1   0.0000
    31 C14     12.0277   6.2270   3.1169   C.ar      1 RES1   0.0000
    32 H14     12.1109   5.6102   2.4274   H         1 RES1   0.0000
    33 C15     11.8181   8.1034   5.1701   C.ar      1 RES1   0.0000
    34 H15     11.7540   8.7410   5.8423   H         1 RES1   0.0000
    35 C16     12.7173   7.3757   3.0580   C.ar      1 RES1   0.0000
    36 H16     13.2579   7.5420   2.3200   H         1 RES1   0.0000
    37 C17     12.6428   8.3338   4.0855   C.ar      1 RES1   0.0000
    38 H17     13.1435   9.1152   4.0352   H         1 RES1   0.0000
    39 N1D      6.4597   4.7191   4.0955   N.2       1 RES1   0.0000
    40 N2D      7.1974   7.2461   4.7690   N.2       1 RES1   0.0000
    41 N3D      7.6096   4.7096   2.2150   N.pl3     1 RES1   0.0000
    42 C1D      7.6234   8.6093   5.1874   C.3       1 RES1   0.0000
    43 H1D      8.0982   8.5019   6.0381   H         1 RES1   0.0000
    44 C2D      6.4141   9.4778   5.4795   C.ar      1 RES1   0.0000
    45 C3D      7.6321   6.7745   3.6454   C.2       1 RES1   0.0000
    46 H2D      8.1761   7.2821   3.0875   H         1 RES1   0.0000
    47 C4D      5.2688  11.0661   6.8975   C.ar      1 RES1   0.0000
    48 C5D      4.2171  11.1683   5.9342   C.ar      1 RES1   0.0000
    49 C6D      5.4040   9.6263   4.5065   C.ar      1 RES1   0.0000
    50 H3D      5.4646   9.1603   3.7043   H         1 RES1   0.0000
    51 C7D      8.5729   9.3474   4.2587   C.3       1 RES1   0.0000
    52 H4D      9.3387   8.7947   4.0803   H         1 RES1   0.0000
    53 H5D      8.8571  10.1634   4.6763   H         1 RES1   0.0000
    54 H6D      8.1242   9.5466   3.4340   H         1 RES1   0.0000
    55 C8D      6.3413  10.2031   6.6393   C.ar      1 RES1   0.0000
    56 H7D      7.0188  10.1201   7.2717   H         1 RES1   0.0000
    57 C9D      7.0205   3.4912   2.3407   C.2       1 RES1   0.0000
    58 H8D      7.0933   2.7826   1.7447   H         1 RES1   0.0000
    59 C10D     6.3101   3.4981   3.4964   C.2       1 RES1   0.0000
    60 H9D      5.8042   2.7912   3.8256   H         1 RES1   0.0000
    61 C11D     8.5105   5.1112   1.1349   C.3       1 RES1   0.0000
    62 H10D     8.5920   4.3939   0.5025   H         1 RES1   0.0000
    63 H11D     9.3734   5.3173   1.4987   H         1 RES1   0.0000
    64 H12D     8.1553   5.8874   0.6930   H         1 RES1   0.0000
    65 C12D     7.2423   5.4421   3.2954   C.2       1 RES1   0.0000
    66 C13D     4.3384  10.4458   4.7300   C.ar      1 RES1   0.0000
    67 H13D     3.6818  10.5307   4.0785   H         1 RES1   0.0000
    68 C14D     3.1169  12.0277   6.2270   C.ar      1 RES1   0.0000
    69 H14D     2.4274  12.1109   5.6102   H         1 RES1   0.0000
    70 C15D     5.1701  11.8181   8.1034   C.ar      1 RES1   0.0000
    71 H15D     5.8423  11.7540   8.7410   H         1 RES1   0.0000
    72 C16D     3.0580  12.7173   7.3757   C.ar      1 RES1   0.0000
    73 H16D     2.3200  13.2579   7.5420   H         1 RES1   0.0000
    74 C17D     4.0855  12.6428   8.3338   C.ar      1 RES1   0.0000
    75 H17D     4.0352  13.1435   9.1152   H         1 RES1   0.0000
    76 N1H      4.0955   6.4597   4.7191   N.2       1 RES1   0.0000
    77 N2H      4.7690   7.1974   7.2461   N.2       1 RES1   0.0000
    78 N3H      2.2150   7.6096   4.7096   N.pl3     1 RES1   0.0000
    79 C1H      5.1874   7.6234   8.6093   C.3       1 RES1   0.0000
    80 H1H      6.0381   8.0982   8.5019   H         1 RES1   0.0000
    81 C2H      5.4795   6.4141   9.4778   C.ar      1 RES1   0.0000
    82 C3H      3.6454   7.6321   6.7745   C.2       1 RES1   0.0000
    83 H2H      3.0875   8.1761   7.2821   H         1 RES1   0.0000
    84 C4H      6.8975   5.2688  11.0661   C.ar      1 RES1   0.0000
    85 C5H      5.9342   4.2171  11.1683   C.ar      1 RES1   0.0000
    86 C6H      4.5065   5.4040   9.6263   C.ar      1 RES1   0.0000
    87 H3H      3.7043   5.4646   9.1603   H         1 RES1   0.0000
    88 C7H      4.2587   8.5729   9.3474   C.3       1 RES1   0.0000
    89 H4H      4.0803   9.3387   8.7947   H         1 RES1   0.0000
    90 H5H      4.6763   8.8571  10.1634   H         1 RES1   0.0000
    91 H6H      3.4340   8.1242   9.5466   H         1 RES1   0.0000
    92 C8H      6.6393   6.3413  10.2031   C.ar      1 RES1   0.0000
    93 H7H      7.2717   7.0188  10.1201   H         1 RES1   0.0000
    94 C9H      2.3407   7.0205   3.4912   C.2       1 RES1   0.0000
    95 H8H      1.7447   7.0933   2.7826   H         1 RES1   0.0000
    96 C10H     3.4964   6.3101   3.4981   C.2       1 RES1   0.0000
    97 H9H      3.8256   5.8042   2.7912   H         1 RES1   0.0000
    98 C11H     1.1349   8.5105   5.1112   C.3       1 RES1   0.0000
    99 H10H     0.5025   8.5920   4.3939   H         1 RES1   0.0000
   100 H11H     1.4987   9.3734   5.3173   H         1 RES1   0.0000
   101 H12H     0.6930   8.1553   5.8874   H         1 RES1   0.0000
   102 C12H     3.2954   7.2423   5.4421   C.2       1 RES1   0.0000
   103 C13H     4.7300   4.3384  10.4458   C.ar      1 RES1   0.0000
   104 H13H     4.0785   3.6818  10.5307   H         1 RES1   0.0000
   105 C14H     6.2270   3.1169  12.0277   C.ar      1 RES1   0.0000
   106 H14H     5.6102   2.4274  12.1109   H         1 RES1   0.0000
   107 C15H     8.1034   5.1701  11.8181   C.ar      1 RES1   0.0000
   108 H15H     8.7410   5.8423  11.7540   H         1 RES1   0.0000
   109 C16H     7.3757   3.0580  12.7173   C.ar      1 RES1   0.0000
   110 H16H     7.5420   2.3200  13.2579   H         1 RES1   0.0000
   111 C17H     8.3338   4.0855  12.6428   C.ar      1 RES1   0.0000
   112 H17H     9.1152   4.0352  13.1435   H         1 RES1   0.0000
   113 F1       2.0289  16.4112   8.3546   F         2 RES2   0.0000
   114 F2       0.0433  17.2827   8.6197   F         2 RES2   0.0000
   115 B1       0.8213  16.5047   7.8417   B         2 RES2  -1.0000
   116 F1E      0.3084  15.2971   7.7482   F         2 RES2   0.0000
   117 F1J      0.9148  17.0176   6.6341   F         2 RES2   0.0000
   118 F3       9.0476   9.7511  -0.6844   F         3 RES3   0.0000
   119 F4       7.6009   9.7251   1.0621   F         3 RES3   0.0000
   120 B2       8.4083   8.9177   0.2547   B         3 RES3  -1.0000
   121 F3E      9.3474   8.2784   1.0881   F         3 RES3   0.0000
   122 F3J      7.5749   7.9786  -0.3846   F         3 RES3   0.0000
   123 O1      14.9212  11.0678   6.2582   O.3       4 RES4   0.0000
@<TRIPOS>BOND
     1     1     2    1
     2     2    22    1
     3     3     1    1
     4     4    20    1
     5     5     3    1
     6     6     5    1
     7     7     5    1
     8     8     3    2
     9     9     8    1
    10    10    11   ar
    11    11    29   ar
    12    12     7   ar
    13    13    12    1
    14    14     5    1
    15    15    14    1
    16    16    14    1
    17    17    14    1
    18    18     7   ar
    19    19    18    1
    20    20    21    1
    21    22    20    2
    22    23    22    1
    23    24     4    1
    24    25    24    1
    25    26    24    1
    26    27    24    1
    27    28     2    2
    28    29    12   ar
    29    30    29    1
    30    31    11   ar
    31    32    31    1
    32    33    10   ar
    33    34    33    1
    34    35    31   ar
    35    36    35    1
    36    37    33   ar
    37    38    37    1
    38    39     1    1
    39    40     1    1
    40    41    57    1
    41    42    40    1
    42    43    42    1
    43    44    42    1
    44    45    40    2
    45    46    45    1
    46    47    48   ar
    47    48    66   ar
    48    49    44   ar
    49    50    49    1
    50    51    42    1
    51    52    51    1
    52    53    51    1
    53    54    51    1
    54    55    44   ar
    55    56    55    1
    56    57    58    1
    57    59    39    1
    58    60    59    1
    59    61    41    1
    60    62    61    1
    61    63    61    1
    62    64    61    1
    63    65    39    2
    64    66    49   ar
    65    67    66    1
    66    68    48   ar
    67    69    68    1
    68    70    47   ar
    69    71    70    1
    70    72    68   ar
    71    73    72    1
    72    74    70   ar
    73    75    74    1
    74    76     1    1
    75    77     1    1
    76    78    94    1
    77    79    77    1
    78    80    79    1
    79    81    79    1
    80    82    77    2
    81    83    82    1
    82    84    85   ar
    83    85   103   ar
    84    86    81   ar
    85    87    86    1
    86    88    79    1
    87    89    88    1
    88    90    88    1
    89    91    88    1
    90    92    81   ar
    91    93    92    1
    92    94    95    1
    93    96    76    1
    94    97    96    1
    95    98    78    1
    96    99    98    1
    97   100    98    1
    98   101    98    1
    99   102    76    2
   100   103    86   ar
   101   104   103    1
   102   105    85   ar
   103   106   105    1
   104   107    84   ar
   105   108   107    1
   106   109   105   ar
   107   110   109    1
   108   111   107   ar
   109   112   111    1
   110     4    28    1
   111     8    28    1
   112    10    18   ar
   113    35    37   ar
   114    41    65    1
   115    45    65    1
   116    47    55   ar
   117    57    59    2
   118    72    74   ar
   119    78   102    1
   120    82   102    1
   121    84    92   ar
   122    94    96    2
   123   109   111   ar
   124   113   115    1
   125   114   115    1
   126   115   116    1
   127   117   115    1
   128   118   120    1
   129   119   120    1
   130   120   121    1
   131   122   120    1
@<TRIPOS>SUBSTRUCTURE
     1 RES1        1 GROUP             0 ****  ****    0  
     2 RES2      113 GROUP             0 ****  ****    0  
     3 RES3      118 GROUP             0 ****  ****    0  
     4 RES4      123 GROUP             0 ****  ****    0  
@<TRIPOS>CRYSIN
   17.3260   17.3260   17.3260   90.0000   90.0000   90.0000   198     1
