@<TRIPOS>MOLECULE
XUGTAW
   123   131     4     0     0
SMALL
USER_CHARGES
****
Generated from the CSD

@<TRIPOS>ATOM
     1 Fe1     11.5018   5.8140  14.4719   Fe        1 RES1   2.0000
     2 N1      10.0705   4.7653  15.8490   N.2       1 RES1   0.0000
     3 N2      12.6083   2.2190  16.2613   N.pl3     1 RES1   0.0000
     4 C1       8.7164   5.1878  16.2751   C.3       1 RES1   0.0000
     5 H1       8.8241   6.0398  16.7478   H         1 RES1   0.0000
     6 C2       7.8404   5.4701  15.0699   C.ar      1 RES1   0.0000
     7 C3       6.2597   6.8934  13.9167   C.ar      1 RES1   0.0000
     8 C4      10.5436   3.6502  16.2838   C.2       1 RES1   0.0000
     9 H2      10.0397   3.0926  16.8310   H         1 RES1   0.0000
    10 N3      12.6002   4.0907  15.1144   N.2       1 RES1   0.0000
    11 C5       6.1540   5.9359  12.8726   C.ar      1 RES1   0.0000
    12 C6       7.1196   6.6423  14.9972   C.ar      1 RES1   0.0000
    13 H3       7.2034   7.2761  15.6725   H         1 RES1   0.0000
    14 C7       7.9757   4.2597  17.2206   C.3       1 RES1   0.0000
    15 H4       7.8233   3.4164  16.7877   H         1 RES1   0.0000
    16 H5       7.1341   4.6528  17.4613   H         1 RES1   0.0000
    17 H6       8.5038   4.1212  18.0119   H         1 RES1   0.0000
    18 C8      11.8838   3.3004  15.8907   C.2       1 RES1   0.0000
    19 C9       7.6951   4.5021  14.0552   C.ar      1 RES1   0.0000
    20 H7       8.1679   3.7038  14.1141   H         1 RES1   0.0000
    21 C10     13.8232   2.3463  15.6743   C.2       1 RES1   0.0000
    22 H8      14.5349   1.7524  15.7470   H         1 RES1   0.0000
    23 C11     12.2059   1.1325  17.1565   C.3       1 RES1   0.0000
    24 H9      11.8925   1.5013  17.9859   H         1 RES1   0.0000
    25 H10     12.9591   0.5610  17.3245   H         1 RES1   0.0000
    26 H11     11.5029   0.6234  16.7461   H         1 RES1   0.0000
    27 C12     13.8059   3.4891  14.9643   C.2       1 RES1   0.0000
    28 H12     14.5089   3.8164  14.4518   H         1 RES1   0.0000
    29 C13      6.8761   4.7186  12.9955   C.ar      1 RES1   0.0000
    30 H13      6.7861   4.0623  12.3410   H         1 RES1   0.0000
    31 C14      5.2917   6.2129  11.7695   C.ar      1 RES1   0.0000
    32 H14      5.1965   5.5878  11.0890   H         1 RES1   0.0000
    33 C15      5.5012   8.0986  13.8232   C.ar      1 RES1   0.0000
    34 H15      5.5618   8.7341  14.5003   H         1 RES1   0.0000
    35 C16      4.6077   7.3887  11.7107   C.ar      1 RES1   0.0000
    36 H16      4.0796   7.5705  10.9678   H         1 RES1   0.0000
    37 C17      4.6805   8.3306  12.7444   C.ar      1 RES1   0.0000
    38 H17      4.1748   9.1116  12.7011   H         1 RES1   0.0000
    39 N1F     10.1247   7.2453  13.4232   N.2       1 RES1   0.0000
    40 N2F      9.7124   4.7075  10.8769   N.pl3     1 RES1   0.0000
    41 C1F      9.6986   8.5994  13.8457   C.3       1 RES1   0.0000
    42 H1F      9.2259   8.4917  14.6977   H         1 RES1   0.0000
    43 C2F     10.9038   9.4754  14.1280   C.ar      1 RES1   0.0000
    44 C3F     12.0570  11.0561  15.5513   C.ar      1 RES1   0.0000
    45 C4F      9.6899   6.7722  12.3081   C.2       1 RES1   0.0000
    46 H2F      9.1427   7.2761  11.7505   H         1 RES1   0.0000
    47 N3F     10.8593   4.7156  12.7486   N.2       1 RES1   0.0000
    48 C5F     13.1011  11.1618  14.5938   C.ar      1 RES1   0.0000
    49 C6F     10.9765  10.1962  15.3002   C.ar      1 RES1   0.0000
    50 H3F     10.3012  10.1124  15.9340   H         1 RES1   0.0000
    51 C7F      8.7531   9.3401  12.9176   C.3       1 RES1   0.0000
    52 H4F      9.1860   9.4925  12.0743   H         1 RES1   0.0000
    53 H5F      8.5124  10.1817  13.3107   H         1 RES1   0.0000
    54 H6F      7.9618   8.8120  12.7791   H         1 RES1   0.0000
    55 C8F     10.0830   5.4320  11.9583   C.2       1 RES1   0.0000
    56 C9F     11.9185   9.6207  13.1600   C.ar      1 RES1   0.0000
    57 H7F     11.8596   9.1479  12.3617   H         1 RES1   0.0000
    58 C10F    10.2994   3.4926  11.0042   C.2       1 RES1   0.0000
    59 H8F     10.2267   2.7809  10.4103   H         1 RES1   0.0000
    60 C11F     8.8172   5.1099   9.7904   C.3       1 RES1   0.0000
    61 H9F      7.9878   5.4233  10.1592   H         1 RES1   0.0000
    62 H10F     8.6492   4.3567   9.2189   H         1 RES1   0.0000
    63 H11F     9.2276   5.8129   9.2813   H         1 RES1   0.0000
    64 C12F    11.0094   3.5099  12.1470   C.2       1 RES1   0.0000
    65 H12F    11.5219   2.8069  12.4743   H         1 RES1   0.0000
    66 C13F    12.9782  10.4397  13.3765   C.ar      1 RES1   0.0000
    67 H13F    13.6327  10.5297  12.7202   H         1 RES1   0.0000
    68 C14F    14.2042  12.0241  14.8708   C.ar      1 RES1   0.0000
    69 H14F    14.8847  12.1193  14.2457   H         1 RES1   0.0000
    70 C15F    12.1505  11.8146  16.7565   C.ar      1 RES1   0.0000
    71 H15F    11.4734  11.7540  17.3920   H         1 RES1   0.0000
    72 C16F    14.2630  12.7081  16.0466   C.ar      1 RES1   0.0000
    73 H16F    15.0059  13.2362  16.2284   H         1 RES1   0.0000
    74 C17F    13.2293  12.6353  16.9885   C.ar      1 RES1   0.0000
    75 H17F    13.2726  13.1410  17.7695   H         1 RES1   0.0000
    76 N1I     12.5505   7.1911  15.9032   N.2       1 RES1   0.0000
    77 N2I     15.0968   7.6034  13.3654   N.pl3     1 RES1   0.0000
    78 C1I     12.1280   7.6172  17.2573   C.3       1 RES1   0.0000
    79 H1I     11.2760   8.0899  17.1496   H         1 RES1   0.0000
    80 C2I     11.8457   6.4120  18.1333   C.ar      1 RES1   0.0000
    81 C3I     10.4224   5.2588  19.7140   C.ar      1 RES1   0.0000
    82 C4I     13.6656   7.6259  15.4301   C.2       1 RES1   0.0000
    83 H2I     14.2232   8.1731  15.9340   H         1 RES1   0.0000
    84 N3I     13.2251   6.4565  13.3735   N.2       1 RES1   0.0000
    85 C5I     11.3799   4.2147  19.8197   C.ar      1 RES1   0.0000
    86 C6I     10.6735   6.3393  18.8541   C.ar      1 RES1   0.0000
    87 H3I     10.0397   7.0146  18.7703   H         1 RES1   0.0000
    88 C7I     13.0561   8.5627  17.9980   C.3       1 RES1   0.0000
    89 H4I     13.8994   8.1298  18.1504   H         1 RES1   0.0000
    90 H5I     12.6630   8.8034  18.8396   H         1 RES1   0.0000
    91 H6I     13.1946   9.3540  17.4699   H         1 RES1   0.0000
    92 C8I     14.0154   7.2328  14.0899   C.2       1 RES1   0.0000
    93 C9I     12.8137   5.3973  18.2786   C.ar      1 RES1   0.0000
    94 H7I     13.6120   5.4562  17.8058   H         1 RES1   0.0000
    95 C10I    14.9695   7.0164  12.1505   C.2       1 RES1   0.0000
    96 H8I     15.5634   7.0891  11.4388   H         1 RES1   0.0000
    97 C11I    16.1833   8.4986  13.7678   C.3       1 RES1   0.0000
    98 H9I     15.8145   9.3280  14.0812   H         1 RES1   0.0000
    99 H10I    16.7548   8.6666  13.0146   H         1 RES1   0.0000
   100 H11I    16.6924   8.0882  14.4708   H         1 RES1   0.0000
   101 C12I    13.8267   6.3064  12.1678   C.2       1 RES1   0.0000
   102 H12I    13.4994   5.7939  11.4648   H         1 RES1   0.0000
   103 C13I    12.5972   4.3376  19.0976   C.ar      1 RES1   0.0000
   104 H13I    13.2535   3.6831  19.1876   H         1 RES1   0.0000
   105 C14I    11.1029   3.1116  20.6820   C.ar      1 RES1   0.0000
   106 H14I    11.7280   2.4311  20.7772   H         1 RES1   0.0000
   107 C15I     9.2172   5.1653  20.4725   C.ar      1 RES1   0.0000
   108 H15I     8.5817   5.8424  20.4119   H         1 RES1   0.0000
   109 C16I     9.9271   3.0528  21.3660   C.ar      1 RES1   0.0000
   110 H16I     9.7453   2.3099  21.8941   H         1 RES1   0.0000
   111 C17I     8.9852   4.0865  21.2932   C.ar      1 RES1   0.0000
   112 H17I     8.2042   4.0432  21.7989   H         1 RES1   0.0000
   113 F1      17.2725  17.2725  17.2725   F         2 RES2   0.0000
   114 B1      16.4950  16.4950  16.4950   B         2 RES2  -1.0000
   115 F2      15.2829  16.3998  16.9903   F         2 RES2   0.0000
   116 F2D     16.9903  15.2829  16.3998   F         2 RES2   0.0000
   117 F2H     16.3998  16.9903  15.2829   F         2 RES2   0.0000
   118 F3      16.2474   7.5895   1.0684   F         3 RES3   0.0000
   119 F4      17.7071   7.5687  -0.6805   F         3 RES3   0.0000
   120 B2      17.0699   8.4120   0.2459   B         3 RES3  -1.0000
   121 F4G     17.9963   9.0492   1.0892   F         3 RES3   0.0000
   122 F4J     16.2266   9.3384  -0.3913   F         3 RES3   0.0000
   123 O1       2.3532  11.0111  14.9626   O.3       4 RES4   0.0000
@<TRIPOS>BOND
     1     1     2    1
     2     2     4    1
     3     3    18    1
     4     4     5    1
     5     6     4    1
     6     7    11   ar
     7     8     2    2
     8     9     8    1
     9    10     1    1
    10    11    29   ar
    11    12     6   ar
    12    13    12    1
    13    14     4    1
    14    15    14    1
    15    16    14    1
    16    17    14    1
    17    18     8    1
    18    19     6   ar
    19    20    19    1
    20    21     3    1
    21    22    21    1
    22    23     3    1
    23    24    23    1
    24    25    23    1
    25    26    23    1
    26    27    10    1
    27    28    27    1
    28    29    19   ar
    29    30    29    1
    30    31    11   ar
    31    32    31    1
    32    33     7   ar
    33    34    33    1
    34    35    31   ar
    35    36    35    1
    36    37    33   ar
    37    38    37    1
    38    39     1    1
    39    40    55    1
    40    41    39    1
    41    42    41    1
    42    43    41    1
    43    44    48   ar
    44    45    39    2
    45    46    45    1
    46    47     1    1
    47    48    66   ar
    48    49    43   ar
    49    50    49    1
    50    51    41    1
    51    52    51    1
    52    53    51    1
    53    54    51    1
    54    55    45    1
    55    56    43   ar
    56    57    56    1
    57    58    40    1
    58    59    58    1
    59    60    40    1
    60    61    60    1
    61    62    60    1
    62    63    60    1
    63    64    47    1
    64    65    64    1
    65    66    56   ar
    66    67    66    1
    67    68    48   ar
    68    69    68    1
    69    70    44   ar
    70    71    70    1
    71    72    68   ar
    72    73    72    1
    73    74    70   ar
    74    75    74    1
    75    76     1    1
    76    77    92    1
    77    78    76    1
    78    79    78    1
    79    80    78    1
    80    81    85   ar
    81    82    76    2
    82    83    82    1
    83    84     1    1
    84    85   103   ar
    85    86    80   ar
    86    87    86    1
    87    88    78    1
    88    89    88    1
    89    90    88    1
    90    91    88    1
    91    92    82    1
    92    93    80   ar
    93    94    93    1
    94    95    77    1
    95    96    95    1
    96    97    77    1
    97    98    97    1
    98    99    97    1
    99   100    97    1
   100   101    84    1
   101   102   101    1
   102   103    93   ar
   103   104   103    1
   104   105    85   ar
   105   106   105    1
   106   107    81   ar
   107   108   107    1
   108   109   105   ar
   109   110   109    1
   110   111   107   ar
   111   112   111    1
   112     7    12   ar
   113    10    18    2
   114    21    27    2
   115    35    37   ar
   116    44    49   ar
   117    47    55    2
   118    58    64    2
   119    72    74   ar
   120    81    86   ar
   121    84    92    2
   122    95   101    2
   123   109   111   ar
   124   113   114    1
   125   114   115    1
   126   116   114    1
   127   117   114    1
   128   118   120    1
   129   119   120    1
   130   120   121    1
   131   122   120    1
@<TRIPOS>SUBSTRUCTURE
     1 RES1        1 GROUP             0 ****  ****    0  
     2 RES2      113 GROUP             0 ****  ****    0  
     3 RES3      118 GROUP             0 ****  ****    0  
     4 RES4      123 GROUP             0 ****  ****    0  
@<TRIPOS>CRYSIN
   17.3158   17.3158   17.3158   90.0000   90.0000   90.0000   198     1
