@<TRIPOS>MOLECULE
XUHLOC
   111   121     2     0     0
SMALL
NO_CHARGES
****
Generated from the CSD

@<TRIPOS>ATOM
     1 Fe1     -0.1990   5.7862   8.6788   Fe        1 RES1   0.0000
     2 F1       2.0880   8.7100  10.9200   F         1 RES1   0.0000
     3 F2      -2.5177   2.8803   6.4586   F         1 RES1   0.0000
     4 B1       1.3758   7.7910  10.1968   B         1 RES1   0.0000
     5 B2      -1.7824   3.7808   7.1695   B         1 RES1   0.0000
     6 O1       1.0607   8.3757   8.8895   O.3       1 RES1   0.0000
     7 O2      -2.3082   5.1291   6.8324   O.3       1 RES1   0.0000
     8 O3       2.1981   6.5674  10.0736   O.3       1 RES1   0.0000
     9 O4      -0.3613   3.6624   6.7265   O.3       1 RES1   0.0000
    10 O5       0.1211   7.5332  10.9509   O.3       1 RES1   0.0000
    11 O6      -1.9276   3.4736   8.5935   O.3       1 RES1   0.0000
    12 N1       0.1687   7.5949   8.1829   N.2       1 RES1   0.0000
    13 N2      -1.5469   6.1307   7.3856   N.2       1 RES1   0.0000
    14 N3       1.6253   5.6570   9.2266   N.2       1 RES1   0.0000
    15 N4       0.4720   4.4531   7.4936   N.2       1 RES1   0.0000
    16 N5      -0.5544   6.4675  10.4236   N.2       1 RES1   0.0000
    17 N6      -1.3831   4.4395   9.3757   N.2       1 RES1   0.0000
    18 C1      -0.6381   8.2080   7.3748   C.2       1 RES1   0.0000
    19 C2      -1.5712   7.2976   6.7525   C.2       1 RES1   0.0000
    20 C3       2.4320   4.8935   8.5481   C.2       1 RES1   0.0000
    21 C4       1.7127   4.0694   7.5887   C.2       1 RES1   0.0000
    22 C5      -1.3080   5.7693  11.2318   C.2       1 RES1   0.0000
    23 C6      -1.8774   4.6208  10.5857   C.2       1 RES1   0.0000
    24 C7       3.9120   4.9366   8.6280   C.ar      1 RES1   0.0000
    25 C8       4.5683   4.7923   9.8452   C.ar      1 RES1   0.0000
    26 H1       4.0707   4.6147  10.6354   H         1 RES1   0.0000
    27 C9       5.9520   4.9070   9.9051   C.ar      1 RES1   0.0000
    28 H2       6.4004   4.8083  10.7370   H         1 RES1   0.0000
    29 C10      6.6784   5.1673   8.7512   C.ar      1 RES1   0.0000
    30 H3       7.6246   5.2462   8.7922   H         1 RES1   0.0000
    31 C11      6.0219   5.3116   7.5347   C.ar      1 RES1   0.0000
    32 H4       6.5197   5.4905   6.7438   H         1 RES1   0.0000
    33 C12      4.6388   5.1969   7.4729   C.ar      1 RES1   0.0000
    34 H5       4.1900   5.2956   6.6423   H         1 RES1   0.0000
    35 C13      2.3310   2.9371   6.8670   C.ar      1 RES1   0.0000
    36 C14      3.1972   2.0896   7.5476   C.ar      1 RES1   0.0000
    37 H6       3.3536   2.2154   8.4768   H         1 RES1   0.0000
    38 C15      3.8320   1.0559   6.8713   C.ar      1 RES1   0.0000
    39 H7       4.4256   0.4761   7.3359   H         1 RES1   0.0000
    40 C16      3.6047   0.8709   5.5122   C.ar      1 RES1   0.0000
    41 H8       4.0402   0.1653   5.0476   H         1 RES1   0.0000
    42 C17      2.7386   1.7196   4.8315   C.ar      1 RES1   0.0000
    43 H9       2.5822   1.5925   3.9024   H         1 RES1   0.0000
    44 C18      2.1014   2.7520   5.5100   C.ar      1 RES1   0.0000
    45 H10      1.5102   3.3318   5.0433   H         1 RES1   0.0000
    46 C19     -0.6923   9.6845   7.1781   C.ar      1 RES1   0.0000
    47 C20     -1.9407  10.2927   7.1500   C.ar      1 RES1   0.0000
    48 H11     -2.7279   9.7672   7.2322   H         1 RES1   0.0000
    49 C21     -2.0398  11.6718   7.0031   C.ar      1 RES1   0.0000
    50 H12     -2.8936  12.0875   6.9837   H         1 RES1   0.0000
    51 C22     -0.8880  12.4415   6.8821   C.ar      1 RES1   0.0000
    52 H13     -0.9553  13.3839   6.7827   H         1 RES1   0.0000
    53 C23      0.3605  11.8321   6.9102   C.ar      1 RES1   0.0000
    54 H14      1.1470  12.3588   6.8303   H         1 RES1   0.0000
    55 C24      0.4589  10.4543   7.0593   C.ar      1 RES1   0.0000
    56 H15      1.3127  10.0373   7.0787   H         1 RES1   0.0000
    57 C25     -2.3136   7.5567   5.4927   C.ar      1 RES1   0.0000
    58 C26     -1.6653   8.2326   4.4642   C.ar      1 RES1   0.0000
    59 H16     -0.7692   8.5250   4.5787   H         1 RES1   0.0000
    60 C27     -2.3299   8.4794   3.2693   C.ar      1 RES1   0.0000
    61 H17     -1.8887   8.9419   2.5670   H         1 RES1   0.0000
    62 C28     -3.6425   8.0501   3.1014   C.ar      1 RES1   0.0000
    63 H18     -4.0953   8.2191   2.2840   H         1 RES1   0.0000
    64 C29     -4.2888   7.3753   4.1293   C.ar      1 RES1   0.0000
    65 H19     -5.1849   7.0818   4.0147   H         1 RES1   0.0000
    66 C30     -3.6241   7.1274   5.3242   C.ar      1 RES1   0.0000
    67 H20     -4.0672   6.6661   6.0264   H         1 RES1   0.0000
    68 C31     -0.5144   7.1373  13.6778   C.3       1 RES1   0.0000
    69 H21     -0.4153   7.9785  13.1635   H         1 RES1   0.0000
    70 H22     -0.8411   7.3753  14.5810   H         1 RES1   0.0000
    71 C32      0.8043   6.5106  13.8074   C.3       1 RES1   0.0000
    72 H23      1.4425   7.1989  14.1229   H         1 RES1   0.0000
    73 H24      1.1002   6.2257  12.9064   H         1 RES1   0.0000
    74 C33      0.8369   3.7191  13.7102   C.3       1 RES1   0.0000
    75 H25      0.0475   3.8486  13.1268   H         1 RES1   0.0000
    76 H26      1.6465   3.7438  13.1398   H         1 RES1   0.0000
    77 C34      0.7431   2.3832  14.3779   C.3       1 RES1   0.0000
    78 H27      1.4513   2.3302  15.0672   H         1 RES1   0.0000
    79 H28      0.9341   1.6850  13.7037   H         1 RES1   0.0000
    80 C35     -3.4244   2.1266  10.6765   C.3       1 RES1   0.0000
    81 H29     -2.5872   1.7997  10.2616   H         1 RES1   0.0000
    82 H30     -3.6781   1.4802  11.3830   H         1 RES1   0.0000
    83 C36     -4.4803   2.1439   9.6566   C.3       1 RES1   0.0000
    84 H31     -4.0796   2.3524   8.7771   H         1 RES1   0.0000
    85 H32     -5.1310   2.8581   9.8726   H         1 RES1   0.0000
    86 C37     -6.4064   0.7019  11.0027   C.3       1 RES1   0.0000
    87 H33     -5.8453   0.5600  11.8065   H         1 RES1   0.0000
    88 H34     -6.7391   1.6332  11.0351   H         1 RES1   0.0000
    89 C38     -7.6024  -0.2368  11.0827   C.3       1 RES1   0.0000
    90 H35     -8.1772  -0.0863  10.2897   H         1 RES1   0.0000
    91 H36     -8.1323  -0.0099  11.8865   H         1 RES1   0.0000
    92 S1      -1.7354   6.1356  12.8861   S.3       1 RES1   0.0000
    93 S2       0.9151   5.0748  14.9241   S.3       1 RES1   0.0000
    94 S3      -0.8503   1.9946  15.1666   S.3       1 RES1   0.0000
    95 H37     -1.2073   1.4889  15.9531   H         1 RES1   0.0000
    96 S4      -3.0946   3.7357  11.4548   S.3       1 RES1   0.0000
    97 S5      -5.3679   0.5218   9.5522   S.3       1 RES1   0.0000
    98 S6      -7.1557  -1.9922  11.1533   S.3       1 RES1   0.0000
    99 H38     -7.8176  -2.6509  10.7931   H         1 RES1   0.0000
   100 C39      6.6440   9.6833   7.5736   C.ar      2 RES2   0.0000
   101 H39      7.1343   9.2133   6.9080   H         2 RES2   0.0000
   102 C40      5.5554   9.0776   8.1915   C.ar      2 RES2   0.0000
   103 H40      5.3029   8.1944   7.9495   H         2 RES2   0.0000
   104 C41      4.8391   9.7635   9.1639   C.ar      2 RES2   0.0000
   105 H41      4.0946   9.3502   9.5874   H         2 RES2   0.0000
   106 C42      5.2080  11.0562   9.5183   C.ar      2 RES2   0.0000
   107 H42      4.7183  11.5262  10.1816   H         2 RES2   0.0000
   108 C43      6.2955  11.6619   8.8981   C.ar      2 RES2   0.0000
   109 H43      6.5497  12.5451   9.1401   H         2 RES2   0.0000
   110 C44      7.0135  10.9748   7.9258   C.ar      2 RES2   0.0000
   111 H44      7.7574  11.3893   7.5044   H         2 RES2   0.0000
@<TRIPOS>BOND
     1     1    12    1
     2     2     4    1
     3     3     5    1
     4     4     6    1
     5     5     7    1
     6     6    12    1
     7     7    13    1
     8     8     4    1
     9     9     5    1
    10    10     4    1
    11    11     5    1
    12    12    18    2
    13    13     1    1
    14    14     1    1
    15    15     1    1
    16    16     1    1
    17    17     1    1
    18    18    19    1
    19    19    13    2
    20    20    14    2
    21    21    15    2
    22    22    16    2
    23    23    17    2
    24    24    20    1
    25    25    24   ar
    26    26    25    1
    27    27    25   ar
    28    28    27    1
    29    29    27   ar
    30    30    29    1
    31    31    29   ar
    32    32    31    1
    33    33    24   ar
    34    34    33    1
    35    35    21    1
    36    36    35   ar
    37    37    36    1
    38    38    36   ar
    39    39    38    1
    40    40    38   ar
    41    41    40    1
    42    42    40   ar
    43    43    42    1
    44    44    35   ar
    45    45    44    1
    46    46    18    1
    47    47    46   ar
    48    48    47    1
    49    49    47   ar
    50    50    49    1
    51    51    49   ar
    52    52    51    1
    53    53    51   ar
    54    54    53    1
    55    55    46   ar
    56    56    55    1
    57    57    19    1
    58    58    57   ar
    59    59    58    1
    60    60    58   ar
    61    61    60    1
    62    62    60   ar
    63    63    62    1
    64    64    62   ar
    65    65    64    1
    66    66    57   ar
    67    67    66    1
    68    68    69    1
    69    70    68    1
    70    71    68    1
    71    72    71    1
    72    73    71    1
    73    74    75    1
    74    76    74    1
    75    77    74    1
    76    78    77    1
    77    79    77    1
    78    80    81    1
    79    82    80    1
    80    83    80    1
    81    84    83    1
    82    85    83    1
    83    86    87    1
    84    88    86    1
    85    89    86    1
    86    90    89    1
    87    91    89    1
    88    92    22    1
    89    93    71    1
    90    94    77    1
    91    95    94    1
    92    96    23    1
    93    97    83    1
    94    98    89    1
    95    99    98    1
    96     8    14    1
    97     9    15    1
    98    10    16    1
    99    11    17    1
   100    20    21    1
   101    22    23    1
   102    31    33   ar
   103    42    44   ar
   104    53    55   ar
   105    64    66   ar
   106    68    92    1
   107    74    93    1
   108    80    96    1
   109    86    97    1
   110   100   101    1
   111   102   100   ar
   112   103   102    1
   113   104   102   ar
   114   105   104    1
   115   106   104   ar
   116   107   106    1
   117   108   106   ar
   118   109   108    1
   119   110   100   ar
   120   111   110    1
   121   108   110   ar
@<TRIPOS>SUBSTRUCTURE
     1 RES1        1 GROUP             0 ****  ****    0  
     2 RES2      100 GROUP             0 ****  ****    0  
@<TRIPOS>CRYSIN
   17.6523   12.3354   22.5536   90.0000  106.6510   90.0000   231     1
