@<TRIPOS>MOLECULE
XUJFEP01
    75    79     3     0     0
SMALL
USER_CHARGES
****
Generated from the CSD

@<TRIPOS>ATOM
     1 Fe1      3.5498   8.7082   2.4584   Fe        1 RES1   1.0000
     2 O1       5.2151   8.0258   3.0442   O.3       1 RES1   0.0000
     3 O2       3.0571   6.9276   2.1706   O.3       1 RES1   0.0000
     4 O3       9.8624  10.5245   4.6330   O.3       1 RES1   0.0000
     5 O4      -2.0937   4.9835   2.4166   O.3       1 RES1   0.0000
     6 N1       4.0356  10.5550   2.7943   N.2       1 RES1   0.0000
     7 N2       1.8566   9.3944   1.8482   N.2       1 RES1   0.0000
     8 N3       2.8755   8.5638   4.3183   N.2       1 RES1   0.0000
     9 N4       1.5910   8.5000   6.1227   N.pl3     1 RES1   0.0000
    10 N5       4.3103   8.7760   0.6123   N.2       1 RES1   0.0000
    11 N6       5.0030   8.0508  -1.3447   N.pl3     1 RES1   0.0000
    12 C1       6.2821   8.7427   3.4161   C.ar      1 RES1   0.0000
    13 C2       7.4304   8.0064   3.7881   C.ar      1 RES1   0.0000
    14 C3       8.5754   8.6165   4.2077   C.ar      1 RES1   0.0000
    15 C4       8.6380  10.0267   4.2363   C.ar      1 RES1   0.0000
    16 C5       7.5472  10.7672   3.8777   C.ar      1 RES1   0.0000
    17 C6       6.3052  10.1557   3.4962   C.ar      1 RES1   0.0000
    18 C7       5.1459  11.0279   3.3036   C.2       1 RES1   0.0000
    19 C8       5.2311  12.4547   3.7098   C.3       1 RES1   0.0000
    20 C9       2.8688  11.4563   2.6017   C.3       1 RES1   0.0000
    21 C10      1.9716  10.8365   1.5316   C.3       1 RES1   0.0000
    22 C11      0.7713   8.7330   1.5507   C.2       1 RES1   0.0000
    23 C12     -0.4067   9.3667   0.8946   C.3       1 RES1   0.0000
    24 C13      0.6716   7.3103   1.9074   C.ar      1 RES1   0.0000
    25 C14     -0.6154   6.7127   1.9608   C.ar      1 RES1   0.0000
    26 C15     -0.8016   5.4328   2.3442   C.ar      1 RES1   0.0000
    27 C16      0.3207   4.6369   2.6818   C.ar      1 RES1   0.0000
    28 C17      1.5765   5.1791   2.6131   C.ar      1 RES1   0.0000
    29 C18      1.7995   6.5019   2.2507   C.ar      1 RES1   0.0000
    30 C19     10.0123  11.9514   4.6235   C.3       1 RES1   0.0000
    31 C20     -2.3279   3.5817   2.4052   C.3       1 RES1   0.0000
    32 C21      1.6490   8.8148   4.8314   C.2       1 RES1   0.0000
    33 C22      2.8416   8.0022   6.5042   C.2       1 RES1   0.0000
    34 C23      3.6168   8.0549   5.3674   C.2       1 RES1   0.0000
    35 C24      4.1907   7.8248  -0.2880   C.2       1 RES1   0.0000
    36 C25      5.6807   9.1961  -1.0777   C.2       1 RES1   0.0000
    37 C26      5.2540   9.6634   0.1144   C.2       1 RES1   0.0000
    38 H1       0.8527   8.5791   6.6835   H         1 RES1   0.0000
    39 H2       5.0954   7.5155  -2.1000   H         1 RES1   0.0000
    40 H3       7.4125   7.0787   3.7232   H         1 RES1   0.0000
    41 H4       9.3051   8.1049   4.4747   H         1 RES1   0.0000
    42 H5       7.6047  11.6962   3.8834   H         1 RES1   0.0000
    43 H6       5.0503  13.0218   2.9564   H         1 RES1   0.0000
    44 H7       6.1111  12.6405   4.0455   H         1 RES1   0.0000
    45 H8       4.5841  12.6239   4.3984   H         1 RES1   0.0000
    46 H9       3.2231  12.3119   2.3117   H         1 RES1   0.0000
    47 H10      2.4082  11.5659   3.4466   H         1 RES1   0.0000
    48 H11      1.0789  11.2151   1.5564   H         1 RES1   0.0000
    49 H12      2.3391  10.9350   0.6390   H         1 RES1   0.0000
    50 H13     -0.9064   8.7247   0.3853   H         1 RES1   0.0000
    51 H14     -0.0863  10.0586   0.3128   H         1 RES1   0.0000
    52 H15     -0.9751   9.7536   1.5660   H         1 RES1   0.0000
    53 H16     -1.3555   7.2077   1.6918   H         1 RES1   0.0000
    54 H17      0.1854   3.7619   2.9622   H         1 RES1   0.0000
    55 H18      2.3115   4.6341   2.7848   H         1 RES1   0.0000
    56 H19     10.9401  12.1774   4.7189   H         1 RES1   0.0000
    57 H20      9.5129  12.3396   5.3445   H         1 RES1   0.0000
    58 H21      9.6843  12.2911   3.7881   H         1 RES1   0.0000
    59 H22     -1.8236   3.1851   3.1186   H         1 RES1   0.0000
    60 H23     -2.0371   3.2170   1.5660   H         1 RES1   0.0000
    61 H24     -3.2612   3.3917   2.5292   H         1 RES1   0.0000
    62 H25      0.9518   9.1739   4.3317   H         1 RES1   0.0000
    63 H26      3.1190   7.6972   7.3377   H         1 RES1   0.0000
    64 H27      4.5041   7.7832   5.3082   H         1 RES1   0.0000
    65 H28      3.6090   7.1023  -0.2174   H         1 RES1   0.0000
    66 H29      6.3365   9.5830  -1.6098   H         1 RES1   0.0000
    67 H30      5.5136  10.4566   0.5264   H         1 RES1   0.0000
    68 P1       1.4861   7.1009  10.5442   P.3       2 RES2  -1.0000
    69 F1       1.6764   7.2840   8.9780   F         2 RES2   0.0000
    70 F2       1.2966   6.8486  12.1118   F         2 RES2   0.0000
    71 F3       2.7036   6.0429  10.5325   F         2 RES2   0.0000
    72 F4       2.5427   8.2615  10.8587   F         2 RES2   0.0000
    73 F5       0.2550   8.1284  10.5592   F         2 RES2   0.0000
    74 F6       0.4757   5.8932  10.2655   F         2 RES2   0.0000
    75 O5      -0.7510   8.4806   7.7611   O.3       3 RES3   0.0000
@<TRIPOS>BOND
     1     1     2    1
     2     2    12    1
     3     3     1    1
     4     4    15    1
     5     5    26    1
     6     6     1    1
     7     7     1    1
     8     8     1    1
     9     9    32    1
    10    10     1    1
    11    11    35    1
    12    12    13   ar
    13    13    14   ar
    14    14    15   ar
    15    15    16   ar
    16    16    17   ar
    17    17    12   ar
    18    18     6    2
    19    19    18    1
    20    20     6    1
    21    21     7    1
    22    22     7    2
    23    23    22    1
    24    24    22    1
    25    25    24   ar
    26    26    25   ar
    27    27    26   ar
    28    28    27   ar
    29    29     3    1
    30    30     4    1
    31    31     5    1
    32    32     8    2
    33    33     9    1
    34    34     8    1
    35    35    10    2
    36    36    11    1
    37    37    10    1
    38    38     9    1
    39    39    11    1
    40    40    13    1
    41    41    14    1
    42    42    16    1
    43    43    19    1
    44    44    19    1
    45    45    19    1
    46    46    20    1
    47    47    20    1
    48    48    21    1
    49    49    21    1
    50    50    23    1
    51    51    23    1
    52    52    23    1
    53    53    25    1
    54    54    27    1
    55    55    28    1
    56    56    30    1
    57    57    30    1
    58    58    30    1
    59    59    31    1
    60    60    31    1
    61    61    31    1
    62    62    32    1
    63    63    33    1
    64    64    34    1
    65    65    35    1
    66    66    36    1
    67    67    37    1
    68    17    18    1
    69    20    21    1
    70    24    29   ar
    71    28    29   ar
    72    33    34    2
    73    36    37    2
    74    68    69    1
    75    70    68    1
    76    71    68    1
    77    72    68    1
    78    73    68    1
    79    74    68    1
@<TRIPOS>SUBSTRUCTURE
     1 RES1        1 GROUP             0 ****  ****    0  
     2 RES2       68 GROUP             0 ****  ****    0  
     3 RES3       75 GROUP             0 ****  ****    0  
@<TRIPOS>CRYSIN
   10.8257   13.8663   19.3108   90.0000   98.9863   90.0000   231     1
