@<TRIPOS>MOLECULE
XUJFOZ01
    83    87     3     0     0
SMALL
USER_CHARGES
****
Generated from the CSD

@<TRIPOS>ATOM
     1 Fe1      7.2182   8.8223   2.7416   Fe        1 RES1   1.0000
     2 O1       5.5140   8.2529   2.1688   O.3       1 RES1   0.0000
     3 O2       7.9013   9.8233   1.2405   O.3       1 RES1   0.0000
     4 O3       4.1634   4.9826   5.3505   O.3       1 RES1   0.0000
     5 O4      10.7568  12.8249   3.5443   O.3       1 RES1   0.0000
     6 N1       6.9203   7.7335   4.5283   N.2       1 RES1   0.0000
     7 N2       8.9733   9.3589   3.7674   N.2       1 RES1   0.0000
     8 N3       8.2297   7.0964   1.9719   N.2       1 RES1   0.0000
     9 N4       8.7493   5.0118   1.4960   N.pl3     1 RES1   0.0000
    10 N5       6.2458  10.4782   3.7283   N.2       1 RES1   0.0000
    11 N6       5.7626  12.1246   5.1026   N.pl3     1 RES1   0.0000
    12 C1       4.6511   7.3799   2.6536   C.ar      1 RES1   0.0000
    13 C2       3.5363   7.0731   1.8410   C.ar      1 RES1   0.0000
    14 C3       2.6104   6.1433   2.2512   C.ar      1 RES1   0.0000
    15 C4       2.7779   5.4307   3.4365   C.ar      1 RES1   0.0000
    16 C5       3.8658   5.7190   4.2449   C.ar      1 RES1   0.0000
    17 C6       4.7932   6.7627   3.9289   C.ar      1 RES1   0.0000
    18 C7       5.8142   7.1659   4.9112   C.2       1 RES1   0.0000
    19 C8       5.5199   7.0417   6.3915   C.3       1 RES1   0.0000
    20 C9       7.9413   8.0842   5.5356   C.3       1 RES1   0.0000
    21 C10      9.2616   8.3685   4.8174   C.3       1 RES1   0.0000
    22 C11      9.8461  10.2270   3.3897   C.2       1 RES1   0.0000
    23 C12     11.2735  10.1654   3.8995   C.3       1 RES1   0.0000
    24 C13      9.5080  11.2232   2.3605   C.ar      1 RES1   0.0000
    25 C14     10.1066  12.5302   2.3912   C.ar      1 RES1   0.0000
    26 C15      9.9911  13.3857   1.3281   C.ar      1 RES1   0.0000
    27 C16      9.2517  13.0096   0.2113   C.ar      1 RES1   0.0000
    28 C17      8.5710  11.8131   0.1861   C.ar      1 RES1   0.0000
    29 C18      8.6320  10.9403   1.2780   C.ar      1 RES1   0.0000
    30 C19      3.3285   3.8592   5.6582   C.3       1 RES1   0.0000
    31 C20     11.4787  14.0648   3.5979   C.3       1 RES1   0.0000
    32 C21      8.1054   5.8211   2.3452   C.2       1 RES1   0.0000
    33 C22      9.3227   5.7925   0.5265   C.2       1 RES1   0.0000
    34 C23      9.0042   7.0797   0.8303   C.2       1 RES1   0.0000
    35 C24      6.7388  11.3603   4.5853   C.2       1 RES1   0.0000
    36 C25      4.5696  11.7330   4.5493   C.2       1 RES1   0.0000
    37 C26      4.8778  10.6969   3.7073   C.2       1 RES1   0.0000
    38 H1       8.8019   4.0859   1.5603   H         1 RES1   0.0000
    39 H2       3.7273  12.0893   4.7162   H         1 RES1   0.0000
    40 H3       3.4196   7.5163   1.0312   H         1 RES1   0.0000
    41 H4       1.8660   5.9782   1.7191   H         1 RES1   0.0000
    42 H5       2.1713   4.7694   3.6808   H         1 RES1   0.0000
    43 H6       4.5721   6.9661   6.5219   H         1 RES1   0.0000
    44 H7       5.8456   7.8168   6.8552   H         1 RES1   0.0000
    45 H8       5.9533   6.2579   6.7360   H         1 RES1   0.0000
    46 H9       8.0338   7.3408   6.1516   H         1 RES1   0.0000
    47 H10      7.6331   8.8670   6.0183   H         1 RES1   0.0000
    48 H11      9.9243   8.7409   5.4197   H         1 RES1   0.0000
    49 H12      9.6198   7.5703   4.3999   H         1 RES1   0.0000
    50 H13     11.5864   9.2582   3.8836   H         1 RES1   0.0000
    51 H14     11.3002  10.4976   4.7999   H         1 RES1   0.0000
    52 H15     11.8375  10.7077   3.3432   H         1 RES1   0.0000
    53 H16     10.3918  14.2241   1.3631   H         1 RES1   0.0000
    54 H17      9.2233  13.5674  -0.5319   H         1 RES1   0.0000
    55 H18      8.0657  11.5837  -0.5603   H         1 RES1   0.0000
    56 H19      2.4369   4.1580   5.8538   H         1 RES1   0.0000
    57 H20      3.6866   3.3990   6.4211   H         1 RES1   0.0000
    58 H21      3.3076   3.2640   4.9049   H         1 RES1   0.0000
    59 H22     10.8695  14.7941   3.4638   H         1 RES1   0.0000
    60 H23     12.1494  14.0784   2.9106   H         1 RES1   0.0000
    61 H24     11.8992  14.1540   4.4566   H         1 RES1   0.0000
    62 H25      7.6321   5.5371   3.0936   H         1 RES1   0.0000
    63 H26      9.8263   5.4967  -0.1972   H         1 RES1   0.0000
    64 H27      9.2679   7.8273   0.3447   H         1 RES1   0.0000
    65 H28      4.2656  10.2172   3.1971   H         1 RES1   0.0000
    66 H29      5.8747  12.8065   5.7261   H         1 RES1   0.0000
    67 H30      7.6413  11.4367   4.7985   H         1 RES1   0.0000
    68 P1       8.9324  11.7139   7.9563   P.3       2 RES2  -1.0000
    69 F1       7.9501  10.4482   8.0289   F         2 RES2   0.0000
    70 F2       9.8857  12.9909   7.8601   F         2 RES2   0.0000
    71 F3      10.1109  10.8622   8.6129   F         2 RES2   0.0000
    72 F4       9.3885  11.2536   6.4953   F         2 RES2   0.0000
    73 F5       7.7389  12.5966   7.2999   F         2 RES2   0.0000
    74 F6       8.4481  12.1777   9.4066   F         2 RES2   0.0000
    75 O5       8.8023   2.2977   1.0959   O.3       3 RES3   0.0000
    76 C27     10.1023   1.7005   1.0580   C.3       3 RES3   0.0000
    77 C28     10.9930   2.4362   2.0327   C.3       3 RES3   0.0000
    78 H31      8.3038   1.9074   0.5745   H         3 RES3   0.0000
    79 H32     10.0086   0.7653   1.2978   H         3 RES3   0.0000
    80 H33     10.4297   1.7664   0.1475   H         3 RES3   0.0000
    81 H34     11.8399   1.9892   2.1035   H         3 RES3   0.0000
    82 H35     11.1298   3.3334   1.7191   H         3 RES3   0.0000
    83 H36     10.5721   2.4601   2.8950   H         3 RES3   0.0000
@<TRIPOS>BOND
     1     1     2    1
     2     2    12    1
     3     3     1    1
     4     4    16    1
     5     5    25    1
     6     6     1    1
     7     7     1    1
     8     8     1    1
     9     9    32    1
    10    10     1    1
    11    11    35    1
    12    12    13   ar
    13    13    14   ar
    14    14    15   ar
    15    15    16   ar
    16    16    17   ar
    17    17    12   ar
    18    18     6    2
    19    19    18    1
    20    20     6    1
    21    21     7    1
    22    22     7    2
    23    23    22    1
    24    24    22    1
    25    25    24   ar
    26    26    25   ar
    27    27    26   ar
    28    28    27   ar
    29    29     3    1
    30    30     4    1
    31    31     5    1
    32    32     8    2
    33    33     9    1
    34    34     8    1
    35    35    10    2
    36    36    11    1
    37    37    10    1
    38    38     9    1
    39    39    36    1
    40    40    13    1
    41    41    14    1
    42    42    15    1
    43    43    19    1
    44    44    19    1
    45    45    19    1
    46    46    20    1
    47    47    20    1
    48    48    21    1
    49    49    21    1
    50    50    23    1
    51    51    23    1
    52    52    23    1
    53    53    26    1
    54    54    27    1
    55    55    28    1
    56    56    30    1
    57    57    30    1
    58    58    30    1
    59    59    31    1
    60    60    31    1
    61    61    31    1
    62    62    32    1
    63    63    33    1
    64    64    34    1
    65    65    37    1
    66    66    11    1
    67    67    35    1
    68    17    18    1
    69    20    21    1
    70    24    29   ar
    71    28    29   ar
    72    33    34    2
    73    36    37    2
    74    68    69    1
    75    70    68    1
    76    71    68    1
    77    72    68    1
    78    73    68    1
    79    74    68    1
    80    75    76    1
    81    76    77    1
    82    77    81    1
    83    78    75    1
    84    79    76    1
    85    80    76    1
    86    82    77    1
    87    83    77    1
@<TRIPOS>SUBSTRUCTURE
     1 RES1        1 GROUP             0 ****  ****    0  
     2 RES2       68 GROUP             0 ****  ****    0  
     3 RES3       75 GROUP             0 ****  ****    0  
@<TRIPOS>CRYSIN
   10.0342   12.6380   15.0402   70.6376   80.4992   64.7394     2     1
