@<TRIPOS>MOLECULE
XUJFOZ
    83    87     3     0     0
SMALL
USER_CHARGES
****
Generated from the CSD

@<TRIPOS>ATOM
     1 Fe1      7.2545   8.9281   2.7757   Fe        1 RES1   1.0000
     2 O1       5.5409   8.3400   2.2250   O.3       1 RES1   0.0000
     3 O2       7.9089   9.9474   1.2877   O.3       1 RES1   0.0000
     4 O3       4.2829   4.9968   5.3061   O.3       1 RES1   0.0000
     5 O4      10.8567  12.9015   3.5583   O.3       1 RES1   0.0000
     6 N1       6.9843   7.8189   4.5440   N.2       1 RES1   0.0000
     7 N2       9.0150   9.4672   3.7948   N.2       1 RES1   0.0000
     8 N3       8.3147   7.2298   1.9387   N.2       1 RES1   0.0000
     9 N4       8.8246   5.1660   1.4302   N.pl3     1 RES1   0.0000
    10 N5       6.2743  10.5540   3.7706   N.2       1 RES1   0.0000
    11 N6       5.8112  12.2392   5.0597   N.pl3     1 RES1   0.0000
    12 C1       4.7124   7.4441   2.6709   C.ar      1 RES1   0.0000
    13 C2       3.5981   7.1511   1.8604   C.ar      1 RES1   0.0000
    14 C3       2.6892   6.1926   2.2649   C.ar      1 RES1   0.0000
    15 C4       2.8791   5.4958   3.4572   C.ar      1 RES1   0.0000
    16 C5       3.9503   5.7718   4.2763   C.ar      1 RES1   0.0000
    17 C6       4.8749   6.8248   3.9486   C.ar      1 RES1   0.0000
    18 C7       5.8876   7.2293   4.9543   C.2       1 RES1   0.0000
    19 C8       5.5931   7.0907   6.4158   C.3       1 RES1   0.0000
    20 C9       8.0003   8.1879   5.5398   C.3       1 RES1   0.0000
    21 C10      9.2904   8.4911   4.8631   C.3       1 RES1   0.0000
    22 C11      9.9215  10.3039   3.3860   C.2       1 RES1   0.0000
    23 C12     11.3289  10.2412   3.9159   C.3       1 RES1   0.0000
    24 C13      9.5718  11.3222   2.3789   C.ar      1 RES1   0.0000
    25 C14     10.1778  12.6123   2.4017   C.ar      1 RES1   0.0000
    26 C15     10.0404  13.4932   1.3661   C.ar      1 RES1   0.0000
    27 C16      9.2760  13.1426   0.2877   C.ar      1 RES1   0.0000
    28 C17      8.5708  11.9328   0.2365   C.ar      1 RES1   0.0000
    29 C18      8.6573  11.0676   1.3376   C.ar      1 RES1   0.0000
    30 C19      3.4366   3.8700   5.5896   C.3       1 RES1   0.0000
    31 C20     11.5797  14.1385   3.6110   C.3       1 RES1   0.0000
    32 C21      8.1398   5.9413   2.2649   C.2       1 RES1   0.0000
    33 C22      9.4177   5.9546   0.5826   C.2       1 RES1   0.0000
    34 C23      9.1324   7.2225   0.8547   C.2       1 RES1   0.0000
    35 C24      6.7675  11.4989   4.5768   C.2       1 RES1   0.0000
    36 C25      4.6219  11.8372   4.5811   C.2       1 RES1   0.0000
    37 C26      4.9118  10.7503   3.8247   C.2       1 RES1   0.0000
    38 H1       8.8644   4.2372   1.4601   H         1 RES1   0.0000
    39 H2       5.9259  12.9509   5.6480   H         1 RES1   0.0000
    40 H3       3.4698   7.6058   1.0598   H         1 RES1   0.0000
    41 H4       1.9490   6.0189   1.7307   H         1 RES1   0.0000
    42 H5       2.2687   4.8396   3.7050   H         1 RES1   0.0000
    43 H6       6.2830   6.5685   6.8303   H         1 RES1   0.0000
    44 H7       4.7475   6.6508   6.5283   H         1 RES1   0.0000
    45 H8       5.5591   7.9580   6.8260   H         1 RES1   0.0000
    46 H9       8.1037   7.4494   6.1608   H         1 RES1   0.0000
    47 H10      7.6898   8.9713   6.0198   H         1 RES1   0.0000
    48 H11      9.6480   7.6930   4.4443   H         1 RES1   0.0000
    49 H12      9.9515   8.8599   5.4700   H         1 RES1   0.0000
    50 H13     11.3369  10.3357   4.8703   H         1 RES1   0.0000
    51 H14     11.8522  10.9418   3.5199   H         1 RES1   0.0000
    52 H15     11.7025   9.3895   3.6751   H         1 RES1   0.0000
    53 H16     10.4478  14.3295   1.4003   H         1 RES1   0.0000
    54 H17      9.2290  13.7119  -0.4459   H         1 RES1   0.0000
    55 H18      8.0453  11.7148  -0.5000   H         1 RES1   0.0000
    56 H19      2.5380   4.1687   5.7463   H         1 RES1   0.0000
    57 H20      3.7747   3.4423   6.3802   H         1 RES1   0.0000
    58 H21      3.4439   3.2466   4.8603   H         1 RES1   0.0000
    59 H22     12.2356  14.1701   2.9102   H         1 RES1   0.0000
    60 H23     12.0183  14.2134   4.4614   H         1 RES1   0.0000
    61 H24     10.9635  14.8673   3.5042   H         1 RES1   0.0000
    62 H25      7.6203   5.6335   2.9714   H         1 RES1   0.0000
    63 H26      9.9602   5.6790  -0.1197   H         1 RES1   0.0000
    64 H27      9.4285   7.9865   0.4131   H         1 RES1   0.0000
    65 H28      7.6754  11.6072   4.7506   H         1 RES1   0.0000
    66 H29      3.7773  12.1776   4.7677   H         1 RES1   0.0000
    67 H30      4.2906  10.2364   3.3589   H         1 RES1   0.0000
    68 P1       9.0127  11.8820   7.9857   P.3       2 RES2  -1.0000
    69 F1       8.0489  10.6266   8.0041   F         2 RES2   0.0000
    70 F2       9.9145  13.1700   7.9528   F         2 RES2   0.0000
    71 F3      10.1831  11.0473   8.6551   F         2 RES2   0.0000
    72 F4       9.4796  11.4328   6.5597   F         2 RES2   0.0000
    73 F5       7.8325  12.7744   7.3531   F         2 RES2   0.0000
    74 F6       8.4673  12.3139   9.4157   F         2 RES2   0.0000
    75 O5       8.8754   2.4333   1.0427   O.3       3 RES3   0.0000
    76 C27     10.1009   1.7945   1.1225   C.3       3 RES3   0.0000
    77 C28     11.0172   2.5235   2.0470   C.3       3 RES3   0.0000
    78 H31      8.4675   2.1951   0.3718   H         3 RES3   0.0000
    79 H32      9.9585   0.8832   1.4216   H         3 RES3   0.0000
    80 H33     10.4589   1.7835   0.2208   H         3 RES3   0.0000
    81 H34     11.7783   1.9826   2.2706   H         3 RES3   0.0000
    82 H35     11.3120   3.3331   1.6253   H         3 RES3   0.0000
    83 H36     10.5316   2.7378   2.8461   H         3 RES3   0.0000
@<TRIPOS>BOND
     1     1     2    1
     2     2    12    1
     3     3     1    1
     4     4    16    1
     5     5    25    1
     6     6     1    1
     7     7     1    1
     8     8     1    1
     9     9    32    1
    10    10     1    1
    11    11    35    1
    12    12    13   ar
    13    13    14   ar
    14    14    15   ar
    15    15    16   ar
    16    16    17   ar
    17    17    12   ar
    18    18     6    2
    19    19    18    1
    20    20     6    1
    21    21     7    1
    22    22     7    2
    23    23    22    1
    24    24    22    1
    25    25    24   ar
    26    26    25   ar
    27    27    26   ar
    28    28    27   ar
    29    29     3    1
    30    30     4    1
    31    31     5    1
    32    32     8    2
    33    33     9    1
    34    34     8    1
    35    35    10    2
    36    36    11    1
    37    37    10    1
    38    38     9    1
    39    39    11    1
    40    40    13    1
    41    41    14    1
    42    42    15    1
    43    43    19    1
    44    44    19    1
    45    45    19    1
    46    46    20    1
    47    47    20    1
    48    48    21    1
    49    49    21    1
    50    50    23    1
    51    51    23    1
    52    52    23    1
    53    53    26    1
    54    54    27    1
    55    55    28    1
    56    56    30    1
    57    57    30    1
    58    58    30    1
    59    59    31    1
    60    60    31    1
    61    61    31    1
    62    62    32    1
    63    63    33    1
    64    64    34    1
    65    65    35    1
    66    66    36    1
    67    67    37    1
    68    17    18    1
    69    20    21    1
    70    24    29   ar
    71    28    29   ar
    72    33    34    2
    73    36    37    2
    74    68    69    1
    75    70    68    1
    76    71    68    1
    77    72    68    1
    78    73    68    1
    79    74    68    1
    80    75    76    1
    81    76    77    1
    82    77    81    1
    83    78    75    1
    84    79    76    1
    85    80    76    1
    86    82    77    1
    87    83    77    1
@<TRIPOS>SUBSTRUCTURE
     1 RES1        1 GROUP             0 ****  ****    0  
     2 RES2       68 GROUP             0 ****  ****    0  
     3 RES3       75 GROUP             0 ****  ****    0  
@<TRIPOS>CRYSIN
   10.1273   12.7833   15.1387   70.3028   80.1134   64.9446     2     1
