@<TRIPOS>MOLECULE
XUKDIS
    92   100     4     0     0
SMALL
USER_CHARGES
****
Generated from the CSD

@<TRIPOS>ATOM
     1 Fe1      7.0144  11.7878   3.2750   Fe        1 RES1   2.0000
     2 N1       8.3068  12.7026   4.3236   N.ar      1 RES1   0.0000
     3 C1       8.2623  12.6169   5.6651   C.ar      1 RES1   0.0000
     4 C2       9.1386  13.3084   6.4808   C.ar      1 RES1   0.0000
     5 H1       9.0988  13.2338   7.4264   H         1 RES1   0.0000
     6 C3      10.0915  14.1260   5.8505   C.ar      1 RES1   0.0000
     7 C4      10.1515  14.2349   4.4442   C.ar      1 RES1   0.0000
     8 H2      10.7878  14.7910   4.0103   H         1 RES1   0.0000
     9 C5       9.2333  13.4895   3.7359   C.ar      1 RES1   0.0000
    10 N2       7.2173  11.7829   6.0845   N.pl3     1 RES1   0.0000
    11 N3       6.4203  11.2359   5.0846   N.2       1 RES1   0.0000
    12 C6       5.4414  10.6018   5.7282   C.2       1 RES1   0.0000
    13 H3       4.7332  10.1320   5.3044   H         1 RES1   0.0000
    14 C7       5.5993  10.7218   7.1304   C.2       1 RES1   0.0000
    15 H4       5.0396  10.3498   7.8026   H         1 RES1   0.0000
    16 C8       6.7163  11.4763   7.3209   C.2       1 RES1   0.0000
    17 H5       7.0807  11.7414   8.1575   H         1 RES1   0.0000
    18 N4       9.0923  13.4416   2.3364   N.pl3     1 RES1   0.0000
    19 N5       8.0412  12.6800   1.8424   N.2       1 RES1   0.0000
    20 C9       8.1055  12.8153   0.5226   C.2       1 RES1   0.0000
    21 H6       7.5083  12.4038  -0.0898   H         1 RES1   0.0000
    22 C10      9.1792  13.6504   0.1512   C.2       1 RES1   0.0000
    23 H7       9.4275  13.9009  -0.7311   H         1 RES1   0.0000
    24 C11      9.7924  14.0301   1.3202   C.2       1 RES1   0.0000
    25 H8      10.5542  14.5914   1.4052   H         1 RES1   0.0000
    26 N6      10.9488  14.8517   6.7456   N.2       1 RES1   0.0000
    27 N7      11.8739  15.4428   6.1499   N.2       1 RES1   0.0000
    28 C12     12.7442  16.2074   6.9896   C.ar      1 RES1   0.0000
    29 C13     12.5087  16.4749   8.3382   C.ar      1 RES1   0.0000
    30 H9      11.7330  16.1307   8.7660   H         1 RES1   0.0000
    31 C14     13.4184  17.2483   9.0488   C.ar      1 RES1   0.0000
    32 H10     13.2601  17.4423   9.9646   H         1 RES1   0.0000
    33 C15     14.5564  17.7369   8.4278   C.ar      1 RES1   0.0000
    34 H11     15.1809  18.2570   8.9199   H         1 RES1   0.0000
    35 C16     14.7802  17.4676   7.0909   C.ar      1 RES1   0.0000
    36 H12     15.5650  17.7961   6.6682   H         1 RES1   0.0000
    37 C17     13.8686  16.7194   6.3632   C.ar      1 RES1   0.0000
    38 H13     14.0142  16.5591   5.4383   H         1 RES1   0.0000
    39 N8       5.7195  10.8870   2.2188   N.ar      1 RES1   0.0000
    40 C18      6.0030   9.6812   1.6825   C.ar      1 RES1   0.0000
    41 C19      5.1118   8.9851   0.8904   C.ar      1 RES1   0.0000
    42 H14      5.3316   8.1421   0.5130   H         1 RES1   0.0000
    43 C20      3.8612   9.5898   0.6722   C.ar      1 RES1   0.0000
    44 C21      3.5432  10.8410   1.2216   C.ar      1 RES1   0.0000
    45 H15      2.6988  11.2500   1.0731   H         1 RES1   0.0000
    46 C22      4.5268  11.4539   1.9958   C.ar      1 RES1   0.0000
    47 N9       7.2845   9.2588   2.0720   N.pl3     1 RES1   0.0000
    48 N10      7.9761  10.0949   2.9398   N.2       1 RES1   0.0000
    49 C23      9.1111   9.4558   3.2016   C.2       1 RES1   0.0000
    50 H16      9.7950   9.7860   3.7723   H         1 RES1   0.0000
    51 C24      9.1694   8.2176   2.5172   C.2       1 RES1   0.0000
    52 H17      9.8757   7.5826   2.5424   H         1 RES1   0.0000
    53 C25      8.0020   8.1209   1.8125   C.2       1 RES1   0.0000
    54 H18      7.7382   7.4022   1.2498   H         1 RES1   0.0000
    55 N11      4.4392  12.7077   2.6126   N.pl3     1 RES1   0.0000
    56 N12      5.5938  13.1578   3.2418   N.2       1 RES1   0.0000
    57 C26      5.2786  14.3677   3.6987   C.2       1 RES1   0.0000
    58 H19      5.8725  14.9315   4.1799   H         1 RES1   0.0000
    59 C27      3.9433  14.7042   3.3754   C.2       1 RES1   0.0000
    60 H20      3.4907  15.5114   3.5885   H         1 RES1   0.0000
    61 C28      3.4406  13.6373   2.6962   C.2       1 RES1   0.0000
    62 H21      2.5613  13.5544   2.3458   H         1 RES1   0.0000
    63 N13      2.8188   8.9807  -0.1070   N.2       1 RES1   0.0000
    64 N14      3.1714   7.8632  -0.5604   N.2       1 RES1   0.0000
    65 C29      2.1699   7.1701  -1.3064   C.ar      1 RES1   0.0000
    66 C30      2.6010   5.9613  -1.8581   C.ar      1 RES1   0.0000
    67 H22      3.5038   5.6835  -1.7572   H         1 RES1   0.0000
    68 C31      1.6952   5.1661  -2.5577   C.ar      1 RES1   0.0000
    69 H23      1.9751   4.3383  -2.9301   H         1 RES1   0.0000
    70 C32      0.3820   5.5882  -2.7073   C.ar      1 RES1   0.0000
    71 H24     -0.2343   5.0489  -3.1895   H         1 RES1   0.0000
    72 C33     -0.0409   6.7969  -2.1547   C.ar      1 RES1   0.0000
    73 H25     -0.9414   7.0795  -2.2645   H         1 RES1   0.0000
    74 C34      0.8518   7.5897  -1.4452   C.ar      1 RES1   0.0000
    75 H26      0.5652   8.4091  -1.0589   H         1 RES1   0.0000
    76 B1       8.6450   4.6332   2.0270   B         2 RES2  -1.0000
    77 F1       9.5160   5.0238   3.0445   F         2 RES2   0.0000
    78 F2       8.9736   5.3159   0.8651   F         2 RES2   0.0000
    79 F3       8.7631   3.2507   1.7960   F         2 RES2   0.0000
    80 F4       7.3308   4.9160   2.3922   F         2 RES2   0.0000
    81 B2      12.4845  10.9197   3.5420   B         3 RES3  -1.0000
    82 F5      12.2184   9.6504   3.0736   F         3 RES3   0.0000
    83 F6      12.3155  11.8356   2.5055   F         3 RES3   0.0000
    84 F7      13.7880  10.9884   4.0323   F         3 RES3   0.0000
    85 F8      11.5830  11.2391   4.5731   F         3 RES3   0.0000
    86 C35      6.7965  16.0612   8.4867   C.3       4 RES4   0.0000
    87 H27      7.7617  16.0358   8.6591   H         4 RES4   0.0000
    88 H28      6.3432  15.4260   9.0781   H         4 RES4   0.0000
    89 H29      6.4588  16.9650   8.6577   H         4 RES4   0.0000
    90 N15      6.5388  15.6982   7.0874   N.pl3     4 RES4   0.0000
    91 O1       6.0290  14.6126   6.8863   O.2       4 RES4   0.0000
    92 O2       6.8643  16.4647   6.2139   O.2       4 RES4   0.0000
@<TRIPOS>BOND
     1     1     2    1
     2     2     3   ar
     3     3     4   ar
     4     4     5    1
     5     6     4   ar
     6     7     6   ar
     7     8     7    1
     8     9     2   ar
     9    10     3    1
    10    11     1    1
    11    12    11    2
    12    13    12    1
    13    14    12    1
    14    15    14    1
    15    16    10    1
    16    17    16    1
    17    18     9    1
    18    19     1    1
    19    20    19    2
    20    21    20    1
    21    22    20    1
    22    23    22    1
    23    24    18    1
    24    25    24    1
    25    26     6    1
    26    27    26    2
    27    28    27    1
    28    29    28   ar
    29    30    29    1
    30    31    29   ar
    31    32    31    1
    32    33    31   ar
    33    34    33    1
    34    35    33   ar
    35    36    35    1
    36    37    28   ar
    37    38    37    1
    38    39     1    1
    39    40    39   ar
    40    41    40   ar
    41    42    41    1
    42    43    41   ar
    43    44    43   ar
    44    45    44    1
    45    46    39   ar
    46    47    40    1
    47    48     1    1
    48    49    48    2
    49    50    49    1
    50    51    49    1
    51    52    51    1
    52    53    47    1
    53    54    53    1
    54    55    46    1
    55    56     1    1
    56    57    56    2
    57    58    57    1
    58    59    57    1
    59    60    59    1
    60    61    55    1
    61    62    61    1
    62    63    43    1
    63    64    63    2
    64    65    64    1
    65    66    65   ar
    66    67    66    1
    67    68    66   ar
    68    69    68    1
    69    70    68   ar
    70    71    70    1
    71    72    70   ar
    72    73    72    1
    73    74    65   ar
    74    75    74    1
    75     7     9   ar
    76    10    11    1
    77    14    16    2
    78    18    19    1
    79    22    24    2
    80    35    37   ar
    81    44    46   ar
    82    47    48    1
    83    51    53    2
    84    55    56    1
    85    59    61    2
    86    72    74   ar
    87    76    77    1
    88    78    76    1
    89    79    76    1
    90    80    76    1
    91    81    82    1
    92    83    81    1
    93    84    81    1
    94    85    81    1
    95    86    87    1
    96    88    86    1
    97    89    86    1
    98    90    86    1
    99    91    90    2
   100    92    90    2
@<TRIPOS>SUBSTRUCTURE
     1 RES1        1 GROUP             0 ****  ****    0  
     2 RES2       76 GROUP             0 ****  ****    0  
     3 RES3       81 GROUP             0 ****  ****    0  
     4 RES4       86 GROUP             0 ****  ****    0  
@<TRIPOS>CRYSIN
   11.6785   12.6572   14.2703   89.1240   87.0500   71.7460     2     1
