@<TRIPOS>MOLECULE
XUKFEQ
    93   100     5     0     0
SMALL
USER_CHARGES
****
Generated from the CSD

@<TRIPOS>ATOM
     1 Fe1      4.5786   9.4346   0.6796   Fe        1 RES1   2.0000
     2 N1       2.8361   9.6276  -0.0554   N.ar      1 RES1   0.0000
     3 C1       2.1617   8.5595  -0.4975   C.ar      1 RES1   0.0000
     4 C2       0.9444   8.6384  -1.1266   C.ar      1 RES1   0.0000
     5 H1       0.4787   7.8617  -1.4144   H         1 RES1   0.0000
     6 C3       0.4222   9.9274  -1.3233   C.ar      1 RES1   0.0000
     7 C4       1.1016  11.0565  -0.8640   C.ar      1 RES1   0.0000
     8 H2       0.7447  11.9298  -0.9719   H         1 RES1   0.0000
     9 C5       2.3060  10.8432  -0.2515   C.ar      1 RES1   0.0000
    10 N2       2.9006   7.3914  -0.2654   N.pl3     1 RES1   0.0000
    11 N3       4.1270   7.5380   0.3513   N.2       1 RES1   0.0000
    12 C6       4.6160   6.3119   0.4550   C.2       1 RES1   0.0000
    13 H3       5.4566   6.0976   0.8431   H         1 RES1   0.0000
    14 C7       3.7187   5.3662  -0.0904   C.2       1 RES1   0.0000
    15 H4       3.8391   4.4256  -0.1374   H         1 RES1   0.0000
    16 C8       2.6467   6.0800  -0.5348   C.2       1 RES1   0.0000
    17 H5       1.8684   5.7295  -0.9531   H         1 RES1   0.0000
    18 N4       3.1907  11.8330   0.2078   N.pl3     1 RES1   0.0000
    19 N5       4.4114  11.4061   0.6891   N.2       1 RES1   0.0000
    20 C9       5.1019  12.5123   0.9237   C.2       1 RES1   0.0000
    21 H6       5.9916  12.5312   1.2582   H         1 RES1   0.0000
    22 C10      4.3448  13.6505   0.6107   C.2       1 RES1   0.0000
    23 H7       4.6146  14.5576   0.6942   H         1 RES1   0.0000
    24 C11      3.1377  13.1886   0.1605   C.2       1 RES1   0.0000
    25 H8       2.4030  13.7154  -0.1302   H         1 RES1   0.0000
    26 N6      -0.7806  10.0737  -2.0282   N.pl3     1 RES1   0.0000
    27 N7      -1.4612   8.9577  -2.4573   N.2       1 RES1   0.0000
    28 C12     -2.5261   9.4429  -3.0749   C.2       1 RES1   0.0000
    29 H9      -3.1949   8.9033  -3.4810   H         1 RES1   0.0000
    30 C13     -2.5533  10.8475  -3.0603   C.2       1 RES1   0.0000
    31 H10     -3.2165  11.4144  -3.4348   H         1 RES1   0.0000
    32 C14     -1.4269  11.2231  -2.3955   C.2       1 RES1   0.0000
    33 H11     -1.1439  12.1124  -2.2199   H         1 RES1   0.0000
    34 N8       6.3389   9.2325   1.3557   N.ar      1 RES1   0.0000
    35 C15      6.5569   9.0769   2.6664   C.ar      1 RES1   0.0000
    36 C16      7.8028   8.9372   3.2180   C.ar      1 RES1   0.0000
    37 H12      7.9247   8.8235   4.1535   H         1 RES1   0.0000
    38 C17      8.8892   8.9705   2.3345   C.ar      1 RES1   0.0000
    39 C18      8.6926   9.1243   0.9554   C.ar      1 RES1   0.0000
    40 H13      9.4212   9.1380   0.3471   H         1 RES1   0.0000
    41 C19      7.3891   9.2559   0.5261   C.ar      1 RES1   0.0000
    42 N9       5.3398   9.1107   3.3694   N.pl3     1 RES1   0.0000
    43 N10      4.2000   9.2903   2.6155   N.2       1 RES1   0.0000
    44 C20      3.2040   9.3194   3.4982   C.2       1 RES1   0.0000
    45 H14      2.2882   9.4356   3.2742   H         1 RES1   0.0000
    46 C21      3.6912   9.1550   4.8033   C.2       1 RES1   0.0000
    47 H15      3.1808   9.1349   5.6041   H         1 RES1   0.0000
    48 C22      5.0498   9.0286   4.6938   C.2       1 RES1   0.0000
    49 H16      5.6682   8.9079   5.4045   H         1 RES1   0.0000
    50 N11      6.9679   9.4607  -0.7904   N.pl3     1 RES1   0.0000
    51 N12      5.6035   9.5437  -0.9950   N.2       1 RES1   0.0000
    52 C23      5.4567   9.7818  -2.2904   C.2       1 RES1   0.0000
    53 H17      4.6195   9.8758  -2.7304   H         1 RES1   0.0000
    54 C24      6.7079   9.8764  -2.9216   C.2       1 RES1   0.0000
    55 H18      6.8691  10.0553  -3.8411   H         1 RES1   0.0000
    56 C25      7.6411   9.6623  -1.9585   C.2       1 RES1   0.0000
    57 H19      8.5833   9.6549  -2.0768   H         1 RES1   0.0000
    58 N13     10.1940   8.8746   2.8336   N.pl3     1 RES1   0.0000
    59 N14     11.2623   8.9614   1.9781   N.2       1 RES1   0.0000
    60 C26     12.3190   8.8408   2.7727   C.2       1 RES1   0.0000
    61 H20     13.2175   8.8665   2.4643   H         1 RES1   0.0000
    62 C27     11.9599   8.6706   4.1205   C.2       1 RES1   0.0000
    63 H21     12.5393   8.5597   4.8651   H         1 RES1   0.0000
    64 C28     10.6020   8.6997   4.1246   C.2       1 RES1   0.0000
    65 H22     10.0407   8.6149   4.8853   H         1 RES1   0.0000
    66 P1       7.0463   5.0683   3.5149   P.3       2 RES2  -1.0000
    67 F1       6.0852   4.0221   2.7831   F         2 RES2   0.0000
    68 F2       8.2906   4.0895   3.2676   F         2 RES2   0.0000
    69 F3       8.0319   6.1151   4.2202   F         2 RES2   0.0000
    70 F4       5.8124   6.0516   3.7421   F         2 RES2   0.0000
    71 F5       6.7758   4.3605   4.9261   F         2 RES2   0.0000
    72 F6       7.3431   5.7811   2.0919   F         2 RES2   0.0000
    73 P2      -0.2724  11.2400   2.9101   P.3       3 RES3  -1.0000
    74 F7      -0.9191  11.7619   1.5417   F         3 RES3   0.0000
    75 F8       0.0609   9.8189   2.2084   F         3 RES3   0.0000
    76 F9       0.3786  10.6991   4.2788   F         3 RES3   0.0000
    77 F10     -0.5848  12.6419   3.6144   F         3 RES3   0.0000
    78 F11      1.1639  11.7838   2.4480   F         3 RES3   0.0000
    79 F12     -1.6963  10.6775   3.3685   F         3 RES3   0.0000
    80 C29      4.0045   4.4332   6.7509   C.3       4 RES4   0.0000
    81 H23      4.7682   4.6863   6.1883   H         4 RES4   0.0000
    82 H24      3.3837   3.8856   6.2288   H         4 RES4   0.0000
    83 H25      4.3258   3.9209   7.5217   H         4 RES4   0.0000
    84 N15      3.3179   5.6462   7.2183   N.pl3     4 RES4   0.0000
    85 O1       2.1204   5.7563   6.9981   O.2       4 RES4   0.0000
    86 O2       3.9680   6.4831   7.8288   O.2       4 RES4   0.0000
    87 C30     -0.9630   7.4616   4.7123   C.3       5 RES5   0.0000
    88 H26     -0.8917   6.7680   4.0234   H         5 RES5   0.0000
    89 H27     -0.8108   7.0625   5.5939   H         5 RES5   0.0000
    90 H28     -0.2915   8.1562   4.5469   H         5 RES5   0.0000
    91 N16     -2.3157   8.0630   4.6697   N.pl3     5 RES5   0.0000
    92 O3      -2.9611   7.9596   3.6411   O.2       5 RES5   0.0000
    93 O4      -2.7085   8.6482   5.6793   O.2       5 RES5   0.0000
@<TRIPOS>BOND
     1     1     2    1
     2     2     3   ar
     3     3     4   ar
     4     4     5    1
     5     6     4   ar
     6     7     6   ar
     7     8     7    1
     8     9     2   ar
     9    10     3    1
    10    11     1    1
    11    12    11    2
    12    13    12    1
    13    14    12    1
    14    15    14    1
    15    16    10    1
    16    17    16    1
    17    18     9    1
    18    19     1    1
    19    20    19    2
    20    21    20    1
    21    22    20    1
    22    23    22    1
    23    24    18    1
    24    25    24    1
    25    26     6    1
    26    27    26    1
    27    28    27    2
    28    29    28    1
    29    30    28    1
    30    31    30    1
    31    32    26    1
    32    33    32    1
    33    34     1    1
    34    35    34   ar
    35    36    35   ar
    36    37    36    1
    37    38    36   ar
    38    39    38   ar
    39    40    39    1
    40    41    34   ar
    41    42    35    1
    42    43     1    1
    43    44    43    2
    44    45    44    1
    45    46    44    1
    46    47    46    1
    47    48    42    1
    48    49    48    1
    49    50    41    1
    50    51     1    1
    51    52    51    2
    52    53    52    1
    53    54    52    1
    54    55    54    1
    55    56    50    1
    56    57    56    1
    57    58    38    1
    58    59    58    1
    59    60    59    2
    60    61    60    1
    61    62    60    1
    62    63    62    1
    63    64    58    1
    64    65    64    1
    65     7     9   ar
    66    10    11    1
    67    14    16    2
    68    18    19    1
    69    22    24    2
    70    30    32    2
    71    39    41   ar
    72    42    43    1
    73    46    48    2
    74    50    51    1
    75    54    56    2
    76    62    64    2
    77    66    67    1
    78    68    66    1
    79    69    66    1
    80    70    66    1
    81    71    66    1
    82    72    66    1
    83    73    74    1
    84    75    73    1
    85    76    73    1
    86    77    73    1
    87    78    73    1
    88    79    73    1
    89    80    81    1
    90    82    80    1
    91    83    80    1
    92    84    80    1
    93    85    84    2
    94    86    84    2
    95    87    88    1
    96    89    87    1
    97    90    87    1
    98    91    87    1
    99    92    91    2
   100    93    91    2
@<TRIPOS>SUBSTRUCTURE
     1 RES1        1 GROUP             0 ****  ****    0  
     2 RES2       66 GROUP             0 ****  ****    0  
     3 RES3       73 GROUP             0 ****  ****    0  
     4 RES4       80 GROUP             0 ****  ****    0  
     5 RES5       87 GROUP             0 ****  ****    0  
@<TRIPOS>CRYSIN
   18.2548   15.3399   15.7211   90.0000  113.0860   90.0000    14     1
