@<TRIPOS>MOLECULE
XUKNUN01
   107   114     1     0     0
SMALL
NO_CHARGES
****
Generated from the CSD

@<TRIPOS>ATOM
     1 Fe1      3.6704   2.1041   1.7524   Fe        1 RES1   0.0000
     2 N1       1.9329   1.8980   0.9203   N.2       1 RES1   0.0000
     3 C1       0.9094   1.6594   0.4383   C.1       1 RES1   0.0000
     4 Se1     -0.6999   1.3113  -0.2896   Se        1 RES1   0.0000
     5 N2       5.4110   2.3295   2.5882   N.2       1 RES1   0.0000
     6 C2       6.4450   2.5471   3.0825   C.1       1 RES1   0.0000
     7 Se2      8.0324   2.8858   3.8560   Se        1 RES1   0.0000
     8 N3       3.6900   4.0074   1.1419   N.ar      1 RES1   0.0000
     9 N4       4.5968   1.5263   0.0656   N.ar      1 RES1   0.0000
    10 N5       3.5791   0.1738   2.2900   N.ar      1 RES1   0.0000
    11 N6       2.8242   2.6605   3.4803   N.ar      1 RES1   0.0000
    12 C3       2.5935   4.8050   1.2235   C.ar      1 RES1   0.0000
    13 H1       1.8036   4.4521   1.6161   H         1 RES1   0.0000
    14 C4       2.5766   6.0994   0.7629   C.ar      1 RES1   0.0000
    15 H2       1.7844   6.6189   0.8523   H         1 RES1   0.0000
    16 C5       3.7104   6.6636   0.1642   C.ar      1 RES1   0.0000
    17 C6       4.8311   5.8376   0.0845   C.ar      1 RES1   0.0000
    18 H3       5.6274   6.1646  -0.3168   H         1 RES1   0.0000
    19 C7       4.7960   4.5485   0.5831   C.ar      1 RES1   0.0000
    20 H4       5.5827   4.0191   0.5306   H         1 RES1   0.0000
    21 C8       3.7735   8.0330  -0.3615   C.2       1 RES1   0.0000
    22 H5       4.5949   8.3041  -0.7512   H         1 RES1   0.0000
    23 C9       2.7879   8.9354  -0.3469   C.2       1 RES1   0.0000
    24 H6       1.9661   8.6809   0.0554   H         1 RES1   0.0000
    25 C10      2.8800  10.2957  -0.9057   C.ar      1 RES1   0.0000
    26 C11      1.7003  11.0196  -1.1438   C.ar      1 RES1   0.0000
    27 H7       0.8604  10.6517  -0.8941   H         1 RES1   0.0000
    28 C12      1.7538  12.2779  -1.7463   C.ar      1 RES1   0.0000
    29 H8       0.9496  12.7516  -1.9251   H         1 RES1   0.0000
    30 C13      2.9759  12.8369  -2.0826   C.ar      1 RES1   0.0000
    31 H9       3.0112  13.6922  -2.4946   H         1 RES1   0.0000
    32 C14      4.1482  12.1476  -1.8182   C.ar      1 RES1   0.0000
    33 H10      4.9869  12.5374  -2.0349   H         1 RES1   0.0000
    34 C15      4.0998  10.8887  -1.2381   C.ar      1 RES1   0.0000
    35 H11      4.9104  10.4223  -1.0641   H         1 RES1   0.0000
    36 C16      4.2049   1.9065  -1.1710   C.ar      1 RES1   0.0000
    37 H12      3.4733   2.5057  -1.2478   H         1 RES1   0.0000
    38 C17      4.8129   1.4692  -2.3245   C.ar      1 RES1   0.0000
    39 H13      4.5121   1.7945  -3.1652   H         1 RES1   0.0000
    40 C18      5.8702   0.5508  -2.2750   C.ar      1 RES1   0.0000
    41 C19      6.3000   0.1761  -0.9883   C.ar      1 RES1   0.0000
    42 H14      7.0326  -0.4194  -0.8863   H         1 RES1   0.0000
    43 C20      5.6579   0.6739   0.1186   C.ar      1 RES1   0.0000
    44 H15      5.9747   0.4072   0.9747   H         1 RES1   0.0000
    45 C21      6.4307  -0.0119  -3.5024   C.2       1 RES1   0.0000
    46 H16      6.3539   0.4999  -4.2992   H         1 RES1   0.0000
    47 C22      7.0482  -1.2036  -3.5801   C.2       1 RES1   0.0000
    48 H17      7.2525  -1.6319  -2.7570   H         1 RES1   0.0000
    49 C23      7.4370  -1.9064  -4.8007   C.ar      1 RES1   0.0000
    50 C24      7.4335  -1.3244  -6.0699   C.ar      1 RES1   0.0000
    51 H18      7.2461  -0.3966  -6.1593   H         1 RES1   0.0000
    52 C25      7.6986  -2.0776  -7.1991   C.ar      1 RES1   0.0000
    53 H19      7.6731  -1.6654  -8.0543   H         1 RES1   0.0000
    54 C26      8.0010  -3.4368  -7.0951   C.ar      1 RES1   0.0000
    55 H20      8.1861  -3.9507  -7.8726   H         1 RES1   0.0000
    56 C27      8.0281  -4.0211  -5.8425   C.ar      1 RES1   0.0000
    57 H21      8.2371  -4.9445  -5.7560   H         1 RES1   0.0000
    58 C28      7.7515  -3.2659  -4.7084   C.ar      1 RES1   0.0000
    59 H22      7.7782  -3.6817  -3.8542   H         1 RES1   0.0000
    60 C29      3.1887  -0.7754   1.4081   C.ar      1 RES1   0.0000
    61 H23      2.8232  -0.4969   0.5772   H         1 RES1   0.0000
    62 C30      3.2968  -2.1235   1.6559   C.ar      1 RES1   0.0000
    63 H24      3.0208  -2.7488   0.9971   H         1 RES1   0.0000
    64 C31      3.8117  -2.5784   2.8775   C.ar      1 RES1   0.0000
    65 C32      4.1182  -1.5947   3.8221   C.ar      1 RES1   0.0000
    66 H25      4.4101  -1.8447   4.6909   H         1 RES1   0.0000
    67 C33      3.9968  -0.2665   3.4946   C.ar      1 RES1   0.0000
    68 H26      4.2189   0.3799   4.1554   H         1 RES1   0.0000
    69 C34      4.0653  -4.0179   3.0689   C.2       1 RES1   0.0000
    70 H27      3.7696  -4.6132   2.3897   H         1 RES1   0.0000
    71 C35      4.6781  -4.5395   4.1243   C.2       1 RES1   0.0000
    72 H28      4.9008  -3.9355   4.8240   H         1 RES1   0.0000
    73 C36      5.0528  -5.9532   4.3352   C.ar      1 RES1   0.0000
    74 C37      5.0079  -6.9070   3.3342   C.ar      1 RES1   0.0000
    75 H29      4.7192  -6.6615   2.4635   H         1 RES1   0.0000
    76 C38      5.3839  -8.2260   3.5898   C.ar      1 RES1   0.0000
    77 H30      5.3565  -8.8693   2.8911   H         1 RES1   0.0000
    78 C39      5.7991  -8.6040   4.8609   C.ar      1 RES1   0.0000
    79 H31      6.0416  -9.5045   5.0436   H         1 RES1   0.0000
    80 C40      5.8520  -7.6455   5.8522   C.ar      1 RES1   0.0000
    81 H32      6.1372  -7.8923   6.7249   H         1 RES1   0.0000
    82 C41      5.4977  -6.3278   5.5976   C.ar      1 RES1   0.0000
    83 H33      5.5604  -5.6799   6.2895   H         1 RES1   0.0000
    84 C42      1.7538   2.0209   3.9795   C.ar      1 RES1   0.0000
    85 H34      1.4084   1.2779   3.4995   H         1 RES1   0.0000
    86 C43      1.1283   2.3903   5.1612   C.ar      1 RES1   0.0000
    87 H35      0.3951   1.8811   5.4887   H         1 RES1   0.0000
    88 C44      1.5713   3.5137   5.8736   C.ar      1 RES1   0.0000
    89 C45      2.7305   4.1338   5.3770   C.ar      1 RES1   0.0000
    90 H36      3.1164   4.8624   5.8493   H         1 RES1   0.0000
    91 C46      3.3124   3.6890   4.2060   C.ar      1 RES1   0.0000
    92 H37      4.0947   4.1285   3.8959   H         1 RES1   0.0000
    93 C47      0.7826   4.0165   6.9989   C.2       1 RES1   0.0000
    94 H38      0.2581   3.3991   7.4955   H         1 RES1   0.0000
    95 C48      0.7654   5.3084   7.3614   C.2       1 RES1   0.0000
    96 H39      1.3989   5.8789   6.9435   H         1 RES1   0.0000
    97 C49     -0.1354   5.9280   8.3390   C.ar      1 RES1   0.0000
    98 C50     -0.8416   5.1933   9.3011   C.ar      1 RES1   0.0000
    99 H40     -0.6978   4.2576   9.3837   H         1 RES1   0.0000
   100 C51     -1.7500   5.8267  10.1310   C.ar      1 RES1   0.0000
   101 H41     -2.2146   5.3228  10.7880   H         1 RES1   0.0000
   102 C52     -1.9897   7.1942  10.0144   C.ar      1 RES1   0.0000
   103 H42     -2.6384   7.6157  10.5664   H         1 RES1   0.0000
   104 C53     -1.2743   7.9356   9.0863   C.ar      1 RES1   0.0000
   105 H43     -1.4180   8.8724   9.0183   H         1 RES1   0.0000
   106 C54     -0.3499   7.3156   8.2584   C.ar      1 RES1   0.0000
   107 H44      0.1434   7.8330   7.6306   H         1 RES1   0.0000
@<TRIPOS>BOND
     1     1     2    1
     2     2     3    2
     3     3     4    2
     4     5     1    1
     5     6     5    2
     6     7     6    2
     7     8     1    1
     8     9     1    1
     9    10     1    1
    10    11     1    1
    11    12     8   ar
    12    13    12    1
    13    14    12   ar
    14    15    14    1
    15    16    14   ar
    16    17    16   ar
    17    18    17    1
    18    19     8   ar
    19    20    19    1
    20    21    16    1
    21    22    21    1
    22    23    21    2
    23    24    23    1
    24    25    23    1
    25    26    25   ar
    26    27    26    1
    27    28    26   ar
    28    29    28    1
    29    30    28   ar
    30    31    30    1
    31    32    30   ar
    32    33    32    1
    33    34    25   ar
    34    35    34    1
    35    36     9   ar
    36    37    36    1
    37    38    36   ar
    38    39    38    1
    39    40    38   ar
    40    41    40   ar
    41    42    41    1
    42    43     9   ar
    43    44    43    1
    44    45    40    1
    45    46    45    1
    46    47    45    2
    47    48    47    1
    48    49    47    1
    49    50    49   ar
    50    51    50    1
    51    52    50   ar
    52    53    52    1
    53    54    52   ar
    54    55    54    1
    55    56    54   ar
    56    57    56    1
    57    58    49   ar
    58    59    58    1
    59    60    10   ar
    60    61    60    1
    61    62    60   ar
    62    63    62    1
    63    64    62   ar
    64    65    64   ar
    65    66    65    1
    66    67    10   ar
    67    68    67    1
    68    69    64    1
    69    70    69    1
    70    71    69    2
    71    72    71    1
    72    73    71    1
    73    74    73   ar
    74    75    74    1
    75    76    74   ar
    76    77    76    1
    77    78    76   ar
    78    79    78    1
    79    80    78   ar
    80    81    80    1
    81    82    73   ar
    82    83    82    1
    83    84    11   ar
    84    85    84    1
    85    86    84   ar
    86    87    86    1
    87    88    86   ar
    88    89    88   ar
    89    90    89    1
    90    91    11   ar
    91    92    91    1
    92    93    88    1
    93    94    93    1
    94    95    93    2
    95    96    95    1
    96    97    95    1
    97    98    97   ar
    98    99    98    1
    99   100    98   ar
   100   101   100    1
   101   102   100   ar
   102   103   102    1
   103   104   102   ar
   104   105   104    1
   105   106    97   ar
   106   107   106    1
   107    17    19   ar
   108    32    34   ar
   109    41    43   ar
   110    56    58   ar
   111    65    67   ar
   112    80    82   ar
   113    89    91   ar
   114   104   106   ar
@<TRIPOS>SUBSTRUCTURE
     1 RES1        1 GROUP             0 ****  ****    0  
@<TRIPOS>CRYSIN
   31.8650   15.1950    9.7180   90.0000   90.0000   90.0000    33     1
