@<TRIPOS>MOLECULE
XUKPEZ01
   107   114     1     0     0
SMALL
NO_CHARGES
****
Generated from the CSD

@<TRIPOS>ATOM
     1 Fe1     -0.3660  10.7385   4.4996   Fe        1 RES1   0.0000
     2 Se1      2.3486   9.6084   0.4082   Se        1 RES1   0.0000
     3 N1       0.7527  10.6684   2.6668   N.2       1 RES1   0.0000
     4 C1       1.3873  10.2460   1.7831   C.1       1 RES1   0.0000
     5 N2      -1.6897   9.1965   3.6129   N.ar      1 RES1   0.0000
     6 C2      -1.2022   8.2555   2.7819   C.ar      1 RES1   0.0000
     7 H1      -0.2624   8.2117   2.6476   H         1 RES1   0.0000
     8 C3      -2.0017   7.3526   2.1161   C.ar      1 RES1   0.0000
     9 H2      -1.6073   6.6997   1.5497   H         1 RES1   0.0000
    10 C4      -3.3995   7.3921   2.2729   C.ar      1 RES1   0.0000
    11 C5      -3.8921   8.3390   3.1748   C.ar      1 RES1   0.0000
    12 H3      -4.8239   8.3902   3.3495   H         1 RES1   0.0000
    13 C6      -3.0198   9.2009   3.8128   C.ar      1 RES1   0.0000
    14 H4      -3.3793   9.8308   4.4258   H         1 RES1   0.0000
    15 C7      -4.2295   6.3828   1.5848   C.2       1 RES1   0.0000
    16 H5      -3.7881   5.5564   1.4309   H         1 RES1   0.0000
    17 C8      -5.4848   6.4203   1.1415   C.2       1 RES1   0.0000
    18 H6      -5.8183   5.5776   0.8567   H         1 RES1   0.0000
    19 C9      -6.4626   7.5303   1.0094   C.ar      1 RES1   0.0000
    20 C10     -6.0857   8.8693   0.8661   C.ar      1 RES1   0.0000
    21 H7      -5.1653   9.1052   0.8981   H         1 RES1   0.0000
    22 C11     -7.0395   9.8559   0.6766   C.ar      1 RES1   0.0000
    23 H8      -6.7685  10.7600   0.5670   H         1 RES1   0.0000
    24 C12     -8.3941   9.5281   0.6460   C.ar      1 RES1   0.0000
    25 H9      -9.0469  10.2101   0.5400   H         1 RES1   0.0000
    26 C13     -8.7845   8.2064   0.7702   C.ar      1 RES1   0.0000
    27 H10     -9.7061   7.9765   0.7433   H         1 RES1   0.0000
    28 C14     -7.8240   7.2138   0.9338   C.ar      1 RES1   0.0000
    29 H11     -8.0965   6.3058   0.9953   H         1 RES1   0.0000
    30 N3      -1.7069  12.3892   3.8585   N.ar      1 RES1   0.0000
    31 C15     -2.1648  12.5901   2.6175   C.ar      1 RES1   0.0000
    32 H12     -1.9331  11.9627   1.9420   H         1 RES1   0.0000
    33 C16     -2.9608  13.6705   2.2725   C.ar      1 RES1   0.0000
    34 H13     -3.2645  13.7668   1.3769   H         1 RES1   0.0000
    35 C17     -3.3197  14.6202   3.2329   C.ar      1 RES1   0.0000
    36 C18     -2.8334  14.4127   4.5272   C.ar      1 RES1   0.0000
    37 H14     -3.0405  15.0264   5.2232   H         1 RES1   0.0000
    38 C19     -2.0486  13.3071   4.7829   C.ar      1 RES1   0.0000
    39 H15     -1.7288  13.1853   5.6695   H         1 RES1   0.0000
    40 C20     -4.2766  15.6842   2.8576   C.2       1 RES1   0.0000
    41 H16     -4.7935  15.4890   2.0842   H         1 RES1   0.0000
    42 C21     -4.5443  16.8741   3.4143   C.2       1 RES1   0.0000
    43 H17     -5.3180  17.2997   3.0652   H         1 RES1   0.0000
    44 C22     -3.8591  17.6463   4.4690   C.ar      1 RES1   0.0000
    45 C23     -2.4674  17.6336   4.6398   C.ar      1 RES1   0.0000
    46 H18     -1.9326  17.0605   4.1037   H         1 RES1   0.0000
    47 C24     -1.8679  18.4509   5.5855   C.ar      1 RES1   0.0000
    48 H19     -0.9230  18.4404   5.6875   H         1 RES1   0.0000
    49 C25     -2.6393  19.2862   6.3871   C.ar      1 RES1   0.0000
    50 H20     -2.2245  19.8348   7.0428   H         1 RES1   0.0000
    51 C26     -4.0109  19.3127   6.2246   C.ar      1 RES1   0.0000
    52 H21     -4.5399  19.8810   6.7711   H         1 RES1   0.0000
    53 C27     -4.6206  18.5101   5.2637   C.ar      1 RES1   0.0000
    54 H22     -5.5617  18.5501   5.1458   H         1 RES1   0.0000
    55 Se1A    -3.0805   9.6084   8.5911   Se        1 RES1   0.0000
    56 N1A     -1.4847  10.6684   6.3324   N.2       1 RES1   0.0000
    57 C1A     -2.1193  10.2460   7.2162   C.1       1 RES1   0.0000
    58 N2A      0.9577   9.1965   5.3864   N.ar      1 RES1   0.0000
    59 C2A      0.4702   8.2555   6.2174   C.ar      1 RES1   0.0000
    60 H1A     -0.4696   8.2117   6.3517   H         1 RES1   0.0000
    61 C3A      1.2697   7.3526   6.8832   C.ar      1 RES1   0.0000
    62 H2A      0.8753   6.6997   7.4496   H         1 RES1   0.0000
    63 C4A      2.6675   7.3921   6.7264   C.ar      1 RES1   0.0000
    64 C5A      3.1602   8.3390   5.8245   C.ar      1 RES1   0.0000
    65 H3A      4.0919   8.3902   5.6497   H         1 RES1   0.0000
    66 C6A      2.2879   9.2009   5.1865   C.ar      1 RES1   0.0000
    67 H4A      2.6473   9.8308   4.5734   H         1 RES1   0.0000
    68 C7A      3.4975   6.3828   7.4145   C.2       1 RES1   0.0000
    69 H5A      3.0561   5.5564   7.5684   H         1 RES1   0.0000
    70 C8A      4.7529   6.4203   7.8578   C.2       1 RES1   0.0000
    71 H6A      5.0863   5.5776   8.1425   H         1 RES1   0.0000
    72 C9A      5.7306   7.5303   7.9899   C.ar      1 RES1   0.0000
    73 C10A     5.3537   8.8693   8.1332   C.ar      1 RES1   0.0000
    74 H7A      4.4333   9.1052   8.1012   H         1 RES1   0.0000
    75 C11A     6.3076   9.8559   8.3227   C.ar      1 RES1   0.0000
    76 H8A      6.0365  10.7600   8.4323   H         1 RES1   0.0000
    77 C12A     7.6621   9.5281   8.3533   C.ar      1 RES1   0.0000
    78 H9A      8.3149  10.2101   8.4593   H         1 RES1   0.0000
    79 C13A     8.0525   8.2064   8.2291   C.ar      1 RES1   0.0000
    80 H10A     8.9741   7.9765   8.2559   H         1 RES1   0.0000
    81 C14A     7.0920   7.2138   8.0655   C.ar      1 RES1   0.0000
    82 H11A     7.3645   6.3058   8.0040   H         1 RES1   0.0000
    83 N3A      0.9749  12.3892   5.1407   N.ar      1 RES1   0.0000
    84 C15A     1.4328  12.5901   6.3818   C.ar      1 RES1   0.0000
    85 H12A     1.2011  11.9627   7.0572   H         1 RES1   0.0000
    86 C16A     2.2288  13.6705   6.7268   C.ar      1 RES1   0.0000
    87 H13A     2.5325  13.7668   7.6224   H         1 RES1   0.0000
    88 C17A     2.5877  14.6202   5.7664   C.ar      1 RES1   0.0000
    89 C18A     2.1014  14.4127   4.4721   C.ar      1 RES1   0.0000
    90 H14A     2.3085  15.0264   3.7761   H         1 RES1   0.0000
    91 C19A     1.3166  13.3071   4.2163   C.ar      1 RES1   0.0000
    92 H15A     0.9968  13.1853   3.3297   H         1 RES1   0.0000
    93 C20A     3.5447  15.6842   6.1416   C.2       1 RES1   0.0000
    94 H16A     4.0615  15.4890   6.9150   H         1 RES1   0.0000
    95 C21A     3.8123  16.8741   5.5850   C.2       1 RES1   0.0000
    96 H17A     4.5860  17.2997   5.9341   H         1 RES1   0.0000
    97 C22A     3.1271  17.6463   4.5302   C.ar      1 RES1   0.0000
    98 C23A     1.7354  17.6336   4.3594   C.ar      1 RES1   0.0000
    99 H18A     1.2006  17.0605   4.8956   H         1 RES1   0.0000
   100 C24A     1.1360  18.4509   3.4138   C.ar      1 RES1   0.0000
   101 H19A     0.1911  18.4404   3.3117   H         1 RES1   0.0000
   102 C25A     1.9073  19.2862   2.6121   C.ar      1 RES1   0.0000
   103 H20A     1.4926  19.8348   1.9564   H         1 RES1   0.0000
   104 C26A     3.2789  19.3127   2.7747   C.ar      1 RES1   0.0000
   105 H21A     3.8079  19.8810   2.2282   H         1 RES1   0.0000
   106 C27A     3.8887  18.5101   3.7356   C.ar      1 RES1   0.0000
   107 H22A     4.8297  18.5501   3.8535   H         1 RES1   0.0000
@<TRIPOS>BOND
     1     1     3    1
     2     2     4    2
     3     3     4    2
     4     5     1    1
     5     6     5   ar
     6     7     6    1
     7     8     6   ar
     8     9     8    1
     9    10     8   ar
    10    11    10   ar
    11    12    11    1
    12    13     5   ar
    13    14    13    1
    14    15    10    1
    15    16    15    1
    16    17    15    2
    17    18    17    1
    18    19    17    1
    19    20    19   ar
    20    21    20    1
    21    22    20   ar
    22    23    22    1
    23    24    22   ar
    24    25    24    1
    25    26    24   ar
    26    27    26    1
    27    28    19   ar
    28    29    28    1
    29    30     1    1
    30    31    30   ar
    31    32    31    1
    32    33    31   ar
    33    34    33    1
    34    35    33   ar
    35    36    35   ar
    36    37    36    1
    37    38    30   ar
    38    39    38    1
    39    40    35    1
    40    41    40    1
    41    42    40    2
    42    43    42    1
    43    44    42    1
    44    45    44   ar
    45    46    45    1
    46    47    45   ar
    47    48    47    1
    48    49    47   ar
    49    50    49    1
    50    51    49   ar
    51    52    51    1
    52    53    44   ar
    53    54    53    1
    54    55    57    2
    55    56     1    1
    56    57    56    2
    57    58     1    1
    58    59    58   ar
    59    60    59    1
    60    61    59   ar
    61    62    61    1
    62    63    61   ar
    63    64    63   ar
    64    65    64    1
    65    66    58   ar
    66    67    66    1
    67    68    63    1
    68    69    68    1
    69    70    68    2
    70    71    70    1
    71    72    70    1
    72    73    72   ar
    73    74    73    1
    74    75    73   ar
    75    76    75    1
    76    77    75   ar
    77    78    77    1
    78    79    77   ar
    79    80    79    1
    80    81    72   ar
    81    82    81    1
    82    83     1    1
    83    84    83   ar
    84    85    84    1
    85    86    84   ar
    86    87    86    1
    87    88    86   ar
    88    89    88   ar
    89    90    89    1
    90    91    83   ar
    91    92    91    1
    92    93    88    1
    93    94    93    1
    94    95    93    2
    95    96    95    1
    96    97    95    1
    97    98    97   ar
    98    99    98    1
    99   100    98   ar
   100   101   100    1
   101   102   100   ar
   102   103   102    1
   103   104   102   ar
   104   105   104    1
   105   106    97   ar
   106   107   106    1
   107    11    13   ar
   108    26    28   ar
   109    36    38   ar
   110    51    53   ar
   111    64    66   ar
   112    79    81   ar
   113    89    91   ar
   114   104   106   ar
@<TRIPOS>SUBSTRUCTURE
     1 RES1        1 GROUP             0 ****  ****    0  
@<TRIPOS>CRYSIN
   19.5930   13.2170   18.0580   90.0000   94.6500   90.0000    15     1
