@<TRIPOS>MOLECULE
XUNFUH01
    81    87     3     0     0
SMALL
USER_CHARGES
****
Generated from the CSD

@<TRIPOS>ATOM
     1 Fe1     -1.3574  14.8516  16.4349   Fe        1 RES1   0.0000
     2 B1      -1.4830  14.5340  13.3028   B         1 RES1   0.0000
     3 C1      -1.0976  16.4829  17.4302   C.1       1 RES1  -1.0000
     4 C2      -0.1553  14.0401  17.7288   C.1       1 RES1   0.0000
     5 C3      -2.8989  14.5208  17.6625   C.1       1 RES1   0.0000
     6 C4       1.2741  15.7872  15.3151   C.ar      1 RES1   0.0000
     7 C5       1.9023  16.0155  13.9979   C.ar      1 RES1   0.0000
     8 C6       0.9199  15.5524  13.0739   C.ar      1 RES1   0.0000
     9 C7      -3.5522  16.7200  15.3864   C.ar      1 RES1   0.0000
    10 C8      -4.1517  17.0931  14.1588   C.ar      1 RES1   0.0000
    11 C9      -3.4935  16.2898  13.2066   C.ar      1 RES1   0.0000
    12 C10     -1.7312  11.8958  13.6031   C.ar      1 RES1   0.0000
    13 C11     -1.7713  11.0201  14.7046   C.ar      1 RES1   0.0000
    14 C12     -1.7129  11.8607  15.8277   C.ar      1 RES1   0.0000
    15 N1      -0.9221  17.5147  17.9694   N.1       1 RES1   0.0000
    16 N2       0.6362  13.5525  18.4388   N.1       1 RES1   0.0000
    17 N3      -3.8567  14.3503  18.3045   N.1       1 RES1   0.0000
    18 N4      -2.6521  15.7459  15.1973   N.ar      1 RES1   0.0000
    19 N5       0.0986  15.2712  15.1459   N.ar      1 RES1   0.0000
    20 N6      -1.6405  13.1455  15.4462   N.ar      1 RES1   0.0000
    21 N7      -0.1436  15.1057  13.8071   N.ar      1 RES1   0.0000
    22 N8      -2.6028  15.4786  13.8353   N.ar      1 RES1   0.0000
    23 N9      -1.6723  13.1609  14.0726   N.ar      1 RES1   0.0000
    24 H1       1.7466  15.9759  16.2574   H         1 RES1   0.0000
    25 H2       2.8490  16.3908  13.7839   H         1 RES1   0.0000
    26 H3       0.9103  15.5567  11.9724   H         1 RES1   0.0000
    27 H4      -3.7333  17.1063  16.4050   H         1 RES1   0.0000
    28 H5      -4.8814  17.8064  13.9863   H         1 RES1   0.0000
    29 H6      -3.6338  16.2327  12.1283   H         1 RES1   0.0000
    30 H7      -1.7672  11.7071  12.5198   H         1 RES1   0.0000
    31 H8      -1.8244   9.9490  14.6698   H         1 RES1   0.0000
    32 H9      -1.6634  11.5907  16.8944   H         1 RES1   0.0000
    33 H10     -1.5300  14.3847  12.1068   H         1 RES1   0.0000
    34 P1       3.1864  11.4876  11.5411   P.3       2 RES2   1.0000
    35 C13      4.1466  10.0127  11.2375   C.ar      2 RES2   0.0000
    36 C14      3.9824   9.4289   9.9651   C.ar      2 RES2   0.0000
    37 C15      4.7872   8.2546   9.6317   C.ar      2 RES2   0.0000
    38 C16      5.6243   7.7213  10.6220   C.ar      2 RES2   0.0000
    39 C17      5.7682   8.3271  11.8961   C.ar      2 RES2   0.0000
    40 C18      4.9769   9.4837  12.2395   C.ar      2 RES2   0.0000
    41 C19      1.4802  11.2154  10.9638   C.ar      2 RES2   0.0000
    42 C20      0.8691   9.9534  11.2955   C.ar      2 RES2   0.0000
    43 C21     -0.5086   9.7515  10.8958   C.ar      2 RES2   0.0000
    44 C22     -1.1546  10.7172  10.1592   C.ar      2 RES2   0.0000
    45 C23     -0.5512  11.9397   9.8540   C.ar      2 RES2   0.0000
    46 C24      0.7508  12.2009  10.2803   C.ar      2 RES2   0.0000
    47 C25      3.1743  11.9858  13.2813   C.ar      2 RES2   0.0000
    48 C26      2.0208  11.7883  14.1041   C.ar      2 RES2   0.0000
    49 C27      2.0397  12.2426  15.4329   C.ar      2 RES2   0.0000
    50 C28      3.1491  12.8593  15.9704   C.ar      2 RES2   0.0000
    51 C29      4.3387  13.0327  15.1492   C.ar      2 RES2   0.0000
    52 C30      4.3096  12.6135  13.8287   C.ar      2 RES2   0.0000
    53 C31      3.8857  12.8791  10.6370   C.ar      2 RES2   0.0000
    54 C32      4.8094  12.6925   9.5885   C.ar      2 RES2   0.0000
    55 C33      5.3688  13.8163   8.9001   C.ar      2 RES2   0.0000
    56 C34      4.9374  15.1156   9.2966   C.ar      2 RES2   0.0000
    57 C35      4.0127  15.2978  10.3500   C.ar      2 RES2   0.0000
    58 C36      3.4845  14.1762  11.0251   C.ar      2 RES2   0.0000
    59 H11      3.3184   9.7691   9.2120   H         2 RES2   0.0000
    60 H12      4.6575   7.7981   8.6844   H         2 RES2   0.0000
    61 H13      6.1547   6.8785  10.4180   H         2 RES2   0.0000
    62 H14      6.3935   7.9627  12.6409   H         2 RES2   0.0000
    63 H15      5.0492   9.8854  13.2547   H         2 RES2   0.0000
    64 H16      1.3578   9.2357  11.8546   H         2 RES2   0.0000
    65 H17     -0.9506   8.8099  11.1297   H         2 RES2   0.0000
    66 H18     -2.1872  10.5131   9.8307   H         2 RES2   0.0000
    67 H19     -1.0914  12.7123   9.3513   H         2 RES2   0.0000
    68 H20      1.2284  13.1666  10.0447   H         2 RES2   0.0000
    69 H21      1.1297  11.3010  13.6612   H         2 RES2   0.0000
    70 H22      1.1592  12.1350  16.0765   H         2 RES2   0.0000
    71 H23      3.1758  13.2083  16.9939   H         2 RES2   0.0000
    72 H24      5.2301  13.5309  15.5955   H         2 RES2   0.0000
    73 H25      5.1894  12.7650  13.2000   H         2 RES2   0.0000
    74 H26      5.1543  11.6939   9.3148   H         2 RES2   0.0000
    75 H27      6.0413  13.6846   8.1370   H         2 RES2   0.0000
    76 H28      5.3934  15.9628   8.7757   H         2 RES2   0.0000
    77 H29      3.6812  16.3052  10.6502   H         2 RES2   0.0000
    78 H30      2.7893  14.3298  11.8546   H         2 RES2   0.0000
    79 O1      -6.5064  14.4242  19.7544   O.3       3 RES3   0.0000
    80 H31     -5.6279  14.3079  19.1953   H         3 RES3   0.0000
    81 H32     -7.2999  14.0401  19.2019   H         3 RES3   0.0000
@<TRIPOS>BOND
     1     1     3    1
     2     2    21    1
     3     3    15    3
     4     4     1    1
     5     5     1    1
     6     6     7   ar
     7     7     8   ar
     8     8    21   ar
     9     9    10   ar
    10    10    11   ar
    11    11    22   ar
    12    12    13   ar
    13    13    14   ar
    14    14    20   ar
    15    16     4    3
    16    17     5    3
    17    18     1    1
    18    19     1    1
    19    20     1    1
    20    21    19   ar
    21    22     2    1
    22    23     2    1
    23    24     6    1
    24    25     7    1
    25    26     8    1
    26    27     9    1
    27    28    10    1
    28    29    11    1
    29    30    12    1
    30    31    13    1
    31    32    14    1
    32    33     2    1
    33     6    19   ar
    34     9    18   ar
    35    12    23   ar
    36    18    22   ar
    37    20    23   ar
    38    34    35    1
    39    35    36   ar
    40    36    37   ar
    41    37    38   ar
    42    38    39   ar
    43    39    40   ar
    44    40    35   ar
    45    41    34    1
    46    42    41   ar
    47    43    42   ar
    48    44    43   ar
    49    45    44   ar
    50    46    41   ar
    51    47    34    1
    52    48    47   ar
    53    49    48   ar
    54    50    49   ar
    55    51    50   ar
    56    52    47   ar
    57    53    34    1
    58    54    53   ar
    59    55    54   ar
    60    56    55   ar
    61    57    56   ar
    62    58    53   ar
    63    59    36    1
    64    60    37    1
    65    61    38    1
    66    62    39    1
    67    63    40    1
    68    64    42    1
    69    65    43    1
    70    66    44    1
    71    67    45    1
    72    68    46    1
    73    69    48    1
    74    70    49    1
    75    71    50    1
    76    72    51    1
    77    73    52    1
    78    74    54    1
    79    75    55    1
    80    76    56    1
    81    77    57    1
    82    78    58    1
    83    45    46   ar
    84    51    52   ar
    85    57    58   ar
    86    79    80    1
    87    81    79    1
@<TRIPOS>SUBSTRUCTURE
     1 RES1        1 GROUP             0 ****  ****    0  
     2 RES2       34 GROUP             0 ****  ****    0  
     3 RES3       79 GROUP             0 ****  ****    0  
@<TRIPOS>CRYSIN
    9.5750   21.9480   16.8630   90.0000  100.3400   90.0000    14     1
