@<TRIPOS>MOLECULE
XUNFUH
    78    84     3     0     0
SMALL
USER_CHARGES
****
Generated from the CSD

@<TRIPOS>ATOM
     1 Fe1     -1.4266  14.9086  16.3806   Fe        1 RES1   0.0000
     2 N1      -1.0642  17.5430  17.8665   N.1       1 RES1   0.0000
     3 N2       0.5951  13.7043  18.3443   N.1       1 RES1   0.0000
     4 N3      -3.8432  14.3518  18.1933   N.1       1 RES1   0.0000
     5 N4      -2.6712  15.7543  15.1077   N.ar      1 RES1   0.0000
     6 N5       0.0266  15.3307  15.0945   N.ar      1 RES1   0.0000
     7 N6      -1.6482  13.1951  15.4047   N.ar      1 RES1   0.0000
     8 N7      -0.1886  15.1485  13.7706   N.ar      1 RES1   0.0000
     9 N8      -2.6091  15.4777  13.7806   N.ar      1 RES1   0.0000
    10 N9      -1.6625  13.1995  14.0610   N.ar      1 RES1   0.0000
    11 B1      -1.5154  14.5076  13.2862   B         1 RES1  -1.0000
    12 C1      -1.1931  16.5510  17.3290   C.1       1 RES1   0.0000
    13 C2      -0.1780  14.1345  17.6326   C.1       1 RES1   0.0000
    14 C3      -2.8881  14.5427  17.5662   C.1       1 RES1   0.0000
    15 C4       1.2342  15.8618  15.2139   C.ar      1 RES1   0.0000
    16 C5       1.7832  16.0440  13.9681   C.ar      1 RES1   0.0000
    17 C6       0.8634  15.6006  13.0739   C.ar      1 RES1   0.0000
    18 C7      -3.6183  16.6827  15.2554   C.ar      1 RES1   0.0000
    19 C8      -4.1478  17.0229  14.0328   C.ar      1 RES1   0.0000
    20 C9      -3.4930  16.2437  13.1253   C.ar      1 RES1   0.0000
    21 C10     -1.7423  11.9309  13.6114   C.ar      1 RES1   0.0000
    22 C11     -1.7878  11.1013  14.6897   C.ar      1 RES1   0.0000
    23 C12     -1.7312  11.9265  15.7912   C.ar      1 RES1   0.0000
    24 H1       1.7024  16.0923  16.0799   H         1 RES1   0.0000
    25 H2       2.6484  16.4412  13.7342   H         1 RES1   0.0000
    26 H3       0.9611  15.5984  12.0769   H         1 RES1   0.0000
    27 H4      -3.9228  17.0843  16.1263   H         1 RES1   0.0000
    28 H5      -4.8412  17.6967  13.8553   H         1 RES1   0.0000
    29 H6      -3.6546  16.2503  12.1217   H         1 RES1   0.0000
    30 H7      -1.7563  11.6368  12.6542   H         1 RES1   0.0000
    31 H8      -1.8326  10.1268  14.6731   H         1 RES1   0.0000
    32 H9      -1.7597  11.6083  16.7401   H         1 RES1   0.0000
    33 P1       3.1714  11.5240  11.5343   P.3       2 RES2   1.0000
    34 C13      4.1450  10.0456  11.2624   C.ar      2 RES2   0.0000
    35 C14      4.0907   9.4508  10.0115   C.ar      2 RES2   0.0000
    36 C15      4.8777   8.3468   9.7494   C.ar      2 RES2   0.0000
    37 C16      5.6771   7.8332  10.7315   C.ar      2 RES2   0.0000
    38 C17      5.7267   8.3907  11.9657   C.ar      2 RES2   0.0000
    39 C18      4.9491   9.5298  12.2444   C.ar      2 RES2   0.0000
    40 C19      1.5126  11.1957  10.9488   C.ar      2 RES2   0.0000
    41 C20      0.9020   9.9907  11.2673   C.ar      2 RES2   0.0000
    42 C21     -0.3892   9.7449  10.8659   C.ar      2 RES2   0.0000
    43 C22     -1.0785  10.7062  10.1409   C.ar      2 RES2   0.0000
    44 C23     -0.4947  11.8870   9.8540   C.ar      2 RES2   0.0000
    45 C24      0.7897  12.1592  10.2504   C.ar      2 RES2   0.0000
    46 C25      3.1322  11.9836  13.2448   C.ar      2 RES2   0.0000
    47 C26      2.0121  11.7992  14.0361   C.ar      2 RES2   0.0000
    48 C27      2.0072  12.2206  15.3383   C.ar      2 RES2   0.0000
    49 C28      3.1153  12.8198  15.8775   C.ar      2 RES2   0.0000
    50 C29      4.2394  13.0196  15.1111   C.ar      2 RES2   0.0000
    51 C30      4.2637  12.6157  13.7972   C.ar      2 RES2   0.0000
    52 C31      3.8988  12.9010  10.6386   C.ar      2 RES2   0.0000
    53 C32      4.8720  12.7364   9.6814   C.ar      2 RES2   0.0000
    54 C33      5.3718  13.8448   9.0461   C.ar      2 RES2   0.0000
    55 C34      4.9166  15.0980   9.3579   C.ar      2 RES2   0.0000
    56 C35      3.9722  15.2670  10.2886   C.ar      2 RES2   0.0000
    57 C36      3.4575  14.1784  10.9472   C.ar      2 RES2   0.0000
    58 H10      3.4951   9.8305   9.3032   H         2 RES2   0.0000
    59 H11      4.8547   7.9188   8.8420   H         2 RES2   0.0000
    60 H12      6.2585   7.0365  10.5208   H         2 RES2   0.0000
    61 H13      6.3060   7.9869  12.6741   H         2 RES2   0.0000
    62 H14      4.9627   9.9490  13.1569   H         2 RES2   0.0000
    63 H15      1.3908   9.2928  11.7999   H         2 RES2   0.0000
    64 H16     -0.8463   8.8867  11.0832   H         2 RES2   0.0000
    65 H17     -2.0020  10.4999   9.8340   H         2 RES2   0.0000
    66 H18     -1.0086  12.5806   9.3331   H         2 RES2   0.0000
    67 H19      1.2105  13.0503  10.0381   H         2 RES2   0.0000
    68 H20      1.1973  11.3603  13.6578   H         2 RES2   0.0000
    69 H21      1.2061  12.0670  15.9140   H         2 RES2   0.0000
    70 H22      3.1043  13.1117  16.8297   H         2 RES2   0.0000
    71 H23      5.0470  13.4541  15.5075   H         2 RES2   0.0000
    72 H24      5.0536  12.7913  13.2149   H         2 RES2   0.0000
    73 H25      5.2011  11.8168   9.4624   H         2 RES2   0.0000
    74 H26      6.0696  13.7241   8.3178   H         2 RES2   0.0000
    75 H27      5.3004  15.8969   8.8868   H         2 RES2   0.0000
    76 H28      3.6245  16.1910  10.5042   H         2 RES2   0.0000
    77 H29      2.7587  14.2794  11.6705   H         2 RES2   0.0000
    78 O1      -6.4646  14.2947  19.6299   O.3       3 RES3   0.0000
@<TRIPOS>BOND
     1     1     5    1
     2     2    12    3
     3     3    13    3
     4     4    14    3
     5     5     9   ar
     6     6     1    1
     7     7     1    1
     8     8     6   ar
     9     9    11    1
    10    10     7   ar
    11    11     8    1
    12    12     1    1
    13    13     1    1
    14    14     1    1
    15    15     6   ar
    16    16    15   ar
    17    17     8   ar
    18    18     5   ar
    19    19    18   ar
    20    20     9   ar
    21    21    10   ar
    22    22    21   ar
    23    23     7   ar
    24    24    15    1
    25    25    16    1
    26    26    17    1
    27    27    18    1
    28    28    19    1
    29    29    20    1
    30    30    21    1
    31    31    22    1
    32    32    23    1
    33    10    11    1
    34    16    17   ar
    35    19    20   ar
    36    22    23   ar
    37    33    34    1
    38    34    35   ar
    39    35    36   ar
    40    36    37   ar
    41    37    38   ar
    42    38    39   ar
    43    39    34   ar
    44    40    33    1
    45    41    40   ar
    46    42    41   ar
    47    43    42   ar
    48    44    43   ar
    49    45    40   ar
    50    46    33    1
    51    47    46   ar
    52    48    47   ar
    53    49    48   ar
    54    50    49   ar
    55    51    46   ar
    56    52    33    1
    57    53    52   ar
    58    54    53   ar
    59    55    54   ar
    60    56    55   ar
    61    57    52   ar
    62    58    35    1
    63    59    36    1
    64    60    37    1
    65    61    38    1
    66    62    39    1
    67    63    41    1
    68    64    42    1
    69    65    43    1
    70    66    44    1
    71    67    45    1
    72    68    47    1
    73    69    48    1
    74    70    49    1
    75    71    50    1
    76    72    51    1
    77    73    53    1
    78    74    54    1
    79    75    55    1
    80    76    56    1
    81    77    57    1
    82    44    45   ar
    83    50    51   ar
    84    56    57   ar
@<TRIPOS>SUBSTRUCTURE
     1 RES1        1 GROUP             0 ****  ****    0  
     2 RES2       33 GROUP             0 ****  ****    0  
     3 RES3       78 GROUP             0 ****  ****    0  
@<TRIPOS>CRYSIN
    9.5750   21.9480   16.8630   90.0000  100.3400   90.0000    14     1
