@<TRIPOS>MOLECULE
XUPFOD
   120   134     3     0     0
SMALL
NO_CHARGES
****
Generated from the CSD

@<TRIPOS>ATOM
     1 Sr1      5.0093  11.4496   7.6623   Sr        1 RES1   0.0000
     2 Sr2      8.9963   3.0708   2.0478   Sr        1 RES1   0.0000
     3 Fe1      6.9102   7.2855   4.8610   Fe        1 RES1   0.0000
     4 O1       6.7379   9.9817   8.7320   O.3       1 RES1   0.0000
     5 H1       7.1652   9.2157   8.4619   H         1 RES1   0.0000
     6 H2       6.9380   9.8557   9.6196   H         1 RES1   0.0000
     7 O2       3.8295  13.3206   6.4611   O.3       1 RES1   0.0000
     8 H3       4.3831  14.2783   6.8304   H         1 RES1   0.0000
     9 H4       3.0723  13.6539   6.0946   H         1 RES1   0.0000
    10 O3       7.4498   4.7043   0.8683   O.3       1 RES1   0.0000
    11 H5       6.9079   5.3960   1.2983   H         1 RES1   0.0000
    12 H6       7.2270   4.7318  -0.0250   H         1 RES1   0.0000
    13 O4      11.8534   0.4325   3.9617   O.2       1 RES1   0.0000
    14 O5      10.8589   1.1364   2.1626   O.3       1 RES1   0.0000
    15 O6      10.1951   1.8372   4.0805   O.3       1 RES1   0.0000
    16 N1       4.5757   5.3850   5.6527   N.1       1 RES1   0.0000
    17 N2       5.2724   9.7818   5.6679   N.1       1 RES1   0.0000
    18 N3       7.7937   7.3383   7.8218   N.1       1 RES1   0.0000
    19 N4       9.2475   9.2194   4.2360   N.1       1 RES1   0.0000
    20 N5       8.5857   4.8243   4.0060   N.1       1 RES1   0.0000
    21 N6       6.0617   7.2195   1.8896   N.1       1 RES1   0.0000
    22 N7       2.5043  10.6176   7.5215   N.ar      1 RES1   0.0000
    23 N8       3.7042  10.8742   9.9715   N.ar      1 RES1   0.0000
    24 N9       5.6988  13.6831   8.9273   N.ar      1 RES1   0.0000
    25 N10      7.2705  12.6069   6.9421   N.ar      1 RES1   0.0000
    26 N11     11.3944   4.2381   2.0753   N.ar      1 RES1   0.0000
    27 N12     10.2506   3.4735  -0.2997   N.ar      1 RES1   0.0000
    28 N13      8.1493   0.7609   0.9581   N.ar      1 RES1   0.0000
    29 N14      6.5583   2.1630   2.6996   N.ar      1 RES1   0.0000
    30 N15     10.9777   1.1296   3.4048   N.pl3     1 RES1   0.0000
    31 C1       5.4400   6.0917   5.3408   C.1       1 RES1   0.0000
    32 C2       5.8519   8.8495   5.3220   C.1       1 RES1   0.0000
    33 C3       7.4844   7.2824   6.7173   C.1       1 RES1   0.0000
    34 C4       8.3784   8.4871   4.4502   C.1       1 RES1   0.0000
    35 C5       7.9911   5.7444   4.3820   C.1       1 RES1   0.0000
    36 C6       6.3524   7.2779   3.0045   C.1       1 RES1   0.0000
    37 C7       1.9118  10.5375   6.3296   C.ar      1 RES1   0.0000
    38 H7       2.4208  10.7561   5.5572   H         1 RES1   0.0000
    39 C8       0.5837  10.1492   6.1562   C.ar      1 RES1   0.0000
    40 H8       0.1967  10.1245   5.2894   H         1 RES1   0.0000
    41 C9      -0.1363   9.8124   7.2368   C.ar      1 RES1   0.0000
    42 H9      -1.0373   9.5293   7.1309   H         1 RES1   0.0000
    43 C10      0.4247   9.8735   8.5197   C.ar      1 RES1   0.0000
    44 C11     -0.2755   9.5515   9.7140   C.ar      1 RES1   0.0000
    45 H10     -1.1816   9.2694   9.6562   H         1 RES1   0.0000
    46 C12      0.3038   9.6348  10.9140   C.ar      1 RES1   0.0000
    47 H11     -0.1998   9.4082  11.6883   H         1 RES1   0.0000
    48 C13      1.6701  10.0583  11.0662   C.ar      1 RES1   0.0000
    49 C14      2.3313  10.1389  12.2893   C.ar      1 RES1   0.0000
    50 H12      1.8697   9.9082  13.0868   H         1 RES1   0.0000
    51 C15      3.6267  10.5434  12.3606   C.ar      1 RES1   0.0000
    52 H13      4.0829  10.5674  13.1946   H         1 RES1   0.0000
    53 C16      4.2803  10.9275  11.1642   C.ar      1 RES1   0.0000
    54 H14      5.1754  11.2394  11.2183   H         1 RES1   0.0000
    55 C17      2.4145  10.4260   9.9072   C.ar      1 RES1   0.0000
    56 C18      1.7790  10.3004   8.6218   C.ar      1 RES1   0.0000
    57 C19      4.9417  14.2184   9.8966   C.ar      1 RES1   0.0000
    58 H15      4.1874  13.7280  10.1994   H         1 RES1   0.0000
    59 C20      5.2027  15.4483  10.4806   C.ar      1 RES1   0.0000
    60 H16      4.6348  15.7891  11.1625   H         1 RES1   0.0000
    61 C21      6.2815  16.1580  10.0626   C.ar      1 RES1   0.0000
    62 H17      6.4859  16.9932  10.4671   H         1 RES1   0.0000
    63 C22      7.0964  15.6605   9.0332   C.ar      1 RES1   0.0000
    64 C23      8.2379  16.3780   8.5235   C.ar      1 RES1   0.0000
    65 H18      8.4550  17.2304   8.8837   H         1 RES1   0.0000
    66 C24      8.9950  15.8578   7.5508   C.ar      1 RES1   0.0000
    67 H19      9.7329  16.3558   7.2195   H         1 RES1   0.0000
    68 C25      8.7167  14.5612   6.9947   C.ar      1 RES1   0.0000
    69 C26      9.5302  13.9613   6.0175   C.ar      1 RES1   0.0000
    70 H20     10.2937  14.4188   5.6862   H         1 RES1   0.0000
    71 C27      9.2240  12.7266   5.5471   C.ar      1 RES1   0.0000
    72 H21      9.7797  12.3054   4.9022   H         1 RES1   0.0000
    73 C28      8.0741  12.0759   6.0243   C.ar      1 RES1   0.0000
    74 H22      7.8617  11.2193   5.6766   H         1 RES1   0.0000
    75 C29      7.6001  13.8293   7.4418   C.ar      1 RES1   0.0000
    76 C30      6.7684  14.3961   8.4977   C.ar      1 RES1   0.0000
    77 C31     11.9628   4.5991   3.2168   C.ar      1 RES1   0.0000
    78 H23     11.4684   4.4779   4.0200   H         1 RES1   0.0000
    79 C32     13.2391   5.1432   3.3112   C.ar      1 RES1   0.0000
    80 H24     13.6047   5.3744   4.1587   H         1 RES1   0.0000
    81 C33     13.9539   5.3421   2.1747   C.ar      1 RES1   0.0000
    82 H25     14.8221   5.7245   2.2209   H         1 RES1   0.0000
    83 C34     13.4031   4.9769   0.9227   C.ar      1 RES1   0.0000
    84 C35     14.0945   5.1474  -0.3178   C.ar      1 RES1   0.0000
    85 H26     14.9554   5.5491  -0.3217   H         1 RES1   0.0000
    86 C36     13.5478   4.7504  -1.4755   C.ar      1 RES1   0.0000
    87 H27     14.0382   4.8547  -2.2826   H         1 RES1   0.0000
    88 C37     12.2389   4.1729  -1.5217   C.ar      1 RES1   0.0000
    89 C38     11.6286   3.7553  -2.7179   C.ar      1 RES1   0.0000
    90 H28     12.0959   3.8324  -3.5404   H         1 RES1   0.0000
    91 C39     10.3697   3.2442  -2.6948   C.ar      1 RES1   0.0000
    92 H29      9.9453   2.9688  -3.4980   H         1 RES1   0.0000
    93 C40      9.7115   3.1331  -1.4622   C.ar      1 RES1   0.0000
    94 H30      8.8246   2.7911  -1.4601   H         1 RES1   0.0000
    95 C41     11.5079   4.0021  -0.3219   C.ar      1 RES1   0.0000
    96 C42     12.1097   4.4165   0.9304   C.ar      1 RES1   0.0000
    97 C43      8.8839   0.0755   0.0813   C.ar      1 RES1   0.0000
    98 H31      9.7003   0.4599  -0.2138   H         1 RES1   0.0000
    99 C44      8.5243  -1.1712  -0.4276   C.ar      1 RES1   0.0000
   100 H32      9.0768  -1.6098  -1.0633   H         1 RES1   0.0000
   101 C45      7.3745  -1.7496   0.0000   C.ar      1 RES1   0.0000
   102 H33      7.1060  -2.5912  -0.3467   H         1 RES1   0.0000
   103 C46      6.5823  -1.0976   0.9596   C.ar      1 RES1   0.0000
   104 C47      5.3710  -1.6704   1.4832   C.ar      1 RES1   0.0000
   105 H34      5.1023  -2.5367   1.2000   H         1 RES1   0.0000
   106 C48      4.6163  -1.0007   2.3616   C.ar      1 RES1   0.0000
   107 H35      3.8334  -1.4092   2.7121   H         1 RES1   0.0000
   108 C49      4.9686   0.3175   2.7828   C.ar      1 RES1   0.0000
   109 C50      4.1575   1.0808   3.6371   C.ar      1 RES1   0.0000
   110 H36      3.3450   0.7169   3.9699   H         1 RES1   0.0000
   111 C51      4.5320   2.3417   3.9911   C.ar      1 RES1   0.0000
   112 H37      3.9819   2.8705   4.5555   H         1 RES1   0.0000
   113 C52      5.7457   2.8436   3.5032   C.ar      1 RES1   0.0000
   114 H38      6.0044   3.7210   3.7619   H         1 RES1   0.0000
   115 C53      6.1642   0.9147   2.3223   C.ar      1 RES1   0.0000
   116 C54      7.0032   0.1850   1.3859   C.ar      1 RES1   0.0000
   117 O7      13.5624   3.6881   6.7641   O.3       2 RES2   0.0000
   118 H39     14.1504   4.2973   6.3912   H         2 RES2   0.0000
   119 H40     12.6455   4.3664   6.9633   H         2 RES2   0.0000
   120 O8      10.5635   3.7290   6.1312   O.3       3 RES3   0.0000
@<TRIPOS>BOND
     1     1     4    1
     2     2    10    1
     3     3    31    1
     4     4     5    1
     5     6     4    1
     6     7     1    1
     7     8     7    1
     8     9     7    1
     9    10    11    1
    10    12    10    1
    11    13    30    2
    12    14     2    1
    13    15     2    1
    14    16    31    3
    15    17     1    1
    16    18    33    3
    17    19    34    3
    18    20     2    1
    19    21    36    3
    20    22     1    1
    21    23     1    1
    22    24     1    1
    23    25     1    1
    24    26     2    1
    25    27     2    1
    26    28     2    1
    27    29     2    1
    28    30    14    1
    29    32     3    1
    30    33     3    1
    31    34     3    1
    32    35     3    1
    33    36     3    1
    34    37    22   ar
    35    38    37    1
    36    39    37   ar
    37    40    39    1
    38    41    39   ar
    39    42    41    1
    40    43    41   ar
    41    44    43   ar
    42    45    44    1
    43    46    44   ar
    44    47    46    1
    45    48    46   ar
    46    49    48   ar
    47    50    49    1
    48    51    49   ar
    49    52    51    1
    50    53    23   ar
    51    54    53    1
    52    55    23   ar
    53    56    22   ar
    54    57    24   ar
    55    58    57    1
    56    59    57   ar
    57    60    59    1
    58    61    59   ar
    59    62    61    1
    60    63    61   ar
    61    64    63   ar
    62    65    64    1
    63    66    64   ar
    64    67    66    1
    65    68    66   ar
    66    69    68   ar
    67    70    69    1
    68    71    69   ar
    69    72    71    1
    70    73    25   ar
    71    74    73    1
    72    75    25   ar
    73    76    24   ar
    74    77    26   ar
    75    78    77    1
    76    79    77   ar
    77    80    79    1
    78    81    79   ar
    79    82    81    1
    80    83    81   ar
    81    84    83   ar
    82    85    84    1
    83    86    84   ar
    84    87    86    1
    85    88    86   ar
    86    89    88   ar
    87    90    89    1
    88    91    89   ar
    89    92    91    1
    90    93    27   ar
    91    94    93    1
    92    95    27   ar
    93    96    26   ar
    94    97    28   ar
    95    98    97    1
    96    99    97   ar
    97   100    99    1
    98   101    99   ar
    99   102   101    1
   100   103   101   ar
   101   104   103   ar
   102   105   104    1
   103   106   104   ar
   104   107   106    1
   105   108   106   ar
   106   109   108   ar
   107   110   109    1
   108   111   109   ar
   109   112   111    1
   110   113    29   ar
   111   114   113    1
   112   115    29   ar
   113   116    28   ar
   114    15    30    1
   115    17    32    3
   116    20    35    3
   117    43    56   ar
   118    48    55   ar
   119    51    53   ar
   120    55    56   ar
   121    63    76   ar
   122    68    75   ar
   123    71    73   ar
   124    75    76   ar
   125    83    96   ar
   126    88    95   ar
   127    91    93   ar
   128    95    96   ar
   129   103   116   ar
   130   108   115   ar
   131   111   113   ar
   132   115   116   ar
   133   117   118    1
   134   119   117    1
@<TRIPOS>SUBSTRUCTURE
     1 RES1        1 GROUP             0 ****  ****    0  
     2 RES2      117 GROUP             0 ****  ****    0  
     3 RES3      120 GROUP             0 ****  ****    0  
@<TRIPOS>CRYSIN
   11.0408   12.4330   19.9760   75.2215   83.6380   80.9400     2     1
