@<TRIPOS>MOLECULE
XUPJEY
    76    81     1     0     0
SMALL
NO_CHARGES
****
Generated from the CSD

@<TRIPOS>ATOM
     1 C1      11.7008   9.9605   0.2339   C.ar      1 RES1   0.0000
     2 C2      12.5773  11.0235   0.4598   C.ar      1 RES1   0.0000
     3 H1      12.2875  11.7699   0.9329   H         1 RES1   0.0000
     4 C3      13.8753  10.9723  -0.0160   C.ar      1 RES1   0.0000
     5 H2      14.4456  11.6946   0.1216   H         1 RES1   0.0000
     6 C4      14.3307   9.8620  -0.6910   C.ar      1 RES1   0.0000
     7 H3      15.2090   9.8284  -0.9944   H         1 RES1   0.0000
     8 C5      13.4885   8.8094  -0.9142   C.ar      1 RES1   0.0000
     9 H4      13.7964   8.0541  -1.3619   H         1 RES1   0.0000
    10 C6      12.1771   8.8620  -0.4745   C.ar      1 RES1   0.0000
    11 H5      11.6042   8.1518  -0.6562   H         1 RES1   0.0000
    12 C7       9.0739   9.1063  -0.3194   C.ar      1 RES1   0.0000
    13 C8       8.9725   9.6204  -1.6052   C.ar      1 RES1   0.0000
    14 H6       9.3912  10.4237  -1.8110   H         1 RES1   0.0000
    15 C9       8.2607   8.9568  -2.5782   C.ar      1 RES1   0.0000
    16 H7       8.1882   9.3226  -3.4309   H         1 RES1   0.0000
    17 C10      7.6572   7.7547  -2.2921   C.ar      1 RES1   0.0000
    18 H8       7.1782   7.3070  -2.9510   H         1 RES1   0.0000
    19 C11      7.7626   7.2195  -1.0385   C.ar      1 RES1   0.0000
    20 H9       7.3678   6.3993  -0.8487   H         1 RES1   0.0000
    21 C12      8.4606   7.9014  -0.0481   C.ar      1 RES1   0.0000
    22 H10      8.5142   7.5411   0.8073   H         1 RES1   0.0000
    23 C13     11.6447  11.1652   5.6602   C.ar      1 RES1   0.0000
    24 C14     12.0916  10.5841   6.8270   C.ar      1 RES1   0.0000
    25 H11     11.5065  10.0665   7.3308   H         1 RES1   0.0000
    26 C15     13.3938  10.7565   7.2654   C.ar      1 RES1   0.0000
    27 H12     13.6840  10.3601   8.0552   H         1 RES1   0.0000
    28 C16     14.2574  11.5300   6.5062   C.ar      1 RES1   0.0000
    29 H13     15.1421  11.6279   6.7775   H         1 RES1   0.0000
    30 C17     13.8340  12.1476   5.3715   C.ar      1 RES1   0.0000
    31 H14     14.4148  12.6933   4.8930   H         1 RES1   0.0000
    32 C18     12.5298  11.9594   4.9291   C.ar      1 RES1   0.0000
    33 H15     12.2454  12.3650   4.1419   H         1 RES1   0.0000
    34 C19      9.0144  10.4483   6.4608   C.ar      1 RES1   0.0000
    35 C20      8.7796  11.4030   7.4351   C.ar      1 RES1   0.0000
    36 H16      9.1347  12.2583   7.3389   H         1 RES1   0.0000
    37 C21      8.0205  11.0977   8.5538   C.ar      1 RES1   0.0000
    38 H17      7.8561  11.7491   9.1966   H         1 RES1   0.0000
    39 C22      7.5142   9.8445   8.7155   C.ar      1 RES1   0.0000
    40 H18      7.0082   9.6397   9.4693   H         1 RES1   0.0000
    41 C23      7.7478   8.8920   7.7746   C.ar      1 RES1   0.0000
    42 H19      7.4109   8.0328   7.8949   H         1 RES1   0.0000
    43 C24      8.4852   9.1889   6.6358   C.ar      1 RES1   0.0000
    44 H20      8.6210   8.5356   5.9876   H         1 RES1   0.0000
    45 C25     13.0585   8.6587   3.2625   C.3       1 RES1   0.0000
    46 H21     13.5873   7.8866   3.4736   H         1 RES1   0.0000
    47 H22     13.2867   9.3757   3.8599   H         1 RES1   0.0000
    48 H23     13.2322   8.9287   2.3590   H         1 RES1   0.0000
    49 C26     11.3277   7.4295   5.0788   C.3       1 RES1   0.0000
    50 H24     12.0587   6.8082   5.1055   H         1 RES1   0.0000
    51 H25     10.5025   6.9601   5.2178   H         1 RES1   0.0000
    52 H26     11.4424   8.0882   5.7671   H         1 RES1   0.0000
    53 C27     11.1361   6.7702   2.4017   C.3       1 RES1   0.0000
    54 H27     11.2905   7.0068   1.4849   H         1 RES1   0.0000
    55 H28     10.2525   6.4044   2.4940   H         1 RES1   0.0000
    56 H29     11.7826   6.1155   2.6757   H         1 RES1   0.0000
    57 C28      7.0703  11.1551   2.2694   C.3       1 RES1   0.0000
    58 H30      6.5972  11.9527   2.0208   H         1 RES1   0.0000
    59 H31      6.6129  10.7241   2.9952   H         1 RES1   0.0000
    60 H32      7.1104  10.5588   1.5170   H         1 RES1   0.0000
    61 C29      8.4730  11.5158   2.7011   C.3       1 RES1   0.0000
    62 C30      9.1193  12.3478   1.6546   C.3       1 RES1   0.0000
    63 H33      8.4780  12.9953   1.3232   H         1 RES1   0.0000
    64 H34      9.8575  12.8375   2.0502   H         1 RES1   0.0000
    65 C31      8.2975  12.3845   3.9454   C.3       1 RES1   0.0000
    66 H35      8.0604  13.2862   3.6795   H         1 RES1   0.0000
    67 H36      7.5728  12.0314   4.4854   H         1 RES1   0.0000
    68 C32      8.4488   8.7177   3.2772   C.1       1 RES1   0.0000
    69 Fe1      9.7762   9.8402   3.0851   Fe        1 RES1   0.0000
    70 H37     10.9030  10.8783   2.8067   H         1 RES1   0.0000
    71 O1       9.6179  11.5576   0.5371   O.3       1 RES1   0.0000
    72 O2       9.5172  12.4200   4.7388   O.3       1 RES1   0.0000
    73 O3       7.5856   7.9407   3.3908   O.2       1 RES1   0.0000
    74 P1      10.0259  10.0335   0.9563   P.3       1 RES1   0.0000
    75 P2       9.9843  10.8708   4.9600   P.3       1 RES1   0.0000
    76 P3      11.2915   8.2545   3.4481   P.3       1 RES1   0.0000
@<TRIPOS>BOND
     1     1     2   ar
     2     2     3    1
     3     4     2   ar
     4     5     4    1
     5     6     4   ar
     6     7     6    1
     7     8     6   ar
     8     9     8    1
     9    10     1   ar
    10    11    10    1
    11    12    13   ar
    12    13    14    1
    13    15    13   ar
    14    16    15    1
    15    17    15   ar
    16    18    17    1
    17    19    17   ar
    18    20    19    1
    19    21    12   ar
    20    22    21    1
    21    23    24   ar
    22    24    25    1
    23    26    24   ar
    24    27    26    1
    25    28    26   ar
    26    29    28    1
    27    30    28   ar
    28    31    30    1
    29    32    23   ar
    30    33    32    1
    31    34    35   ar
    32    35    36    1
    33    37    35   ar
    34    38    37    1
    35    39    37   ar
    36    40    39    1
    37    41    39   ar
    38    42    41    1
    39    43    34   ar
    40    44    43    1
    41    45    46    1
    42    47    45    1
    43    48    45    1
    44    49    50    1
    45    51    49    1
    46    52    49    1
    47    53    54    1
    48    55    53    1
    49    56    53    1
    50    57    58    1
    51    59    57    1
    52    60    57    1
    53    61    57    1
    54    62    61    1
    55    63    62    1
    56    64    62    1
    57    65    61    1
    58    66    65    1
    59    67    65    1
    60    68    69    1
    61    69    61    1
    62    70    69    1
    63    71    62    1
    64    72    65    1
    65    73    68    3
    66    74     1    1
    67    75    23    1
    68    76    45    1
    69     8    10   ar
    70    12    74    1
    71    19    21   ar
    72    30    32   ar
    73    34    75    1
    74    41    43   ar
    75    49    76    1
    76    53    76    1
    77    69    74    1
    78    69    75    1
    79    69    76    1
    80    71    74    1
    81    72    75    1
@<TRIPOS>SUBSTRUCTURE
     1 RES1        1 GROUP             0 ****  ****    0  
@<TRIPOS>CRYSIN
    9.4228   13.1829   13.6974   81.6300   78.7680   75.4550     2     1
