@<TRIPOS>MOLECULE
XUPJOI
    87    92     1     0     0
SMALL
NO_CHARGES
****
Generated from the CSD

@<TRIPOS>ATOM
     1 C1       3.5570   1.0740   7.6359   C.ar      1 RES1   0.0000
     2 H1       3.1546   1.8975   7.4786   H         1 RES1   0.0000
     3 C2       4.1814   0.8392   8.8526   C.ar      1 RES1   0.0000
     4 H2       4.1759   1.4945   9.5135   H         1 RES1   0.0000
     5 C3       4.8055  -0.3574   9.0808   C.ar      1 RES1   0.0000
     6 H3       5.2444  -0.5046   9.8879   H         1 RES1   0.0000
     7 C4       4.7871  -1.3316   8.1295   C.ar      1 RES1   0.0000
     8 H4       5.2085  -2.1445   8.2902   H         1 RES1   0.0000
     9 C5       4.1407  -1.1148   6.9235   C.ar      1 RES1   0.0000
    10 H5       4.1201  -1.7924   6.2868   H         1 RES1   0.0000
    11 C6       3.5234   0.0992   6.6512   C.ar      1 RES1   0.0000
    12 C7       0.4322  -0.0505   6.5757   C.ar      1 RES1   0.0000
    13 H6       0.9391   0.2067   7.3120   H         1 RES1   0.0000
    14 C8      -0.9031  -0.3609   6.7396   C.ar      1 RES1   0.0000
    15 H7      -1.2898  -0.2908   7.5806   H         1 RES1   0.0000
    16 C9      -1.6627  -0.7709   5.6830   C.ar      1 RES1   0.0000
    17 H8      -2.5590  -0.9847   5.8045   H         1 RES1   0.0000
    18 C10     -1.0865  -0.8620   4.4382   C.ar      1 RES1   0.0000
    19 H9      -1.5977  -1.1476   3.7168   H         1 RES1   0.0000
    20 C11      0.2438  -0.5319   4.2482   C.ar      1 RES1   0.0000
    21 H10      0.6169  -0.5869   3.3972   H         1 RES1   0.0000
    22 C12      1.0249  -0.1195   5.3190   C.ar      1 RES1   0.0000
    23 C13      0.3022   1.7941   0.8188   C.ar      1 RES1   0.0000
    24 H11      0.5960   0.9496   1.0743   H         1 RES1   0.0000
    25 C14     -1.0010   1.9518   0.3744   C.ar      1 RES1   0.0000
    26 H12     -1.5740   1.2212   0.3372   H         1 RES1   0.0000
    27 C15     -1.4385   3.1853  -0.0098   C.ar      1 RES1   0.0000
    28 H13     -2.3144   3.2956  -0.3019   H         1 RES1   0.0000
    29 C16     -0.5869   4.2715   0.0333   C.ar      1 RES1   0.0000
    30 H14     -0.8881   5.1108  -0.2333   H         1 RES1   0.0000
    31 C17      0.7200   4.1083   0.4742   C.ar      1 RES1   0.0000
    32 H15      1.2934   4.8410   0.4881   H         1 RES1   0.0000
    33 C18      1.1804   2.8746   0.8929   C.ar      1 RES1   0.0000
    34 C19      3.9574   5.0882   0.9280   C.ar      1 RES1   0.0000
    35 H16      3.6057   5.3718   1.7408   H         1 RES1   0.0000
    36 C20      4.6353   5.9963   0.1288   C.ar      1 RES1   0.0000
    37 H17      4.7338   6.8769   0.4117   H         1 RES1   0.0000
    38 C21      5.1585   5.6066  -1.0680   C.ar      1 RES1   0.0000
    39 H18      5.6075   6.2198  -1.6055   H         1 RES1   0.0000
    40 C22      5.0163   4.3013  -1.4732   C.ar      1 RES1   0.0000
    41 H19      5.3829   4.0280  -2.2818   H         1 RES1   0.0000
    42 C23      4.3335   3.3966  -0.6871   C.ar      1 RES1   0.0000
    43 H20      4.2327   2.5212  -0.9821   H         1 RES1   0.0000
    44 C24      3.7931   3.7713   0.5426   C.ar      1 RES1   0.0000
    45 C25      3.5629   0.0934   1.4775   C.3       1 RES1   0.0000
    46 H21      4.0970  -0.5134   0.9429   H         1 RES1   0.0000
    47 H22      2.7704  -0.3837   1.7702   H         1 RES1   0.0000
    48 C26      4.3629   0.5319   2.6888   C.3       1 RES1   0.0000
    49 C27      4.5001  -0.6868   3.5668   C.3       1 RES1   0.0000
    50 H23      4.7476  -1.4507   3.0228   H         1 RES1   0.0000
    51 H24      5.2070  -0.5396   4.2147   H         1 RES1   0.0000
    52 C28      4.6276   4.3679   5.9025   C.3       1 RES1   0.0000
    53 H25      5.4570   4.8217   6.0672   H         1 RES1   0.0000
    54 H26      4.3383   3.9264   6.7043   H         1 RES1   0.0000
    55 H27      3.9626   5.0057   5.6320   H         1 RES1   0.0000
    56 C29      6.1421   2.1321   5.4479   C.3       1 RES1   0.0000
    57 H28      6.5320   1.4963   4.8440   H         1 RES1   0.0000
    58 H29      5.7332   1.6662   6.1809   H         1 RES1   0.0000
    59 H30      6.8256   2.7175   5.7810   H         1 RES1   0.0000
    60 C30      5.9420   4.1507   3.4953   C.3       1 RES1   0.0000
    61 H31      6.6891   4.4695   4.0069   H         1 RES1   0.0000
    62 H32      5.4403   4.8970   3.1600   H         1 RES1   0.0000
    63 H33      6.2621   3.6233   2.7582   H         1 RES1   0.0000
    64 C31     -0.2070   3.0174   4.0385   C.3       1 RES1   0.0000
    65 H34     -0.7817   3.6969   4.3970   H         1 RES1   0.0000
    66 H35     -0.4385   2.1691   4.4225   H         1 RES1   0.0000
    67 H36     -0.3148   2.9785   3.0856   H         1 RES1   0.0000
    68 C32      1.2836   3.6758   6.2444   C.3       1 RES1   0.0000
    69 H37      2.0995   3.9930   6.6377   H         1 RES1   0.0000
    70 H38      1.0313   2.8471   6.6553   H         1 RES1   0.0000
    71 H39      0.5890   4.3259   6.3809   H         1 RES1   0.0000
    72 C33      1.5489   5.1634   3.9063   C.3       1 RES1   0.0000
    73 H40      1.3698   5.2124   2.9640   H         1 RES1   0.0000
    74 H41      2.4112   5.5453   4.0873   H         1 RES1   0.0000
    75 H42      0.8750   5.6504   4.3872   H         1 RES1   0.0000
    76 C34      5.7572   0.9195   2.1811   C.3       1 RES1   0.0000
    77 H43      6.1795   0.1524   1.7898   H         1 RES1   0.0000
    78 H44      6.2882   1.2370   2.9150   H         1 RES1   0.0000
    79 H45      5.6767   1.6119   1.5212   H         1 RES1   0.0000
    80 Fe1      3.1046   2.0374   3.6590   Fe        1 RES1   0.0000
    81 H46      1.9827   1.2002   3.0836   H         1 RES1   0.0000
    82 O1       3.1745   1.2147   0.6783   O.3       1 RES1   0.0000
    83 O2       3.2647  -0.9705   4.2590   O.3       1 RES1   0.0000
    84 P1       2.7549   0.4033   4.9939   P.3       1 RES1   0.0000
    85 P2       1.5344   3.4151   4.4399   P.3       1 RES1   0.0000
    86 P3       2.8610   2.5570   1.5700   P.3       1 RES1   0.0000
    87 P4       4.8665   3.1196   4.5611   P.3       1 RES1   0.0000
@<TRIPOS>BOND
     1     1     2    1
     2     3     1   ar
     3     4     3    1
     4     5     3   ar
     5     6     5    1
     6     7     5   ar
     7     8     7    1
     8     9     7   ar
     9    10     9    1
    10    11     1   ar
    11    12    13    1
    12    14    12   ar
    13    15    14    1
    14    16    14   ar
    15    17    16    1
    16    18    16   ar
    17    19    18    1
    18    20    18   ar
    19    21    20    1
    20    22    12   ar
    21    23    24    1
    22    25    23   ar
    23    26    25    1
    24    27    25   ar
    25    28    27    1
    26    29    27   ar
    27    30    29    1
    28    31    29   ar
    29    32    31    1
    30    33    23   ar
    31    34    35    1
    32    36    34   ar
    33    37    36    1
    34    38    36   ar
    35    39    38    1
    36    40    38   ar
    37    41    40    1
    38    42    40   ar
    39    43    42    1
    40    44    34   ar
    41    45    46    1
    42    47    45    1
    43    48    45    1
    44    49    48    1
    45    50    49    1
    46    51    49    1
    47    52    53    1
    48    54    52    1
    49    55    52    1
    50    56    57    1
    51    58    56    1
    52    59    56    1
    53    60    61    1
    54    62    60    1
    55    63    60    1
    56    64    65    1
    57    66    64    1
    58    67    64    1
    59    68    69    1
    60    70    68    1
    61    71    68    1
    62    72    73    1
    63    74    72    1
    64    75    72    1
    65    76    48    1
    66    77    76    1
    67    78    76    1
    68    79    76    1
    69    80    48    1
    70    81    80    1
    71    82    45    1
    72    83    49    1
    73    84    11    1
    74    85    64    1
    75    86    33    1
    76    87    52    1
    77     9    11   ar
    78    20    22   ar
    79    22    84    1
    80    31    33   ar
    81    42    44   ar
    82    44    86    1
    83    56    87    1
    84    60    87    1
    85    68    85    1
    86    72    85    1
    87    80    84    1
    88    80    85    1
    89    80    86    1
    90    80    87    1
    91    82    86    1
    92    83    84    1
@<TRIPOS>SUBSTRUCTURE
     1 RES1        1 GROUP             0 ****  ****    0  
@<TRIPOS>CRYSIN
    9.8543   17.5207   20.0850   90.0000  102.5740   90.0000   231     1
