@<TRIPOS>MOLECULE
XURWOX
    90    93     4     0     0
SMALL
USER_CHARGES
****
Generated from the CSD

@<TRIPOS>ATOM
     1 F1       5.2171   5.0948  12.5977   F         1 RES1   0.0000
     2 Sb1      4.0504   4.6500  11.1194   Sb        1 RES1  -1.0000
     3 F2       3.3153   4.1839   9.6663   F         1 RES1   0.0000
     4 F3       4.6143   2.9721  11.5659   F         1 RES1   0.0000
     5 F4       3.7553   6.2664  10.9704   F         1 RES1   0.0000
     6 F5       5.5787   4.9113  10.0981   F         1 RES1   0.0000
     7 F6       2.7457   4.3943  12.1881   F         1 RES1   0.0000
     8 Sb2      0.0000   7.4284   5.5350   Sb        2 RES2  -1.0000
     9 F7       1.4467   7.4190   4.3549   F         2 RES2   0.0000
    10 F8      -1.0940   7.4100   4.0848   F         2 RES2   0.0000
    11 F9       0.0000   5.7159   5.5350   F         2 RES2   0.0000
    12 F10      0.0000   9.2653   5.5350   F         2 RES2   0.0000
    13 F7C     -1.4467   7.4190   6.7151   F         2 RES2   0.0000
    14 F8C      1.0940   7.4100   6.9852   F         2 RES2   0.0000
    15 Sb3      7.5348   0.0000   9.1587   Sb        3 RES3  -1.0000
    16 F11      8.6439   1.4581   9.1970   F         3 RES3   0.0000
    17 F12      7.5348   0.0000  10.9549   F         3 RES3   0.0000
    18 F13      6.0519   1.1112   9.1195   F         3 RES3   0.0000
    19 F14      7.5348   0.0000   7.3239   F         3 RES3   0.0000
    20 F11A     6.4256  -1.4581   9.1970   F         3 RES3   0.0000
    21 F13A     9.0176  -1.1112   9.1195   F         3 RES3   0.0000
    22 Fe1      3.7806   1.6360   3.8935   Fe        4 RES4   2.0000
    23 N1       1.0549   0.6569   2.5151   N.2       4 RES4   0.0000
    24 N2       2.2876   0.4319   2.9291   N.2       4 RES4   0.0000
    25 N3       6.9832   3.5394   5.9490   N.pl3     4 RES4   0.0000
    26 N4       6.5311   3.0571   4.7977   N.2       4 RES4   0.0000
    27 N5       0.5998  -0.5259   2.0634   N.pl3     4 RES4   0.0000
    28 N6       3.1164   1.3820   6.0486   N.3       4 RES4   0.0000
    29 N7       5.2773   2.6543   5.0391   N.2       4 RES4   0.0000
    30 C1       8.3274   3.9971   5.9800   C.ar      4 RES4   0.0000
    31 C2       4.0025  -1.2634   3.0243   C.3       4 RES4   0.0000
    32 H1       4.5781  -1.0865   2.2627   H         4 RES4   0.0000
    33 H2       4.0296  -2.2145   3.2147   H         4 RES4   0.0000
    34 N8       4.4726  -0.4711   4.2310   N.3       4 RES4   0.0000
    35 N9       2.4895   3.3290   3.5335   N.1       4 RES4   0.0000
    36 C3       3.6046   2.5021   6.8280   C.3       4 RES4   0.0000
    37 H3       3.6408   2.2548   7.7667   H         4 RES4   0.0000
    38 H4       2.9958   3.2518   6.7372   H         4 RES4   0.0000
    39 C4       6.0640   3.4689   6.9143   C.2       4 RES4   0.0000
    40 H5       6.1574   3.7531   7.7933   H         4 RES4   0.0000
    41 C5       5.8590   2.5636   1.6184   C.1       4 RES4   0.0000
    42 N10      5.0513   2.0198   2.2007   N.1       4 RES4   0.0000
    43 C6       1.7059   3.8896   2.9978   C.1       4 RES4   0.0000
    44 C7       1.5280  -1.4502   2.1852   C.2       4 RES4   0.0000
    45 H6       1.4527  -2.3454   1.9483   H         4 RES4   0.0000
    46 C8      -0.7716  -0.6535   1.5742   C.ar      4 RES4   0.0000
    47 C9       3.8005  -0.9277   5.4686   C.3       4 RES4   0.0000
    48 H7       4.2526  -1.7199   5.8029   H         4 RES4   0.0000
    49 H8       2.8843  -1.1694   5.2649   H         4 RES4   0.0000
    50 C10      4.9729   2.9016   6.3586   C.2       4 RES4   0.0000
    51 C11      8.9091   4.4973   4.8287   C.ar      4 RES4   0.0000
    52 H9       8.4178   4.5487   4.0405   H         4 RES4   0.0000
    53 C12     -1.4467   0.5226   1.2133   C.ar      4 RES4   0.0000
    54 H10     -1.0458   1.3585   1.2731   H         4 RES4   0.0000
    55 C13     10.9013   4.8979   6.0420   C.ar      4 RES4   0.0000
    56 H11     11.7813   5.2022   6.0774   H         4 RES4   0.0000
    57 C14      3.8126   0.1499   6.5490   C.3       4 RES4   0.0000
    58 H12      3.3635  -0.1779   7.3438   H         4 RES4   0.0000
    59 H13      4.7288   0.3659   6.7881   H         4 RES4   0.0000
    60 C15      2.6221  -0.8448   2.7254   C.2       4 RES4   0.0000
    61 C16      9.0025   3.9780   7.1711   C.ar      4 RES4   0.0000
    62 H14      8.5926   3.6670   7.9460   H         4 RES4   0.0000
    63 C17      0.6209   4.5857   2.2893   C.3       4 RES4   0.0000
    64 H15      0.6389   4.3451   1.3594   H         4 RES4   0.0000
    65 H16      0.7384   5.5346   2.3756   H         4 RES4   0.0000
    66 H17     -0.2230   4.3328   2.6679   H         4 RES4   0.0000
    67 C18     -1.3442  -1.8385   1.4834   C.ar      4 RES4   0.0000
    68 H18     -0.8740  -2.6039   1.7247   H         4 RES4   0.0000
    69 C19     -2.7336   0.3726   0.7683   C.ar      4 RES4   0.0000
    70 H19     -3.2098   1.1391   0.5380   H         4 RES4   0.0000
    71 C20     -3.3364  -0.7833   0.6443   C.ar      4 RES4   0.0000
    72 H20     -4.2014  -0.8325   0.3100   H         4 RES4   0.0000
    73 C21      6.8928   3.1824   0.9011   C.3       4 RES4   0.0000
    74 H21      7.7246   2.7449   1.0981   H         4 RES4   0.0000
    75 H22      6.9470   4.1067   1.1557   H         4 RES4   0.0000
    76 H23      6.7120   3.1187  -0.0399   H         4 RES4   0.0000
    77 C22     10.2533   4.9270   4.8531   C.ar      4 RES4   0.0000
    78 H24     10.6782   5.2213   4.0804   H         4 RES4   0.0000
    79 C23     10.3256   4.4402   7.1911   C.ar      4 RES4   0.0000
    80 H25     10.8109   4.4357   7.9837   H         4 RES4   0.0000
    81 C24     -2.6462  -1.9471   1.0273   C.ar      4 RES4   0.0000
    82 H26     -3.0621  -2.7729   0.9764   H         4 RES4   0.0000
    83 C25      5.9314  -0.5897   4.3217   C.3       4 RES4   0.0000
    84 H27      6.2388  -0.1734   5.1321   H         4 RES4   0.0000
    85 H28      6.3352  -0.1544   3.5668   H         4 RES4   0.0000
    86 H29      6.1785  -1.5174   4.3262   H         4 RES4   0.0000
    87 C26      1.6456   1.2309   6.1660   C.3       4 RES4   0.0000
    88 H30      1.3924   1.2734   7.0914   H         4 RES4   0.0000
    89 H31      1.3804   0.3838   5.8007   H         4 RES4   0.0000
    90 H32      1.2116   1.9381   5.6833   H         4 RES4   0.0000
@<TRIPOS>BOND
     1     1     2    1
     2     2     3    1
     3     4     2    1
     4     5     2    1
     5     6     2    1
     6     7     2    1
     7     8     9    1
     8    10     8    1
     9    11     8    1
    10    12     8    1
    11    13     8    1
    12    14     8    1
    13    15    16    1
    14    17    15    1
    15    18    15    1
    16    19    15    1
    17    20    15    1
    18    21    15    1
    19    22    24    1
    20    23    24    2
    21    24    60    1
    22    25    26    1
    23    26    29    2
    24    27    23    1
    25    28    22    1
    26    29    22    1
    27    30    25    1
    28    31    32    1
    29    33    31    1
    30    34    22    1
    31    35    22    1
    32    36    28    1
    33    37    36    1
    34    38    36    1
    35    39    25    1
    36    40    39    1
    37    41    42    3
    38    42    22    1
    39    43    35    3
    40    44    27    1
    41    45    44    1
    42    46    27    1
    43    47    34    1
    44    48    47    1
    45    49    47    1
    46    50    29    1
    47    51    30   ar
    48    52    51    1
    49    53    46   ar
    50    54    53    1
    51    55    56    1
    52    57    28    1
    53    58    57    1
    54    59    57    1
    55    60    31    1
    56    61    30   ar
    57    62    61    1
    58    63    43    1
    59    64    63    1
    60    65    63    1
    61    66    63    1
    62    67    46   ar
    63    68    67    1
    64    69    53   ar
    65    70    69    1
    66    71    69   ar
    67    72    71    1
    68    73    41    1
    69    74    73    1
    70    75    73    1
    71    76    73    1
    72    77    51   ar
    73    78    77    1
    74    79    55   ar
    75    80    79    1
    76    81    67   ar
    77    82    81    1
    78    83    34    1
    79    84    83    1
    80    85    83    1
    81    86    83    1
    82    87    28    1
    83    88    87    1
    84    89    87    1
    85    90    87    1
    86    31    34    1
    87    36    50    1
    88    39    50    2
    89    44    60    2
    90    47    57    1
    91    55    77   ar
    92    61    79   ar
    93    71    81   ar
@<TRIPOS>SUBSTRUCTURE
     1 RES1        1 GROUP             0 ****  ****    0  
     2 RES2        8 GROUP             0 ****  ****    0  
     3 RES3       15 GROUP             0 ****  ****    0  
     4 RES4       22 GROUP             0 ****  ****    0  
@<TRIPOS>CRYSIN
   30.1390   11.1900   22.1400   90.0000   90.0000   90.0000    54     1
