@<TRIPOS>MOLECULE
XURXEP
    98   103     1     0     0
SMALL
NO_CHARGES
****
Generated from the CSD

@<TRIPOS>ATOM
     1 Fe1      8.2727  14.9237  12.8326   Fe        1 RES1   0.0000
     2 P1      10.4708  15.1392  12.4015   P.3       1 RES1   0.0000
     3 P2       7.0609  16.7158  12.1195   P.3       1 RES1   0.0000
     4 P3       6.8938  13.9007  14.1852   P.3       1 RES1   0.0000
     5 C1      10.1525  15.8956  15.0021   C.ar      1 RES1   0.0000
     6 C2       7.9634  18.0735  12.9233   C.ar      1 RES1   0.0000
     7 N1       7.9626  13.8493  11.4038   N.1       1 RES1   0.0000
     8 C3       8.7413  17.6900  14.0235   C.ar      1 RES1   0.0000
     9 C4      11.1314  15.5353  14.0587   C.ar      1 RES1   0.0000
    10 C5       7.7202  16.0499  15.6381   C.ar      1 RES1   0.0000
    11 C6       5.0644  13.7110  13.7458   C.3       1 RES1   0.0000
    12 H1       4.6516  14.5843  13.9152   H         1 RES1   0.0000
    13 C7       7.9612  19.4022  12.4781   C.ar      1 RES1   0.0000
    14 H2       7.4339  19.6435  11.7522   H         1 RES1   0.0000
    15 C8       6.8764  14.9420  15.6744   C.ar      1 RES1   0.0000
    16 C9      10.5631  16.0206  16.3347   C.ar      1 RES1   0.0000
    17 H3       9.9288  16.2000  16.9906   H         1 RES1   0.0000
    18 C10     11.4134  13.5791  11.9787   C.3       1 RES1   0.0000
    19 H4      12.3643  13.8129  12.0218   H         1 RES1   0.0000
    20 C11     12.8570  15.5869  15.7474   C.ar      1 RES1   0.0000
    21 H5      13.7527  15.5122  15.9869   H         1 RES1   0.0000
    22 C12      7.5992  17.0011  16.6704   C.ar      1 RES1   0.0000
    23 H6       8.1416  17.7568  16.6588   H         1 RES1   0.0000
    24 C13      8.7370  16.2136  14.4954   C.3       1 RES1   0.0000
    25 C14      5.2686  17.1399  12.5869   C.3       1 RES1   0.0000
    26 H7       4.7197  16.3595  12.3598   H         1 RES1   0.0000
    27 C15      5.0968  17.3889  14.0817   C.3       1 RES1   0.0000
    28 H8       5.6003  18.1657  14.3362   H         1 RES1   0.0000
    29 H9       5.4144  16.6260  14.5726   H         1 RES1   0.0000
    30 H10      4.1686  17.5306  14.2781   H         1 RES1   0.0000
    31 C16      8.7370  20.3558  13.1081   C.ar      1 RES1   0.0000
    32 H11      8.7316  21.2359  12.8078   H         1 RES1   0.0000
    33 N2       7.7909  13.2193  10.5113   N.1       1 RES1   0.0000
    34 C17      6.9887  17.1350  10.2999   C.3       1 RES1   0.0000
    35 H12      6.6451  18.0495  10.2155   H         1 RES1   0.0000
    36 C18     11.1519  13.1155  10.5420   C.3       1 RES1   0.0000
    37 H13     11.8381  12.4993  10.2736   H         1 RES1   0.0000
    38 H14     11.1563  13.8748   9.9542   H         1 RES1   0.0000
    39 H15     10.2973  12.6805  10.4976   H         1 RES1   0.0000
    40 C19      4.2399  12.6917  14.5369   C.3       1 RES1   0.0000
    41 H16      3.3182  12.7518  14.2740   H         1 RES1   0.0000
    42 H17      4.3166  12.8773  15.4747   H         1 RES1   0.0000
    43 H18      4.5673  11.8069  14.3590   H         1 RES1   0.0000
    44 C20      5.9882  14.7618  16.7459   C.ar      1 RES1   0.0000
    45 H19      5.4620  13.9957  16.7812   H         1 RES1   0.0000
    46 C21     11.3724  16.3433  11.2504   C.3       1 RES1   0.0000
    47 H20     10.8689  16.3456  10.4105   H         1 RES1   0.0000
    48 C22      9.5204  18.6743  14.6414   C.ar      1 RES1   0.0000
    49 H21     10.0509  18.4430  15.3689   H         1 RES1   0.0000
    50 C23     12.4648  15.4050  14.4378   C.ar      1 RES1   0.0000
    51 H22     13.1023  15.1915  13.7949   H         1 RES1   0.0000
    52 C24      8.5728  12.2473  15.7194   C.3       1 RES1   0.0000
    53 H23      8.7575  11.3623  16.0429   H         1 RES1   0.0000
    54 H24      8.4463  12.8401  16.4639   H         1 RES1   0.0000
    55 H25      9.3108  12.5551  15.1885   H         1 RES1   0.0000
    56 C25      6.6938  16.8360  17.6993   C.ar      1 RES1   0.0000
    57 H26      6.6246  17.4826  18.3635   H         1 RES1   0.0000
    58 C26      6.0217  16.2031   9.5683   C.3       1 RES1   0.0000
    59 H27      5.9385  16.4819   8.6540   H         1 RES1   0.0000
    60 H28      5.1605  16.2387   9.9916   H         1 RES1   0.0000
    61 H29      6.3577  15.3046   9.5996   H         1 RES1   0.0000
    62 C27      5.8834  15.7054  17.7476   C.ar      1 RES1   0.0000
    63 H30      5.2805  15.5881  18.4444   H         1 RES1   0.0000
    64 C28      9.5215  19.9911  14.1914   C.ar      1 RES1   0.0000
    65 H31     10.0487  20.6271  14.6182   H         1 RES1   0.0000
    66 C29     11.2146  12.4198  12.9519   C.3       1 RES1   0.0000
    67 H32     10.3048  12.1167  12.9073   H         1 RES1   0.0000
    68 H33     11.4091  12.7146  13.8447   H         1 RES1   0.0000
    69 H34     11.8035  11.7000  12.7165   H         1 RES1   0.0000
    70 C30     12.8300  16.0359  10.8754   C.3       1 RES1   0.0000
    71 H35     13.1671  16.7313  10.3047   H         1 RES1   0.0000
    72 H36     12.8710  15.1946  10.4146   H         1 RES1   0.0000
    73 H37     13.3627  15.9893  11.6734   H         1 RES1   0.0000
    74 C31      7.3086  12.2243  14.8689   C.3       1 RES1   0.0000
    75 H38      6.5684  11.9587  15.4540   H         1 RES1   0.0000
    76 C32      4.6613  18.3465  11.8551   C.3       1 RES1   0.0000
    77 H39      3.7602  18.4833  12.1566   H         1 RES1   0.0000
    78 H40      4.6613  18.1812  10.9103   H         1 RES1   0.0000
    79 H41      5.1832  19.1308  12.0426   H         1 RES1   0.0000
    80 C33     11.8953  15.8836  16.7005   C.ar      1 RES1   0.0000
    81 H42     12.1439  15.9908  17.5900   H         1 RES1   0.0000
    82 C34     11.3086  17.7744  11.7912   C.3       1 RES1   0.0000
    83 H43     11.8100  17.8311  12.6087   H         1 RES1   0.0000
    84 H44     10.3934  18.0124  11.9596   H         1 RES1   0.0000
    85 H45     11.6814  18.3779  11.1446   H         1 RES1   0.0000
    86 C35      4.8850  13.4408  12.2456   C.3       1 RES1   0.0000
    87 H46      5.2675  12.5876  12.0260   H         1 RES1   0.0000
    88 H47      5.3269  14.1289  11.7419   H         1 RES1   0.0000
    89 H48      3.9503  13.4380  12.0301   H         1 RES1   0.0000
    90 C36      8.3577  17.0910   9.6430   C.3       1 RES1   0.0000
    91 H49      8.7208  16.2046   9.7178   H         1 RES1   0.0000
    92 H50      8.9423  17.7149  10.0807   H         1 RES1   0.0000
    93 H51      8.2756  17.3261   8.7162   H         1 RES1   0.0000
    94 C37      7.3993  11.1840  13.7491   C.3       1 RES1   0.0000
    95 H52      8.0995  11.4304  13.1396   H         1 RES1   0.0000
    96 H53      6.5630  11.1470  13.2785   H         1 RES1   0.0000
    97 H54      7.5917  10.3229  14.1267   H         1 RES1   0.0000
    98 H55      9.0331  13.9415  13.5772   H         1 RES1   0.0000
@<TRIPOS>BOND
     1     1     2    1
     2     2     9    1
     3     3     1    1
     4     4     1    1
     5     5     9   ar
     6     6     3    1
     7     7     1    1
     8     8     6   ar
     9     9    50   ar
    10    10    15   ar
    11    11     4    1
    12    12    11    1
    13    13     6   ar
    14    14    13    1
    15    15     4    1
    16    16     5   ar
    17    17    16    1
    18    18     2    1
    19    19    18    1
    20    20    21    1
    21    22    10   ar
    22    23    22    1
    23    24     1    1
    24    25     3    1
    25    26    25    1
    26    27    25    1
    27    28    27    1
    28    29    27    1
    29    30    27    1
    30    31    13   ar
    31    32    31    1
    32    33     7    3
    33    34     3    1
    34    35    34    1
    35    36    18    1
    36    37    36    1
    37    38    36    1
    38    39    36    1
    39    40    11    1
    40    41    40    1
    41    42    40    1
    42    43    40    1
    43    44    15   ar
    44    45    44    1
    45    46     2    1
    46    47    46    1
    47    48     8   ar
    48    49    48    1
    49    50    20   ar
    50    51    50    1
    51    52    53    1
    52    54    52    1
    53    55    52    1
    54    56    22   ar
    55    57    56    1
    56    58    34    1
    57    59    58    1
    58    60    58    1
    59    61    58    1
    60    62    44   ar
    61    63    62    1
    62    64    31   ar
    63    65    64    1
    64    66    18    1
    65    67    66    1
    66    68    66    1
    67    69    66    1
    68    70    46    1
    69    71    70    1
    70    72    70    1
    71    73    70    1
    72    74     4    1
    73    75    74    1
    74    76    25    1
    75    77    76    1
    76    78    76    1
    77    79    76    1
    78    80    16   ar
    79    81    80    1
    80    82    46    1
    81    83    82    1
    82    84    82    1
    83    85    82    1
    84    86    11    1
    85    87    86    1
    86    88    86    1
    87    89    86    1
    88    90    34    1
    89    91    90    1
    90    92    90    1
    91    93    90    1
    92    94    74    1
    93    95    94    1
    94    96    94    1
    95    97    94    1
    96    98     1    1
    97     5    24    1
    98     8    24    1
    99    10    24    1
   100    20    80   ar
   101    48    64   ar
   102    52    74    1
   103    56    62   ar
@<TRIPOS>SUBSTRUCTURE
     1 RES1        1 GROUP             0 ****  ****    0  
@<TRIPOS>CRYSIN
   10.8051   15.4905   20.7380   90.0000   90.0000   90.0000    19     1
