@<TRIPOS>MOLECULE
XUVKUX
   103   111     1     0     0
SMALL
NO_CHARGES
****
Generated from the CSD

@<TRIPOS>ATOM
     1 Fe1     12.8636  15.9054   6.1307   Fe        1 RES1   0.0000
     2 H1      13.9717  15.9054   5.0875   H         1 RES1   0.0000
     3 P1      13.2483  13.8245   5.5399   P.3       1 RES1   0.0000
     4 P2      11.0203  15.9054   7.3935   P.3       1 RES1   0.0000
     5 P3      14.3676  15.9054   7.8217   P.3       1 RES1   0.0000
     6 Si1     11.5459  15.9054   4.2068   Si        1 RES1   0.0000
     7 C1      14.9851  13.1922   5.6605   C.ar      1 RES1   0.0000
     8 C2      15.9360  13.7696   4.8143   C.ar      1 RES1   0.0000
     9 H2      15.6708  14.4527   4.2091   H         1 RES1   0.0000
    10 C3      17.2610  13.3616   4.8450   C.ar      1 RES1   0.0000
    11 H3      17.8921  13.7592   4.2576   H         1 RES1   0.0000
    12 C4      17.6676  12.3780   5.7267   C.ar      1 RES1   0.0000
    13 H4      18.5784  12.1072   5.7547   H         1 RES1   0.0000
    14 C5      16.7448  11.7929   6.5649   C.ar      1 RES1   0.0000
    15 H5      17.0195  11.1168   7.1721   H         1 RES1   0.0000
    16 C6      15.4087  12.1905   6.5248   C.ar      1 RES1   0.0000
    17 H6      14.7779  11.7700   7.0978   H         1 RES1   0.0000
    18 C7      12.3081  12.3604   6.2119   C.ar      1 RES1   0.0000
    19 C8      12.2157  12.1837   7.5915   C.ar      1 RES1   0.0000
    20 H7      12.6691  12.7879   8.1681   H         1 RES1   0.0000
    21 C9      11.4762  11.1433   8.1456   C.ar      1 RES1   0.0000
    22 H8      11.4404  11.0362   9.0886   H         1 RES1   0.0000
    23 C10     10.7978  10.2692   7.3282   C.ar      1 RES1   0.0000
    24 H9      10.2781   9.5687   7.7035   H         1 RES1   0.0000
    25 C11     10.8792  10.4189   5.9649   C.ar      1 RES1   0.0000
    26 H10     10.4239   9.8083   5.3969   H         1 RES1   0.0000
    27 C12     11.6256  11.4606   5.4078   C.ar      1 RES1   0.0000
    28 H11     11.6655  11.5537   4.4635   H         1 RES1   0.0000
    29 C13     12.9887  13.5573   3.7404   C.ar      1 RES1   0.0000
    30 C14     12.0732  14.4179   3.1447   C.ar      1 RES1   0.0000
    31 C15     11.7100  14.1747   1.8120   C.ar      1 RES1   0.0000
    32 H12     11.0493  14.7199   1.4012   H         1 RES1   0.0000
    33 C16     12.2989  13.1499   1.0838   C.ar      1 RES1   0.0000
    34 H13     12.0382  12.9958   0.1832   H         1 RES1   0.0000
    35 C17     13.2700  12.3511   1.6743   C.ar      1 RES1   0.0000
    36 H14     13.7115  11.6830   1.1641   H         1 RES1   0.0000
    37 C18     13.5936  12.5313   3.0057   C.ar      1 RES1   0.0000
    38 H15     14.2263  11.9587   3.4222   H         1 RES1   0.0000
    39 C19      9.6411  15.9054   4.0182   C.ar      1 RES1   0.0000
    40 C20      8.9046  14.7203   3.9584   C.ar      1 RES1   0.0000
    41 H16      9.3667  13.8907   3.9752   H         1 RES1   0.0000
    42 C21      7.5138  14.7163   3.8742   C.ar      1 RES1   0.0000
    43 H17      7.0439  13.8907   3.8426   H         1 RES1   0.0000
    44 C22      6.8174  15.9054   3.8361   C.ar      1 RES1   0.0000
    45 H18      5.8687  15.9054   3.7844   H         1 RES1   0.0000
    46 C23     11.0735  15.9054   9.2276   C.3       1 RES1   0.0000
    47 C24      9.8528  14.5004   7.2002   C.3       1 RES1   0.0000
    48 H19      9.6914  14.3382   6.2463   H         1 RES1   0.0000
    49 H20      9.0051  14.7157   7.6421   H         1 RES1   0.0000
    50 H21     10.2394  13.6956   7.6065   H         1 RES1   0.0000
    51 C25     16.1370  15.9054   7.3888   C.3       1 RES1   0.0000
    52 C26     14.4379  17.2764   9.0489   C.3       1 RES1   0.0000
    53 H22     14.6008  18.1237   8.5831   H         1 RES1   0.0000
    54 H23     15.1635  17.1078   9.6847   H         1 RES1   0.0000
    55 H24     13.5861  17.3263   9.5316   H         1 RES1   0.0000
    56 H25     16.6228  15.9054   8.2457   H         1 RES1   0.0000
    57 H26     16.3627  15.1356   6.9630   H         1 RES1   0.0000
    58 P1F     13.2483  17.9863   5.5399   P.3       1 RES1   0.0000
    59 C1F     14.9851  18.6186   5.6605   C.ar      1 RES1   0.0000
    60 C2F     15.9360  18.0412   4.8143   C.ar      1 RES1   0.0000
    61 H2F     15.6708  17.3581   4.2091   H         1 RES1   0.0000
    62 C3F     17.2610  18.4492   4.8450   C.ar      1 RES1   0.0000
    63 H3F     17.8921  18.0516   4.2576   H         1 RES1   0.0000
    64 C4F     17.6676  19.4328   5.7267   C.ar      1 RES1   0.0000
    65 H4F     18.5784  19.7036   5.7547   H         1 RES1   0.0000
    66 C5F     16.7448  20.0179   6.5649   C.ar      1 RES1   0.0000
    67 H5F     17.0195  20.6940   7.1721   H         1 RES1   0.0000
    68 C6F     15.4087  19.6203   6.5248   C.ar      1 RES1   0.0000
    69 H6F     14.7779  20.0408   7.0978   H         1 RES1   0.0000
    70 C7F     12.3081  19.4504   6.2119   C.ar      1 RES1   0.0000
    71 C8F     12.2157  19.6271   7.5915   C.ar      1 RES1   0.0000
    72 H7F     12.6691  19.0229   8.1681   H         1 RES1   0.0000
    73 C9F     11.4762  20.6675   8.1456   C.ar      1 RES1   0.0000
    74 H8F     11.4404  20.7746   9.0886   H         1 RES1   0.0000
    75 C10F    10.7978  21.5416   7.3282   C.ar      1 RES1   0.0000
    76 H9F     10.2781  22.2421   7.7035   H         1 RES1   0.0000
    77 C11F    10.8792  21.3919   5.9649   C.ar      1 RES1   0.0000
    78 H10F    10.4239  22.0025   5.3969   H         1 RES1   0.0000
    79 C12F    11.6256  20.3502   5.4078   C.ar      1 RES1   0.0000
    80 H11F    11.6655  20.2571   4.4635   H         1 RES1   0.0000
    81 C13F    12.9887  18.2535   3.7404   C.ar      1 RES1   0.0000
    82 C14F    12.0732  17.3929   3.1447   C.ar      1 RES1   0.0000
    83 C15F    11.7100  17.6361   1.8120   C.ar      1 RES1   0.0000
    84 H12F    11.0493  17.0909   1.4012   H         1 RES1   0.0000
    85 C16F    12.2989  18.6609   1.0838   C.ar      1 RES1   0.0000
    86 H13F    12.0382  18.8150   0.1832   H         1 RES1   0.0000
    87 C17F    13.2700  19.4597   1.6743   C.ar      1 RES1   0.0000
    88 H14F    13.7115  20.1278   1.1641   H         1 RES1   0.0000
    89 C18F    13.5936  19.2795   3.0057   C.ar      1 RES1   0.0000
    90 H15F    14.2263  19.8521   3.4222   H         1 RES1   0.0000
    91 C20F     8.9046  17.0905   3.9584   C.ar      1 RES1   0.0000
    92 H16F     9.3667  17.9201   3.9752   H         1 RES1   0.0000
    93 C21F     7.5138  17.0945   3.8742   C.ar      1 RES1   0.0000
    94 H17F     7.0439  17.9201   3.8426   H         1 RES1   0.0000
    95 C24F     9.8528  17.3104   7.2002   C.3       1 RES1   0.0000
    96 H19F     9.6914  17.4726   6.2463   H         1 RES1   0.0000
    97 H20F     9.0051  17.0951   7.6421   H         1 RES1   0.0000
    98 H21F    10.2394  18.1152   7.6065   H         1 RES1   0.0000
    99 C26F    14.4379  14.5344   9.0489   C.3       1 RES1   0.0000
   100 H22F    14.6008  13.6871   8.5831   H         1 RES1   0.0000
   101 H23F    15.1635  14.7030   9.6847   H         1 RES1   0.0000
   102 H24F    13.5861  14.4845   9.5316   H         1 RES1   0.0000
   103 H26F    16.3627  16.6752   6.9630   H         1 RES1   0.0000
@<TRIPOS>BOND
     1     1     2    1
     2     3     1    1
     3     4     1    1
     4     5     1    1
     5     6     1    1
     6     7     3    1
     7     8     7   ar
     8     9     8    1
     9    10     8   ar
    10    11    10    1
    11    12    10   ar
    12    13    12    1
    13    14    12   ar
    14    15    14    1
    15    16     7   ar
    16    17    16    1
    17    18     3    1
    18    19    18   ar
    19    20    19    1
    20    21    19   ar
    21    22    21    1
    22    23    21   ar
    23    24    23    1
    24    25    23   ar
    25    26    25    1
    26    27    18   ar
    27    28    27    1
    28    29     3    1
    29    30     6    1
    30    31    30   ar
    31    32    31    1
    32    33    31   ar
    33    34    33    1
    34    35    33   ar
    35    36    35    1
    36    37    29   ar
    37    38    37    1
    38    39     6    1
    39    40    39   ar
    40    41    40    1
    41    42    40   ar
    42    43    42    1
    43    44    42   ar
    44    45    44    1
    45    46     4    1
    46    47     4    1
    47    48    47    1
    48    49    47    1
    49    50    47    1
    50    51     5    1
    51    52     5    1
    52    53    52    1
    53    54    52    1
    54    55    52    1
    55    56    51    1
    56    57    51    1
    57    58     1    1
    58    59    58    1
    59    60    59   ar
    60    61    60    1
    61    62    60   ar
    62    63    62    1
    63    64    62   ar
    64    65    64    1
    65    66    64   ar
    66    67    66    1
    67    68    59   ar
    68    69    68    1
    69    70    58    1
    70    71    70   ar
    71    72    71    1
    72    73    71   ar
    73    74    73    1
    74    75    73   ar
    75    76    75    1
    76    77    75   ar
    77    78    77    1
    78    79    70   ar
    79    80    79    1
    80    81    58    1
    81    82     6    1
    82    83    82   ar
    83    84    83    1
    84    85    83   ar
    85    86    85    1
    86    87    85   ar
    87    88    87    1
    88    89    81   ar
    89    90    89    1
    90    91    39   ar
    91    92    91    1
    92    93    44   ar
    93    94    93    1
    94    95     4    1
    95    96    95    1
    96    97    95    1
    97    98    95    1
    98    99     5    1
    99   100    99    1
   100   101    99    1
   101   102    99    1
   102   103    51    1
   103    14    16   ar
   104    25    27   ar
   105    29    30   ar
   106    35    37   ar
   107    66    68   ar
   108    77    79   ar
   109    81    82   ar
   110    87    89   ar
   111    91    93   ar
@<TRIPOS>SUBSTRUCTURE
     1 RES1        1 GROUP             0 ****  ****    0  
@<TRIPOS>CRYSIN
   18.4493   21.2072   10.7787   90.0000   90.0000   90.0000    62     1
