@<TRIPOS>MOLECULE
XUXKUY
   101   106     3     0     0
SMALL
NO_CHARGES
****
Generated from the CSD

@<TRIPOS>ATOM
     1 Fe1      8.0931  17.0711  15.3419   Fe        1 RES1   0.0000
     2 Br1      8.3896  14.9145  16.4758   Br        1 RES1   0.0000
     3 Br2      7.9964  19.2155  14.1468   Br        1 RES1   0.0000
     4 P1       7.1980  16.1346  13.4804   P.3       1 RES1   0.0000
     5 P2       9.3865  18.0288  16.9305   P.3       1 RES1   0.0000
     6 O1       5.5891  17.4186  16.7418   O.2       1 RES1   0.0000
     7 N1       9.8339  16.7201  14.3978   N.2       1 RES1   0.0000
     8 C1       8.6671  16.1788  12.3640   C.3       1 RES1   0.0000
     9 H1       8.7305  15.3303  11.8586   H         1 RES1   0.0000
    10 H2       8.5734  16.9206  11.7153   H         1 RES1   0.0000
    11 C2       9.8973  16.3732  13.1779   C.2       1 RES1   0.0000
    12 H3      10.7480  16.2346  12.7782   H         1 RES1   0.0000
    13 C3      11.0933  16.8579  15.1604   C.3       1 RES1   0.0000
    14 H4      11.8525  16.9732  14.5348   H         1 RES1   0.0000
    15 H5      11.2537  16.0397  15.6933   H         1 RES1   0.0000
    16 C4      11.0004  18.0527  16.0756   C.3       1 RES1   0.0000
    17 H6      11.0911  18.8871  15.5499   H         1 RES1   0.0000
    18 H7      11.7344  18.0237  16.7403   H         1 RES1   0.0000
    19 C5       6.5723  17.3079  16.1798   C.1       1 RES1   0.0000
    20 C6       6.7091  14.3619  13.6196   C.3       1 RES1   0.0000
    21 H8       7.4452  13.9134  14.1264   H         1 RES1   0.0000
    22 C7       5.4621  14.2391  14.4942   C.3       1 RES1   0.0000
    23 H9       5.6034  14.7320  15.3414   H         1 RES1   0.0000
    24 H10      4.6893  14.6443  14.0279   H         1 RES1   0.0000
    25 C8       5.1603  12.7756  14.8027   C.3       1 RES1   0.0000
    26 H11      5.8992  12.3913  15.3370   H         1 RES1   0.0000
    27 H12      4.3304  12.7168  15.3414   H         1 RES1   0.0000
    28 C9       4.9913  11.9791  13.5225   C.3       1 RES1   0.0000
    29 H13      4.8354  11.0270  13.7441   H         1 RES1   0.0000
    30 H14      4.2005  12.3114  13.0287   H         1 RES1   0.0000
    31 C10      6.2242  12.1023  12.6493   C.3       1 RES1   0.0000
    32 H15      6.0783  11.6059  11.8051   H         1 RES1   0.0000
    33 H16      6.9974  11.6936  13.1142   H         1 RES1   0.0000
    34 C11      6.5424  13.5653  12.3278   C.3       1 RES1   0.0000
    35 H17      7.3764  13.6152  11.7964   H         1 RES1   0.0000
    36 H18      5.8098  13.9543  11.7891   H         1 RES1   0.0000
    37 C12      5.7734  16.8643  12.5349   C.3       1 RES1   0.0000
    38 H19      5.2536  16.0709  12.2192   H         1 RES1   0.0000
    39 C13      6.1106  17.6162  11.2693   C.3       1 RES1   0.0000
    40 H20      6.6568  17.0395  10.6799   H         1 RES1   0.0000
    41 H21      6.6452  18.4174  11.4952   H         1 RES1   0.0000
    42 C14      4.8395  18.0432  10.5307   C.3       1 RES1   0.0000
    43 H22      5.0884  18.6181   9.7647   H         1 RES1   0.0000
    44 H23      4.3886  17.2383  10.1716   H         1 RES1   0.0000
    45 C15      3.8713  18.7955  11.4184   C.3       1 RES1   0.0000
    46 H24      4.2637  19.6725  11.6559   H         1 RES1   0.0000
    47 H25      3.0336  18.9611  10.9188   H         1 RES1   0.0000
    48 C16      3.5523  18.0432  12.6754   C.3       1 RES1   0.0000
    49 H26      3.0240  17.2383  12.4451   H         1 RES1   0.0000
    50 H27      2.9981  18.6142  13.2633   H         1 RES1   0.0000
    51 C17      4.8002  17.6187  13.4270   C.3       1 RES1   0.0000
    52 H28      4.5411  17.0414  14.1887   H         1 RES1   0.0000
    53 H29      5.2483  18.4213  13.7933   H         1 RES1   0.0000
    54 C18      9.2092  19.7464  17.5367   C.ar      1 RES1   0.0000
    55 C19      8.0717  20.4951  17.3209   C.ar      1 RES1   0.0000
    56 H30      7.3398  20.1247  16.8416   H         1 RES1   0.0000
    57 C20      7.9999  21.7943  17.8061   C.ar      1 RES1   0.0000
    58 H31      7.2251  22.3152  17.6366   H         1 RES1   0.0000
    59 C21      9.0420  22.3369  18.5301   C.ar      1 RES1   0.0000
    60 H32      8.9814  23.2254  18.8603   H         1 RES1   0.0000
    61 C22     10.1623  21.5865  18.7705   C.ar      1 RES1   0.0000
    62 H33     10.8798  21.9527  19.2745   H         1 RES1   0.0000
    63 C23     10.2516  20.3010  18.2796   C.ar      1 RES1   0.0000
    64 H34     11.0319  19.7875  18.4490   H         1 RES1   0.0000
    65 C24      9.6471  17.1518  18.5084   C.ar      1 RES1   0.0000
    66 C25      8.6572  17.2334  19.4786   C.ar      1 RES1   0.0000
    67 H35      7.8785  17.7509  19.3078   H         1 RES1   0.0000
    68 C26      8.7849  16.5756  20.6893   C.ar      1 RES1   0.0000
    69 H36      8.1007  16.6419  21.3453   H         1 RES1   0.0000
    70 C27      9.9101  15.8247  20.9326   C.ar      1 RES1   0.0000
    71 H37     10.0062  15.3790  21.7652   H         1 RES1   0.0000
    72 C28     10.8993  15.7123  19.9797   C.ar      1 RES1   0.0000
    73 H38     11.6640  15.1763  20.1520   H         1 RES1   0.0000
    74 C29     10.7834  16.3788  18.7720   C.ar      1 RES1   0.0000
    75 H39     11.4744  16.3106  18.1232   H         1 RES1   0.0000
    76 O2      12.5154  19.9099  20.6936   O.3       2 RES2   0.0000
    77 C30     11.6317  19.1502  21.4437   C.3       2 RES2   0.0000
    78 H40     11.0676  18.5928  20.8500   H         2 RES2   0.0000
    79 H41     11.0425  19.7368  21.9795   H         2 RES2   0.0000
    80 C31     12.4401  18.2966  22.3242   C.3       2 RES2   0.0000
    81 H42     11.9617  17.4605  22.5530   H         2 RES2   0.0000
    82 H43     12.6857  18.7721  23.1569   H         2 RES2   0.0000
    83 C32     13.6299  18.0237  21.4886   C.3       2 RES2   0.0000
    84 H44     13.6100  17.0960  21.1425   H         2 RES2   0.0000
    85 H45     14.4617  18.1504  22.0114   H         2 RES2   0.0000
    86 C33     13.5565  19.0040  20.3721   C.3       2 RES2   0.0000
    87 H46     14.4173  19.4854  20.2780   H         2 RES2   0.0000
    88 H47     13.3601  18.5402  19.5192   H         2 RES2   0.0000
    89 O3       1.5486  13.5938   9.8791   O.3       3 RES3   0.0000
    90 C34      2.0534  14.4318   8.9204   C.3       3 RES3   0.0000
    91 H48      2.4936  15.2056   9.3548   H         3 RES3   0.0000
    92 H49      1.3143  14.7748   8.3585   H         3 RES3   0.0000
    93 C35      3.0075  13.7322   8.0906   C.3       3 RES3   0.0000
    94 H50      3.7359  14.3344   7.7967   H         3 RES3   0.0000
    95 H51      2.5707  13.3365   7.2956   H         3 RES3   0.0000
    96 C36      3.5062  12.6992   8.9899   C.3       3 RES3   0.0000
    97 H52      4.4042  12.9409   9.3288   H         3 RES3   0.0000
    98 H53      3.5702  11.8320   8.5164   H         3 RES3   0.0000
    99 C37      2.5387  12.6096  10.1050   C.3       3 RES3   0.0000
   100 H54      2.1289  11.7092  10.1310   H         3 RES3   0.0000
   101 H55      2.9951  12.7733  10.9681   H         3 RES3   0.0000
@<TRIPOS>BOND
     1     1     2    1
     2     3     1    1
     3     4     1    1
     4     5     1    1
     5     6    19    3
     6     7     1    1
     7     8     4    1
     8     9     8    1
     9    10     8    1
    10    11     7    2
    11    12    11    1
    12    13     7    1
    13    14    13    1
    14    15    13    1
    15    16     5    1
    16    17    16    1
    17    18    16    1
    18    19     1    1
    19    20     4    1
    20    21    20    1
    21    22    20    1
    22    23    22    1
    23    24    22    1
    24    25    22    1
    25    26    25    1
    26    27    25    1
    27    28    25    1
    28    29    28    1
    29    30    28    1
    30    31    28    1
    31    32    31    1
    32    33    31    1
    33    34    20    1
    34    35    34    1
    35    36    34    1
    36    37     4    1
    37    38    37    1
    38    39    37    1
    39    40    39    1
    40    41    39    1
    41    42    39    1
    42    43    42    1
    43    44    42    1
    44    45    42    1
    45    46    45    1
    46    47    45    1
    47    48    45    1
    48    49    48    1
    49    50    48    1
    50    51    37    1
    51    52    51    1
    52    53    51    1
    53    54     5    1
    54    55    54   ar
    55    56    55    1
    56    57    55   ar
    57    58    57    1
    58    59    57   ar
    59    60    59    1
    60    61    59   ar
    61    62    61    1
    62    63    54   ar
    63    64    63    1
    64    65     5    1
    65    66    65   ar
    66    67    66    1
    67    68    66   ar
    68    69    68    1
    69    70    68   ar
    70    71    70    1
    71    72    70   ar
    72    73    72    1
    73    74    65   ar
    74    75    74    1
    75     8    11    1
    76    13    16    1
    77    31    34    1
    78    48    51    1
    79    61    63   ar
    80    72    74   ar
    81    76    77    1
    82    77    78    1
    83    79    77    1
    84    80    77    1
    85    81    80    1
    86    82    80    1
    87    83    80    1
    88    84    83    1
    89    85    83    1
    90    86    76    1
    91    87    86    1
    92    88    86    1
    93    83    86    1
    94    89    90    1
    95    90    91    1
    96    92    90    1
    97    93    90    1
    98    94    93    1
    99    95    93    1
   100    96    93    1
   101    97    96    1
   102    98    96    1
   103    99    89    1
   104   100    99    1
   105   101    99    1
   106    96    99    1
@<TRIPOS>SUBSTRUCTURE
     1 RES1        1 GROUP             0 ****  ****    0  
     2 RES2       76 GROUP             0 ****  ****    0  
     3 RES3       89 GROUP             0 ****  ****    0  
@<TRIPOS>CRYSIN
   13.7184   19.4893   14.7566   90.0000  101.0870   90.0000    14     1
