@<TRIPOS>MOLECULE
YACJIW
   141   150     3     0     0
SMALL
USER_CHARGES
****
Generated from the CSD

@<TRIPOS>ATOM
     1 Fe1     -7.5062   4.4245  17.3419   Fe        1 RES1   1.0000
     2 N1      -8.6089   4.4245  15.7168   N.2       1 RES1   0.0000
     3 N2      -7.4333   6.3838  17.2619   N.2       1 RES1   0.0000
     4 N3      -6.5518   4.4245  19.0836   N.2       1 RES1   0.0000
     5 N4      -9.7915   4.4245  19.4031   N.1       1 RES1   0.0000
     6 N5      -5.2597   4.4245  15.2537   N.1       1 RES1   0.0000
     7 C1     -10.3467   5.1007  14.3729   C.2       1 RES1   0.0000
     8 C2      -9.2080   5.5216  15.1515   C.2       1 RES1   0.0000
     9 C3      -8.6079   6.7879  15.1865   C.2       1 RES1   0.0000
    10 C4      -7.6244   7.1280  16.1087   C.2       1 RES1   0.0000
    11 C5      -6.7826   8.2986  16.1397   C.2       1 RES1   0.0000
    12 C6      -6.1562   8.3027  17.3465   C.2       1 RES1   0.0000
    13 C7      -6.6113   7.1410  18.0735   C.2       1 RES1   0.0000
    14 C8      -6.3695   6.8224  19.4148   C.2       1 RES1   0.0000
    15 C9      -6.4737   5.5304  19.9127   C.2       1 RES1   0.0000
    16 C10     -6.4061   5.0958  21.2980   C.2       1 RES1   0.0000
    17 C11    -11.3973   5.9368  13.6990   C.3       1 RES1   0.0000
    18 H1     -12.2777   5.5271  13.8335   H         1 RES1   0.0000
    19 H2     -11.2058   5.9908  12.7392   H         1 RES1   0.0000
    20 H3     -11.3946   6.8385  14.0831   H         1 RES1   0.0000
    21 C12     -9.0301   7.7519  14.1388   C.ar      1 RES1   0.0000
    22 C13     -8.8357   7.4415  12.8013   C.ar      1 RES1   0.0000
    23 H4      -8.3636   6.6509  12.5633   H         1 RES1   0.0000
    24 C14     -9.3217   8.2736  11.8144   C.ar      1 RES1   0.0000
    25 H5      -9.1954   8.0508  10.8999   H         1 RES1   0.0000
    26 C15     -9.9911   9.4295  12.1598   C.ar      1 RES1   0.0000
    27 H6     -10.3283  10.0029  11.4807   H         1 RES1   0.0000
    28 C16    -10.1722   9.7525  13.4765   C.ar      1 RES1   0.0000
    29 H7     -10.6356  10.5480  13.7119   H         1 RES1   0.0000
    30 C17     -9.6812   8.9235  14.4660   C.ar      1 RES1   0.0000
    31 H8      -9.7934   9.1605  15.3792   H         1 RES1   0.0000
    32 C18     -6.5283   9.2539  15.0261   C.3       1 RES1   0.0000
    33 H9      -5.6570   9.6826  15.1554   H         1 RES1   0.0000
    34 H10     -7.2309   9.9374  15.0157   H         1 RES1   0.0000
    35 H11     -6.5305   8.7694  14.1737   H         1 RES1   0.0000
    36 C19     -5.0781   9.2527  17.7889   C.3       1 RES1   0.0000
    37 H12     -4.7773   9.7870  17.0232   H         1 RES1   0.0000
    38 H13     -4.3210   8.7446  18.1485   H         1 RES1   0.0000
    39 H14     -5.4309   9.8472  18.4835   H         1 RES1   0.0000
    40 C20     -6.0686   7.9820  20.2995   C.ar      1 RES1   0.0000
    41 C21     -7.0459   8.9538  20.4676   C.ar      1 RES1   0.0000
    42 H15     -7.8995   8.8384  20.0667   H         1 RES1   0.0000
    43 C22     -6.7823  10.0880  21.2127   C.ar      1 RES1   0.0000
    44 H16     -7.4557  10.7480  21.3252   H         1 RES1   0.0000
    45 C23     -5.5465  10.2618  21.7895   C.ar      1 RES1   0.0000
    46 H17     -5.3596  11.0471  22.2914   H         1 RES1   0.0000
    47 C24     -4.5832   9.2916  21.6356   C.ar      1 RES1   0.0000
    48 H18     -3.7308   9.4083  22.0366   H         1 RES1   0.0000
    49 C25     -4.8435   8.1552  20.9074   C.ar      1 RES1   0.0000
    50 H19     -4.1746   7.4863  20.8233   H         1 RES1   0.0000
    51 C26     -6.3846   5.9487  22.5281   C.3       1 RES1   0.0000
    52 H20     -6.7965   5.4616  23.2706   H         1 RES1   0.0000
    53 H21     -6.8842   6.7748  22.3613   H         1 RES1   0.0000
    54 H22     -5.4574   6.1678  22.7571   H         1 RES1   0.0000
    55 C27     -9.0470   4.4245  18.5404   C.1       1 RES1   0.0000
    56 C28    -10.6795   4.4245  20.5543   C.3       1 RES1   0.0000
    57 C29    -12.1085   4.4245  20.0253   C.3       1 RES1   0.0000
    58 H23    -12.2447   5.2068  19.4885   H         1 RES1   0.0000
    59 H24    -12.7291   4.4245  20.7535   H         1 RES1   0.0000
    60 C30    -10.3790   3.1715  21.3549   C.3       1 RES1   0.0000
    61 H25     -9.4585   3.2086  21.6887   H         1 RES1   0.0000
    62 H26    -10.4873   2.3839  20.7819   H         1 RES1   0.0000
    63 H27    -10.9985   3.1113  22.1129   H         1 RES1   0.0000
    64 C31     -6.0009   4.4245  16.1333   C.1       1 RES1   0.0000
    65 C32     -4.4696   4.4245  14.0482   C.3       1 RES1   0.0000
    66 C33     -4.8442   5.6811  13.2747   C.3       1 RES1   0.0000
    67 H28     -5.7954   5.6510  13.0419   H         1 RES1   0.0000
    68 H29     -4.3077   5.7324  12.4547   H         1 RES1   0.0000
    69 H30     -4.6678   6.4704  13.8283   H         1 RES1   0.0000
    70 C34     -3.0077   4.4245  14.4375   C.3       1 RES1   0.0000
    71 H31     -2.8127   3.6422  14.9562   H         1 RES1   0.0000
    72 H32     -2.4692   4.4245  13.6447   H         1 RES1   0.0000
    73 C1C    -10.3467   3.7483  14.3729   C.2       1 RES1   0.0000
    74 C2C     -9.2080   3.3274  15.1515   C.2       1 RES1   0.0000
    75 C3C     -8.6079   2.0611  15.1865   C.2       1 RES1   0.0000
    76 C4C     -7.6244   1.7210  16.1087   C.2       1 RES1   0.0000
    77 N2C     -7.4333   2.4652  17.2619   N.2       1 RES1   0.0000
    78 H23C   -12.2447   3.6422  19.4885   H         1 RES1   0.0000
    79 C30C   -10.3790   5.6775  21.3549   C.3       1 RES1   0.0000
    80 H25C    -9.4585   5.6404  21.6887   H         1 RES1   0.0000
    81 H26C   -10.4873   6.4651  20.7819   H         1 RES1   0.0000
    82 H27C   -10.9985   5.7377  22.1129   H         1 RES1   0.0000
    83 C33C    -4.8442   3.1679  13.2747   C.3       1 RES1   0.0000
    84 H28C    -5.7954   3.1980  13.0419   H         1 RES1   0.0000
    85 H29C    -4.3077   3.1166  12.4547   H         1 RES1   0.0000
    86 H30C    -4.6678   2.3786  13.8283   H         1 RES1   0.0000
    87 H31C    -2.8127   5.2068  14.9562   H         1 RES1   0.0000
    88 C9C     -6.4737   3.3186  19.9127   C.2       1 RES1   0.0000
    89 C8C     -6.3695   2.0266  19.4148   C.2       1 RES1   0.0000
    90 C7C     -6.6113   1.7080  18.0735   C.2       1 RES1   0.0000
    91 C6C     -6.1562   0.5463  17.3465   C.2       1 RES1   0.0000
    92 C5C     -6.7826   0.5504  16.1397   C.2       1 RES1   0.0000
    93 C18C    -6.5283  -0.4049  15.0261   C.3       1 RES1   0.0000
    94 H9C     -5.6570  -0.8336  15.1554   H         1 RES1   0.0000
    95 H10C    -7.2309  -1.0884  15.0157   H         1 RES1   0.0000
    96 H11C    -6.5305   0.0796  14.1737   H         1 RES1   0.0000
    97 C19C    -5.0781  -0.4037  17.7889   C.3       1 RES1   0.0000
    98 H12C    -4.7773  -0.9380  17.0232   H         1 RES1   0.0000
    99 H13C    -4.3210   0.1044  18.1485   H         1 RES1   0.0000
   100 H14C    -5.4309  -0.9982  18.4835   H         1 RES1   0.0000
   101 C20C    -6.0686   0.8670  20.2995   C.ar      1 RES1   0.0000
   102 C21C    -7.0459  -0.1048  20.4676   C.ar      1 RES1   0.0000
   103 H15C    -7.8995   0.0106  20.0667   H         1 RES1   0.0000
   104 C22C    -6.7823  -1.2390  21.2127   C.ar      1 RES1   0.0000
   105 H16C    -7.4557  -1.8990  21.3252   H         1 RES1   0.0000
   106 C23C    -5.5465  -1.4128  21.7895   C.ar      1 RES1   0.0000
   107 H17C    -5.3596  -2.1981  22.2914   H         1 RES1   0.0000
   108 C24C    -4.5832  -0.4426  21.6356   C.ar      1 RES1   0.0000
   109 H18C    -3.7308  -0.5593  22.0366   H         1 RES1   0.0000
   110 C25C    -4.8435   0.6938  20.9074   C.ar      1 RES1   0.0000
   111 H19C    -4.1746   1.3627  20.8233   H         1 RES1   0.0000
   112 C10C    -6.4061   3.7532  21.2980   C.2       1 RES1   0.0000
   113 C26C    -6.3846   2.9003  22.5281   C.3       1 RES1   0.0000
   114 H20C    -6.7965   3.3874  23.2706   H         1 RES1   0.0000
   115 H21C    -6.8842   2.0742  22.3613   H         1 RES1   0.0000
   116 H22C    -5.4574   2.6812  22.7571   H         1 RES1   0.0000
   117 C12C    -9.0301   1.0971  14.1388   C.ar      1 RES1   0.0000
   118 C13C    -8.8357   1.4075  12.8013   C.ar      1 RES1   0.0000
   119 H4C     -8.3636   2.1981  12.5633   H         1 RES1   0.0000
   120 C14C    -9.3217   0.5754  11.8144   C.ar      1 RES1   0.0000
   121 H5C     -9.1954   0.7982  10.8999   H         1 RES1   0.0000
   122 C15C    -9.9911  -0.5805  12.1598   C.ar      1 RES1   0.0000
   123 H6C    -10.3283  -1.1539  11.4807   H         1 RES1   0.0000
   124 C16C   -10.1722  -0.9035  13.4765   C.ar      1 RES1   0.0000
   125 H7C    -10.6356  -1.6990  13.7119   H         1 RES1   0.0000
   126 C17C    -9.6812  -0.0745  14.4660   C.ar      1 RES1   0.0000
   127 H8C     -9.7934  -0.3115  15.3792   H         1 RES1   0.0000
   128 C11C   -11.3973   2.9122  13.6990   C.3       1 RES1   0.0000
   129 H1C    -12.2777   3.3219  13.8335   H         1 RES1   0.0000
   130 H2C    -11.2058   2.8582  12.7392   H         1 RES1   0.0000
   131 H3C    -11.3946   2.0105  14.0831   H         1 RES1   0.0000
   132 C35     -2.4208  13.2735  19.5480   C.3       2 RES2   0.0000
   133 H33     -1.4572  13.2735  19.3242   H         2 RES2   0.0000
   134 H34     -2.9304  13.2735  18.6995   H         2 RES2   0.0000
   135 Cl1     -2.7956  11.8398  20.4321   Cl        2 RES2   0.0000
   136 Cl1C    -2.7956  14.7072  20.4321   Cl        2 RES2   0.0000
   137 Cl2      3.6719   4.4245  10.2072   Cl        3 RES3   0.0000
   138 O1       4.8581   4.4245  10.9271   O.3       3 RES3  -1.0000
   139 O2       2.6010   4.4245  11.1069   O.2       3 RES3   0.0000
   140 O3       3.6059   5.5708   9.3982   O.2       3 RES3   0.0000
   141 O3C      3.6059   3.2782   9.3982   O.2       3 RES3   0.0000
@<TRIPOS>BOND
     1     1     2    1
     2     2     8    1
     3     3     1    1
     4     4     1    1
     5     5    55    3
     6     6    64    3
     7     7     8    1
     8     8     9    2
     9     9    10    1
    10    10     3    2
    11    11    10    1
    12    12    11    2
    13    13     3    1
    14    14    13    2
    15    15     4    1
    16    16    15    2
    17    17     7    1
    18    18    17    1
    19    19    17    1
    20    20    17    1
    21    21     9    1
    22    22    21   ar
    23    23    22    1
    24    24    22   ar
    25    25    24    1
    26    26    24   ar
    27    27    26    1
    28    28    26   ar
    29    29    28    1
    30    30    21   ar
    31    31    30    1
    32    32    11    1
    33    33    32    1
    34    34    32    1
    35    35    32    1
    36    36    12    1
    37    37    36    1
    38    38    36    1
    39    39    36    1
    40    40    14    1
    41    41    40   ar
    42    42    41    1
    43    43    41   ar
    44    44    43    1
    45    45    43   ar
    46    46    45    1
    47    47    45   ar
    48    48    47    1
    49    49    40   ar
    50    50    49    1
    51    51    16    1
    52    52    51    1
    53    53    51    1
    54    54    51    1
    55    55     1    1
    56    56     5    1
    57    57    56    1
    58    58    57    1
    59    59    57    1
    60    60    56    1
    61    61    60    1
    62    62    60    1
    63    63    60    1
    64    64     1    1
    65    65     6    1
    66    66    65    1
    67    67    66    1
    68    68    66    1
    69    69    66    1
    70    70    65    1
    71    71    70    1
    72    72    70    1
    73    73     7    2
    74    74     2    1
    75    75    74    2
    76    76    75    1
    77    77     1    1
    78    78    57    1
    79    79    56    1
    80    80    79    1
    81    81    79    1
    82    82    79    1
    83    83    65    1
    84    84    83    1
    85    85    83    1
    86    86    83    1
    87    87    70    1
    88    88     4    1
    89    89    88    1
    90    90    77    1
    91    91    90    1
    92    92    76    1
    93    93    92    1
    94    94    93    1
    95    95    93    1
    96    96    93    1
    97    97    91    1
    98    98    97    1
    99    99    97    1
   100   100    97    1
   101   101    89    1
   102   102   101   ar
   103   103   102    1
   104   104   102   ar
   105   105   104    1
   106   106   104   ar
   107   107   106    1
   108   108   106   ar
   109   109   108    1
   110   110   101   ar
   111   111   110    1
   112   112    16    1
   113   113   112    1
   114   114   113    1
   115   115   113    1
   116   116   113    1
   117   117    75    1
   118   118   117   ar
   119   119   118    1
   120   120   118   ar
   121   121   120    1
   122   122   120   ar
   123   123   122    1
   124   124   122   ar
   125   125   124    1
   126   126   117   ar
   127   127   126    1
   128   128    73    1
   129   129   128    1
   130   130   128    1
   131   131   128    1
   132    12    13    1
   133    14    15    1
   134    28    30   ar
   135    47    49   ar
   136    73    74    1
   137    76    77    2
   138    88   112    2
   139    89    90    2
   140    91    92    2
   141   108   110   ar
   142   124   126   ar
   143   132   133    1
   144   134   132    1
   145   135   132    1
   146   136   132    1
   147   137   138    1
   148   139   137    2
   149   140   137    2
   150   141   137    2
@<TRIPOS>SUBSTRUCTURE
     1 RES1        1 GROUP             0 ****  ****    0  
     2 RES2      132 GROUP             0 ****  ****    0  
     3 RES3      137 GROUP             0 ****  ****    0  
@<TRIPOS>CRYSIN
   12.3020   17.6980   14.2570   90.0000  114.8730   90.0000    11     1
