@<TRIPOS>MOLECULE
YACLAS
    84    88     5     0     0
SMALL
USER_CHARGES
****
Generated from the CSD

@<TRIPOS>ATOM
     1 O1      -2.9099   7.1426   5.0121   O.3       1 RES1   0.0000
     2 H1      -2.2636   7.7875   5.3129   H         1 RES1   0.0000
     3 H1A     -3.5562   7.7875   4.7114   H         1 RES1   0.0000
     4 C1      25.7711   4.6702   1.7274   C.ar      2 RES2   0.0000
     5 H2      25.3683   3.8561   1.4475   H         2 RES2   0.0000
     6 C2      25.3939   5.8468   1.1041   C.ar      2 RES2   0.0000
     7 H3      24.7330   5.8424   0.4210   H         2 RES2   0.0000
     8 C3      25.9961   7.0313   1.4940   C.ar      2 RES2   0.0000
     9 H4      25.7445   7.8532   1.0906   H         2 RES2   0.0000
    10 C4      26.9720   7.0030   2.4824   C.ar      2 RES2   0.0000
    11 H5      27.4074   7.8027   2.7547   H         2 RES2   0.0000
    12 C5      27.2982   5.7958   3.0632   C.ar      2 RES2   0.0000
    13 C6      28.3914   5.6453   4.0931   C.3       2 RES2   0.0000
    14 H6      29.0791   6.3463   3.9736   H         2 RES2   0.0000
    15 H7      28.0198   5.7179   5.0081   H         2 RES2   0.0000
    16 C7      29.8195   4.3180   2.6406   C.3       2 RES2   0.0000
    17 H8      30.7715   4.2203   2.8930   H         2 RES2   0.0000
    18 H9      29.7138   5.1916   2.1873   H         2 RES2   0.0000
    19 C8      29.4456   3.2226   1.6929   C.ar      2 RES2   0.0000
    20 C9      30.2058   2.9599   0.5622   C.ar      2 RES2   0.0000
    21 H10     31.0141   3.4345   0.4050   H         2 RES2   0.0000
    22 C10     29.7725   1.9991  -0.3332   C.ar      2 RES2   0.0000
    23 H11     30.2853   1.7877  -1.1027   H         2 RES2   0.0000
    24 C11     28.5697   1.3481  -0.0842   C.ar      2 RES2   0.0000
    25 H12     28.2344   0.7012  -0.6937   H         2 RES2   0.0000
    26 C12     27.8680   1.6578   1.0654   C.ar      2 RES2   0.0000
    27 H13     27.0427   1.2169   1.2250   H         2 RES2   0.0000
    28 C13     29.7634   3.7554   5.0212   C.3       2 RES2   0.0000
    29 H14     29.3254   3.9842   5.8782   H         2 RES2   0.0000
    30 H15     30.6781   4.1345   5.0222   H         2 RES2   0.0000
    31 C14     29.8160   2.2411   4.8395   C.3       2 RES2   0.0000
    32 H16     30.2758   2.0121   3.9917   H         2 RES2   0.0000
    33 H17     30.3123   1.8218   5.5875   H         2 RES2   0.0000
    34 C15     28.1958   0.4341   4.1583   C.3       2 RES2   0.0000
    35 H18     28.4469  -0.3019   4.7716   H         2 RES2   0.0000
    36 H19     28.7453   0.3641   3.3381   H         2 RES2   0.0000
    37 C16     26.7259   0.3604   3.8170   C.ar      2 RES2   0.0000
    38 C17     26.0174  -0.8275   3.7982   C.ar      2 RES2   0.0000
    39 H20     26.4536  -1.6515   3.9816   H         2 RES2   0.0000
    40 C18     24.6589  -0.7975   3.5067   C.ar      2 RES2   0.0000
    41 H21     24.1528  -1.6010   3.4905   H         2 RES2   0.0000
    42 C19     24.0559   0.4156   3.2390   C.ar      2 RES2   0.0000
    43 H22     23.1293   0.4569   3.0354   H         2 RES2   0.0000
    44 C20     24.8189   1.5690   3.2717   C.ar      2 RES2   0.0000
    45 H23     24.3955   2.4020   3.0955   H         2 RES2   0.0000
    46 C21     27.8526   1.7026   6.2032   C.3       2 RES2   0.0000
    47 H24     27.3601   0.8527   6.3293   H         2 RES2   0.0000
    48 H25     28.5976   1.7231   6.8546   H         2 RES2   0.0000
    49 C22     26.9330   2.8492   6.4703   C.ar      2 RES2   0.0000
    50 C23     26.4542   3.1065   7.7524   C.ar      2 RES2   0.0000
    51 H26     26.7380   2.5735   8.4866   H         2 RES2   0.0000
    52 C24     25.5645   4.1439   7.9473   C.ar      2 RES2   0.0000
    53 H27     25.2285   4.3401   8.8134   H         2 RES2   0.0000
    54 C25     25.1715   4.8949   6.8462   C.ar      2 RES2   0.0000
    55 H28     24.5619   5.6157   6.9488   H         2 RES2   0.0000
    56 C26     25.6789   4.5823   5.5984   C.ar      2 RES2   0.0000
    57 H29     25.3916   5.0918   4.8497   H         2 RES2   0.0000
    58 N1      28.9773   4.2978   3.8754   N.3       2 RES2   0.0000
    59 N2      26.1413   1.5568   3.5432   N.ar      2 RES2   0.0000
    60 N3      28.3039   2.5598   1.9710   N.ar      2 RES2   0.0000
    61 N4      26.5668   3.5835   5.3969   N.ar      2 RES2   0.0000
    62 N5      26.6820   4.6338   2.7108   N.ar      2 RES2   0.0000
    63 N6      28.4058   1.7518   4.8137   N.3       2 RES2   0.0000
    64 Fe1     27.4135   3.0675   3.6717   Fe        2 RES2   2.0000
    65 F1      -6.6007   3.7070  17.8715   F         3 RES3   0.0000
    66 F2      -6.3148   3.5134  15.6289   F         3 RES3   0.0000
    67 F3      -4.8140   4.5489  16.8903   F         3 RES3   0.0000
    68 F4      -6.2072   1.6889  16.9382   F         3 RES3   0.0000
    69 F5      -4.4008   2.5218  15.9420   F         3 RES3   0.0000
    70 F6      -4.6389   2.7163  18.1820   F         3 RES3   0.0000
    71 P1      -5.4877   3.1149  16.9262   P.3       3 RES3  -1.0000
    72 F7      -2.5866   1.6338   9.8236   F         4 RES4   0.0000
    73 F8      -3.0984   2.6356  12.8255   F         4 RES4   0.0000
    74 F9      -3.2365   3.5833  10.7789   F         4 RES4   0.0000
    75 F10     -4.3637   1.6753  11.2312   F         4 RES4   0.0000
    76 F11     -2.4262   0.6890  11.8742   F         4 RES4   0.0000
    77 F12     -1.3107   2.5883  11.4309   F         4 RES4   0.0000
    78 P2      -2.8338   2.1361  11.3236   P.3       4 RES4  -1.0000
    79 C27      0.2855   5.9112  10.4946   C.1       5 RES5   0.0000
    80 C28      1.5668   6.1278   9.8683   C.3       5 RES5   0.0000
    81 H30      2.2781   5.7954  10.4553   H         5 RES5   0.0000
    82 H31      1.6944   7.0862   9.7095   H         5 RES5   0.0000
    83 H32      1.5967   5.6486   9.0138   H         5 RES5   0.0000
    84 N7      -0.7278   5.7261  10.9906   N.1       5 RES5   0.0000
@<TRIPOS>BOND
     1     1     2    1
     2     3     1    1
     3     4     5    1
     4     6     4   ar
     5     7     6    1
     6     8     6   ar
     7     9     8    1
     8    10     8   ar
     9    11    10    1
    10    12    10   ar
    11    13    12    1
    12    14    13    1
    13    15    13    1
    14    16    17    1
    15    18    16    1
    16    19    16    1
    17    20    19   ar
    18    21    20    1
    19    22    20   ar
    20    23    22    1
    21    24    22   ar
    22    25    24    1
    23    26    24   ar
    24    27    26    1
    25    28    29    1
    26    30    28    1
    27    31    28    1
    28    32    31    1
    29    33    31    1
    30    34    35    1
    31    36    34    1
    32    37    34    1
    33    38    37   ar
    34    39    38    1
    35    40    38   ar
    36    41    40    1
    37    42    40   ar
    38    43    42    1
    39    44    42   ar
    40    45    44    1
    41    46    47    1
    42    48    46    1
    43    49    46    1
    44    50    49   ar
    45    51    50    1
    46    52    50   ar
    47    53    52    1
    48    54    52   ar
    49    55    54    1
    50    56    54   ar
    51    57    56    1
    52    58    13    1
    53    59    37   ar
    54    60    19   ar
    55    61    49   ar
    56    62     4   ar
    57    63    31    1
    58    64    58    1
    59    12    62   ar
    60    16    58    1
    61    26    60   ar
    62    28    58    1
    63    34    63    1
    64    44    59   ar
    65    46    63    1
    66    56    61   ar
    67    59    64    1
    68    60    64    1
    69    61    64    1
    70    62    64    1
    71    63    64    1
    72    65    71    1
    73    66    71    1
    74    67    71    1
    75    68    71    1
    76    69    71    1
    77    70    71    1
    78    72    78    1
    79    73    78    1
    80    74    78    1
    81    75    78    1
    82    76    78    1
    83    77    78    1
    84    79    80    1
    85    80    81    1
    86    82    80    1
    87    83    80    1
    88    84    79    3
@<TRIPOS>SUBSTRUCTURE
     1 RES1        1 GROUP             0 ****  ****    0  
     2 RES2        4 GROUP             0 ****  ****    0  
     3 RES3       65 GROUP             0 ****  ****    0  
     4 RES4       72 GROUP             0 ****  ****    0  
     5 RES5       79 GROUP             0 ****  ****    0  
@<TRIPOS>CRYSIN
   26.8257   11.7458   23.1824   90.0000  120.1380   90.0000    15     1
