@<TRIPOS>MOLECULE
YACNOH
   129   139     4     0     0
SMALL
USER_CHARGES
****
Generated from the CSD

@<TRIPOS>ATOM
     1 H1      -2.9020   8.3429   3.5648   H         1 RES1   0.0000
     2 Fe1     -1.4189   7.2025   6.5772   Fe        1 RES1   2.0000
     3 P1       0.2752   5.7187   6.3833   P.3       1 RES1   0.0000
     4 N1      -1.6575   7.3374   4.6643   N.2       1 RES1   0.0000
     5 N2      -2.7633   8.6756   6.5830   N.ar      1 RES1   0.0000
     6 N3      -2.7005   8.1765   4.3538   N.pl3     1 RES1   0.0000
     7 C1       0.2322   2.8882   6.3630   C.ar      1 RES1   0.0000
     8 H4       0.3880   2.9494   5.4485   H         1 RES1   0.0000
     9 C2       1.8768   6.3281   7.0807   C.ar      1 RES1   0.0000
    10 C3       2.2921   6.0455   8.3714   C.ar      1 RES1   0.0000
    11 H5       1.7902   5.4706   8.9029   H         1 RES1   0.0000
    12 C4       0.1007   4.0418   7.1078   C.ar      1 RES1   0.0000
    13 C5      -4.1099   9.9919   5.0750   C.ar      1 RES1   0.0000
    14 H6      -4.3844  10.1730   4.2068   H         1 RES1   0.0000
    15 C7       0.6158   5.7825   2.2810   C.ar      1 RES1   0.0000
    16 H7       0.1781   6.1654   1.5548   H         1 RES1   0.0000
    17 C8      -1.0466   6.8639   3.6132   C.2       1 RES1   0.0000
    18 H8      -1.4015   7.1147   2.7914   H         1 RES1   0.0000
    19 C9       0.1157   5.9954   3.5625   C.ar      1 RES1   0.0000
    20 C10      0.1362   1.6294   6.9613   C.ar      1 RES1   0.0000
    21 H9       0.2123   0.8588   6.4456   H         1 RES1   0.0000
    22 C11      2.6441   7.1918   6.2983   C.ar      1 RES1   0.0000
    23 H10      2.3747   7.4059   5.4354   H         1 RES1   0.0000
    24 C12      0.7857   5.4425   4.6609   C.ar      1 RES1   0.0000
    25 C13     -0.1575   3.9207   8.4862   C.ar      1 RES1   0.0000
    26 H11     -0.2788   4.6865   9.0002   H         1 RES1   0.0000
    27 C14      3.8162   7.7325   6.8166   C.ar      1 RES1   0.0000
    28 H12      4.3373   8.2891   6.2825   H         1 RES1   0.0000
    29 C18     -4.1192  10.4592   7.4217   C.ar      1 RES1   0.0000
    30 H13     -4.4182  10.9632   8.1452   H         1 RES1   0.0000
    31 C20      1.9494   4.6852   4.4217   C.ar      1 RES1   0.0000
    32 H14      2.4149   4.3293   5.1434   H         1 RES1   0.0000
    33 C21      4.2190   7.4609   8.0978   C.ar      1 RES1   0.0000
    34 H15      4.9969   7.8401   8.4372   H         1 RES1   0.0000
    35 C22     -4.5804  10.7247   6.1326   C.ar      1 RES1   0.0000
    36 H16     -5.2082  11.3963   5.9905   H         1 RES1   0.0000
    37 C23     -3.2019   8.9656   5.3486   C.ar      1 RES1   0.0000
    38 C26      1.7538   5.0131   2.0547   C.ar      1 RES1   0.0000
    39 H17      2.0669   4.8724   1.1892   H         1 RES1   0.0000
    40 C28     -0.0723   1.5340   8.3215   C.ar      1 RES1   0.0000
    41 H18     -0.1044   0.6973   8.7292   H         1 RES1   0.0000
    42 C29     -3.2188   9.4414   7.6059   C.ar      1 RES1   0.0000
    43 H19     -2.9074   9.2702   8.4662   H         1 RES1   0.0000
    44 C30     -0.2333   2.6790   9.0870   C.ar      1 RES1   0.0000
    45 H20     -0.3915   2.6117  10.0026   H         1 RES1   0.0000
    46 C32      2.4108   4.4577   3.1465   C.ar      1 RES1   0.0000
    47 H21      3.1661   3.9305   3.0150   H         1 RES1   0.0000
    48 C33      3.4525   6.6119   8.8766   C.ar      1 RES1   0.0000
    49 H22      3.7161   6.4211   9.7474   H         1 RES1   0.0000
    50 H1A      0.0641   8.3429   9.5895   H         1 RES1   0.0000
    51 P1A     -3.1130   5.7187   6.7711   P.3       1 RES1   0.0000
    52 N1A     -1.1803   7.3374   8.4901   N.2       1 RES1   0.0000
    53 N2A     -0.0745   8.6756   6.5714   N.ar      1 RES1   0.0000
    54 N3A     -0.1373   8.1765   8.8005   N.pl3     1 RES1   0.0000
    55 C1A     -3.0700   2.8882   6.7913   C.ar      1 RES1   0.0000
    56 H4A     -3.2259   2.9494   7.7058   H         1 RES1   0.0000
    57 C2A     -4.7147   6.3281   6.0736   C.ar      1 RES1   0.0000
    58 C3A     -5.1299   6.0455   4.7829   C.ar      1 RES1   0.0000
    59 H5A     -4.6281   5.4706   4.2515   H         1 RES1   0.0000
    60 C4A     -2.9385   4.0418   6.0465   C.ar      1 RES1   0.0000
    61 C5A      1.2721   9.9919   8.0794   C.ar      1 RES1   0.0000
    62 H6A      1.5466  10.1730   8.9476   H         1 RES1   0.0000
    63 C7A     -3.4536   5.7825  10.8734   C.ar      1 RES1   0.0000
    64 H7A     -3.0160   6.1654  11.5995   H         1 RES1   0.0000
    65 C8A     -1.7912   6.8639   9.5411   C.2       1 RES1   0.0000
    66 H8A     -1.4363   7.1147  10.3630   H         1 RES1   0.0000
    67 C9A     -2.9535   5.9954   9.5919   C.ar      1 RES1   0.0000
    68 C10A    -2.9741   1.6294   6.1931   C.ar      1 RES1   0.0000
    69 H9A     -3.0501   0.8588   6.7087   H         1 RES1   0.0000
    70 C11A    -5.4819   7.1918   6.8561   C.ar      1 RES1   0.0000
    71 H10A    -5.2125   7.4059   7.7190   H         1 RES1   0.0000
    72 C12A    -3.6236   5.4425   8.4935   C.ar      1 RES1   0.0000
    73 C13A    -2.6803   3.9207   4.6682   C.ar      1 RES1   0.0000
    74 H11A    -2.5590   4.6865   4.1542   H         1 RES1   0.0000
    75 C14A    -6.6540   7.7325   6.3378   C.ar      1 RES1   0.0000
    76 H12A    -7.1751   8.2891   6.8718   H         1 RES1   0.0000
    77 C18A     1.2814  10.4592   5.7327   C.ar      1 RES1   0.0000
    78 H13A     1.5803  10.9632   5.0092   H         1 RES1   0.0000
    79 C20A    -4.7872   4.6852   8.7327   C.ar      1 RES1   0.0000
    80 H14A    -5.2527   4.3293   8.0110   H         1 RES1   0.0000
    81 C21A    -7.0568   7.4609   5.0565   C.ar      1 RES1   0.0000
    82 H15A    -7.8347   7.8401   4.7172   H         1 RES1   0.0000
    83 C22A     1.7425  10.7247   7.0218   C.ar      1 RES1   0.0000
    84 H16A     2.3704  11.3963   7.1639   H         1 RES1   0.0000
    85 C23A     0.3641   8.9656   7.8058   C.ar      1 RES1   0.0000
    86 C26A    -4.5917   5.0131  11.0997   C.ar      1 RES1   0.0000
    87 H17A    -4.9047   4.8724  11.9652   H         1 RES1   0.0000
    88 C28A    -2.7655   1.5340   4.8329   C.ar      1 RES1   0.0000
    89 H18A    -2.7335   0.6973   4.4251   H         1 RES1   0.0000
    90 C29A     0.3810   9.4414   5.5485   C.ar      1 RES1   0.0000
    91 H19A     0.0696   9.2702   4.6882   H         1 RES1   0.0000
    92 C30A    -2.6045   2.6790   4.0673   C.ar      1 RES1   0.0000
    93 H20A    -2.4463   2.6117   3.1518   H         1 RES1   0.0000
    94 C32A    -5.2487   4.4577  10.0078   C.ar      1 RES1   0.0000
    95 H21A    -6.0039   3.9305  10.1394   H         1 RES1   0.0000
    96 C33A    -6.2904   6.6119   4.2778   C.ar      1 RES1   0.0000
    97 H22A    -6.5539   6.4211   3.4070   H         1 RES1   0.0000
    98 H2      -2.1785  10.3736   2.1310   H         2 RES2   0.0000
    99 H3       3.4682  11.6825  -0.5262   H         2 RES2   0.0000
   100 Cl1      0.1631  13.4198   2.7458   Cl        2 RES2   0.0000
   101 Cl3      1.6905   8.3066  -0.5877   Cl        2 RES2   0.0000
   102 O1      -1.5171  11.0048   2.3857   O.3       2 RES2   0.0000
   103 O2      -0.7400   8.7906   1.0142   O.2       2 RES2   0.0000
   104 O3       2.5038  12.9792   1.0234   O.2       2 RES2   0.0000
   105 O4       3.1948  10.8238  -0.4778   O.3       2 RES2   0.0000
   106 C15      1.7356  12.0360   1.0260   C.2       2 RES2   0.0000
   107 C16     -0.3665  10.9926   1.7469   C.2       2 RES2   0.0000
   108 C17      0.4960  12.0312   1.7995   C.2       2 RES2   0.0000
   109 C24      2.0582  10.8213   0.2026   C.2       2 RES2   0.0000
   110 C25      1.2490   9.7509   0.2289   C.2       2 RES2   0.0000
   111 C31      0.0033   9.7473   0.9734   C.2       2 RES2   0.0000
   112 Cl2      4.0442   5.7921  -1.1439   Cl        3 RES3   0.0000
   113 O5       4.4713   0.7548  -1.1778   O.3       3 RES3  -1.0000
   114 O6       3.3886   3.0069  -2.0268   O.2       3 RES3   0.0000
   115 C6       4.2400   3.1060  -1.0994   C.2       3 RES3   0.0000
   116 C19      4.8073   1.7762  -0.5709   C.2       3 RES3   0.0000
   117 C27      4.6728   4.2889  -0.5427   C.2       3 RES3   0.0000
   118 Cl2F     6.3098   0.3244   1.1439   Cl        3 RES3   0.0000
   119 O5F      5.8827   5.3617   1.1778   O.3       3 RES3  -1.0000
   120 O6F      6.9654   3.1096   2.0268   O.2       3 RES3   0.0000
   121 C6F      6.1140   3.0105   1.0994   C.2       3 RES3   0.0000
   122 C19F     5.5467   4.3403   0.5709   C.2       3 RES3   0.0000
   123 C27F     5.6812   1.8276   0.5427   C.2       3 RES3   0.0000
   124 C34      3.3624   8.6585   2.6809   C.1       4 RES4   0.0000
   125 C35      4.5556   8.1533   2.1126   C.3       4 RES4   0.0000
   126 H23      4.9471   7.5074   2.7072   H         4 RES4   0.0000
   127 H24      5.1743   8.8738   1.9705   H         4 RES4   0.0000
   128 H25      4.3582   7.7337   1.2707   H         4 RES4   0.0000
   129 N4       2.3857   9.0059   3.0808   N.1       4 RES4   0.0000
@<TRIPOS>BOND
     1     1     6    1
     2     2     3    1
     3     3     9    1
     4     4     2    1
     5     5     2    1
     6     6     4    1
     7     7     8    1
     8     9    10   ar
     9    10    11    1
    10    12     3    1
    11    13    14    1
    12    15    16    1
    13    17     4    2
    14    18    17    1
    15    19    15   ar
    16    20     7   ar
    17    21    20    1
    18    22     9   ar
    19    23    22    1
    20    24     3    1
    21    25    12   ar
    22    26    25    1
    23    27    22   ar
    24    28    27    1
    25    29    30    1
    26    31    24   ar
    27    32    31    1
    28    33    27   ar
    29    34    33    1
    30    35    13   ar
    31    36    35    1
    32    37     5   ar
    33    38    15   ar
    34    39    38    1
    35    40    20   ar
    36    41    40    1
    37    42     5   ar
    38    43    42    1
    39    44    25   ar
    40    45    44    1
    41    46    31   ar
    42    47    46    1
    43    48    10   ar
    44    49    48    1
    45    50    54    1
    46    51     2    1
    47    52     2    1
    48    53     2    1
    49    54    52    1
    50    55    56    1
    51    57    51    1
    52    58    57   ar
    53    59    58    1
    54    60    51    1
    55    61    62    1
    56    63    64    1
    57    65    52    2
    58    66    65    1
    59    67    63   ar
    60    68    55   ar
    61    69    68    1
    62    70    57   ar
    63    71    70    1
    64    72    51    1
    65    73    60   ar
    66    74    73    1
    67    75    70   ar
    68    76    75    1
    69    77    78    1
    70    79    72   ar
    71    80    79    1
    72    81    75   ar
    73    82    81    1
    74    83    61   ar
    75    84    83    1
    76    85    53   ar
    77    86    63   ar
    78    87    86    1
    79    88    68   ar
    80    89    88    1
    81    90    53   ar
    82    91    90    1
    83    92    73   ar
    84    93    92    1
    85    94    79   ar
    86    95    94    1
    87    96    58   ar
    88    97    96    1
    89     6    37    1
    90     7    12   ar
    91    13    37   ar
    92    17    19    1
    93    19    24   ar
    94    29    35   ar
    95    29    42   ar
    96    33    48   ar
    97    38    46   ar
    98    40    44   ar
    99    54    85    1
   100    55    60   ar
   101    61    85   ar
   102    65    67    1
   103    67    72   ar
   104    77    83   ar
   105    77    90   ar
   106    81    96   ar
   107    86    94   ar
   108    88    92   ar
   109    98   102    1
   110    99   105    1
   111   100   108    1
   112   101   110    1
   113   102   107    1
   114   103   111    2
   115   104   106    2
   116   105   109    1
   117   106   108    1
   118   107   108    2
   119   109   106    1
   120   110   109    2
   121   111   107    1
   122   110   111    1
   123   112   117    1
   124   113   116    1
   125   114   115    2
   126   115   116    1
   127   116   123    2
   128   117   115    1
   129   118   123    1
   130   119   122    1
   131   120   121    2
   132   121   122    1
   133   122   117    2
   134   123   121    1
   135   124   125    1
   136   125   126    1
   137   127   125    1
   138   128   125    1
   139   129   124    3
@<TRIPOS>SUBSTRUCTURE
     1 RES1        1 GROUP             0 ****  ****    0  
     2 RES2       98 GROUP             0 ****  ****    0  
     3 RES3      112 GROUP             0 ****  ****    0  
     4 RES4      124 GROUP             0 ****  ****    0  
@<TRIPOS>CRYSIN
   20.7080   12.2330   26.9140   90.0000  102.1740   90.0000    15     1
