@<TRIPOS>MOLECULE
YACNEX
   120   129     4     0     0
SMALL
USER_CHARGES
****
Generated from the CSD

@<TRIPOS>ATOM
     1 Fe1      5.0394  12.7305   4.5956   Fe        1 RES1   2.0000
     2 P1       4.6862  10.5404   5.0340   P.3       1 RES1   0.0000
     3 P2       3.8932  12.7840   2.6593   P.3       1 RES1   0.0000
     4 N1       5.9753  12.8682   6.3602   N.ar      1 RES1   0.0000
     5 N2       3.8342  13.3913   7.0026   N.pl3     1 RES1   0.0000
     6 N3       3.5167  13.2938   5.6533   N.2       1 RES1   0.0000
     7 N4       5.5535  14.6444   4.3022   N.ar      1 RES1   0.0000
     8 N5       7.3383  13.5913   3.3245   N.pl3     1 RES1   0.0000
     9 N6       6.7254  12.4185   3.6879   N.2       1 RES1   0.0000
    10 C1       7.2760  12.6989   6.6586   C.ar      1 RES1   0.0000
    11 C2       7.7627  12.8066   7.9286   C.ar      1 RES1   0.0000
    12 C3       6.8922  13.1331   8.9484   C.ar      1 RES1   0.0000
    13 C4       5.5510  13.3349   8.6831   C.ar      1 RES1   0.0000
    14 C5       5.1387  13.1861   7.3566   C.ar      1 RES1   0.0000
    15 C6       2.3253  13.7247   5.3865   C.2       1 RES1   0.0000
    16 C7       1.6957  13.8888   4.0752   C.ar      1 RES1   0.0000
    17 C8       0.4396  14.5077   4.1122   C.ar      1 RES1   0.0000
    18 C9      -0.2521  14.8034   2.9705   C.ar      1 RES1   0.0000
    19 C10      0.2831  14.4906   1.7484   C.ar      1 RES1   0.0000
    20 C11      1.5262  13.8837   1.6701   C.ar      1 RES1   0.0000
    21 C12      2.2539  13.5537   2.8313   C.ar      1 RES1   0.0000
    22 C13      4.6832  13.8837   1.4287   C.ar      1 RES1   0.0000
    23 C14      4.3128  15.2223   1.3048   C.ar      1 RES1   0.0000
    24 C15      4.9067  16.0463   0.3675   C.ar      1 RES1   0.0000
    25 C16      5.9050  15.5642  -0.4371   C.ar      1 RES1   0.0000
    26 C17      6.3294  14.2598  -0.3023   C.ar      1 RES1   0.0000
    27 C18      5.7211  13.4221   0.6263   C.ar      1 RES1   0.0000
    28 C19      3.5742  11.2611   1.6810   C.ar      1 RES1   0.0000
    29 C20      2.3018  10.8850   1.2591   C.ar      1 RES1   0.0000
    30 C21      2.1150   9.7875   0.4327   C.ar      1 RES1   0.0000
    31 C22      3.1918   9.0506   0.0087   C.ar      1 RES1   0.0000
    32 C23      4.4782   9.3840   0.4545   C.ar      1 RES1   0.0000
    33 C24      4.6586  10.4679   1.2808   C.ar      1 RES1   0.0000
    34 C25      4.9524  15.7882   4.6928   C.ar      1 RES1   0.0000
    35 C26      5.4886  17.0225   4.4818   C.ar      1 RES1   0.0000
    36 C27      6.7128  17.1251   3.8251   C.ar      1 RES1   0.0000
    37 C28      7.3572  15.9865   3.4141   C.ar      1 RES1   0.0000
    38 C29      6.7459  14.7556   3.6751   C.ar      1 RES1   0.0000
    39 C30      7.4279  11.3552   3.4076   C.2       1 RES1   0.0000
    40 C31      7.1583   9.9789   3.7512   C.ar      1 RES1   0.0000
    41 C32      8.1914   9.0882   3.3902   C.ar      1 RES1   0.0000
    42 C33      8.1410   7.7513   3.7120   C.ar      1 RES1   0.0000
    43 C34      7.0766   7.2709   4.4427   C.ar      1 RES1   0.0000
    44 C35      6.0444   8.1274   4.8189   C.ar      1 RES1   0.0000
    45 C36      6.0612   9.4729   4.4688   C.ar      1 RES1   0.0000
    46 C37      4.6614  10.1054   6.8239   C.ar      1 RES1   0.0000
    47 C38      5.8809   9.8011   7.4610   C.ar      1 RES1   0.0000
    48 C39      5.8934   9.4661   8.8049   C.ar      1 RES1   0.0000
    49 C40      4.7354   9.4387   9.5312   C.ar      1 RES1   0.0000
    50 C41      3.5412   9.7584   8.9376   C.ar      1 RES1   0.0000
    51 C42      3.4870  10.0969   7.5806   C.ar      1 RES1   0.0000
    52 C43      3.1468   9.7242   4.4253   C.ar      1 RES1   0.0000
    53 C44      3.1581   8.5600   3.6751   C.ar      1 RES1   0.0000
    54 C45      1.9720   7.9719   3.2510   C.ar      1 RES1   0.0000
    55 C46      0.7571   8.5754   3.5707   C.ar      1 RES1   0.0000
    56 C47      0.7381   9.7379   4.2883   C.ar      1 RES1   0.0000
    57 C48      1.9185  10.3191   4.7232   C.ar      1 RES1   0.0000
    58 H1       7.8805  12.4938   5.9562   H         1 RES1   0.0000
    59 H2       8.6841  12.6596   8.1069   H         1 RES1   0.0000
    60 H3       7.2172  13.2220   9.8379   H         1 RES1   0.0000
    61 H4       4.9360  13.5623   9.3725   H         1 RES1   0.0000
    62 H5       1.7925  13.9640   6.1345   H         1 RES1   0.0000
    63 H6       0.0571  14.7282   4.9537   H         1 RES1   0.0000
    64 H7      -1.1014  15.2257   3.0249   H         1 RES1   0.0000
    65 H8      -0.1981  14.6889   0.9525   H         1 RES1   0.0000
    66 H9       1.8949  13.6853   0.8176   H         1 RES1   0.0000
    67 H10      3.6399  15.5745   1.8767   H         1 RES1   0.0000
    68 H11      4.6202  16.9473   0.2827   H         1 RES1   0.0000
    69 H12      6.3050  16.1301  -1.0873   H         1 RES1   0.0000
    70 H13      7.0379  13.9332  -0.8437   H         1 RES1   0.0000
    71 H14      6.0193  12.5228   0.7111   H         1 RES1   0.0000
    72 H15      1.5487  11.3876   1.5440   H         1 RES1   0.0000
    73 H16      1.2374   9.5464   0.1587   H         1 RES1   0.0000
    74 H17      3.0654   8.3189  -0.5850   H         1 RES1   0.0000
    75 H18      5.2258   8.8609   0.1848   H         1 RES1   0.0000
    76 H19      5.5328  10.6833   1.5853   H         1 RES1   0.0000
    77 H20      4.1143  15.7300   5.1364   H         1 RES1   0.0000
    78 H21      5.0338  17.8021   4.7776   H         1 RES1   0.0000
    79 H22      7.0997  17.9782   3.6642   H         1 RES1   0.0000
    80 H23      8.1932  16.0309   2.9640   H         1 RES1   0.0000
    81 H24      8.2241  11.5073   2.9096   H         1 RES1   0.0000
    82 H25      8.9419   9.4216   2.9118   H         1 RES1   0.0000
    83 H26      8.8345   7.1649   3.4315   H         1 RES1   0.0000
    84 H27      7.0457   6.3546   4.6906   H         1 RES1   0.0000
    85 H28      5.3165   7.7855   5.3234   H         1 RES1   0.0000
    86 H29      6.6929   9.8251   6.9674   H         1 RES1   0.0000
    87 H30      6.7171   9.2541   9.2290   H         1 RES1   0.0000
    88 H31      4.7588   9.1976  10.4489   H         1 RES1   0.0000
    89 H32      2.7433   9.7498   9.4508   H         1 RES1   0.0000
    90 H33      2.6578  10.3209   7.1762   H         1 RES1   0.0000
    91 H34      3.9875   8.1582   3.4467   H         1 RES1   0.0000
    92 H35      1.9888   7.1666   2.7487   H         1 RES1   0.0000
    93 H36     -0.0583   8.1770   3.2880   H         1 RES1   0.0000
    94 H37     -0.0931  10.1499   4.4905   H         1 RES1   0.0000
    95 H38      1.8926  11.1244   5.2255   H         1 RES1   0.0000
    96 H46      3.1685  13.4033   7.5676   H         1 RES1   0.0000
    97 H47      8.0988  13.5742   3.0227   H         1 RES1   0.0000
    98 Cl1      3.5714   1.7797   2.0774   Cl        2 RES2   0.0000
    99 Cl2      1.3381   6.2380  -1.8454   Cl        2 RES2   0.0000
   100 O1       1.9915   4.2090   2.7667   O.2       2 RES2   0.0000
   101 O2       0.7411   5.8332   1.0721   O.3       2 RES2  -1.0000
   102 O3       3.0946   3.9389  -2.5240   O.2       2 RES2   0.0000
   103 O4       3.8168   1.9267  -0.9098   O.3       2 RES2  -1.0000
   104 C49      2.9371   3.0038   0.9960   C.2       2 RES2   0.0000
   105 C50      2.1962   4.0329   1.5374   C.2       2 RES2   0.0000
   106 C51      1.5544   5.0382   0.5828   C.2       2 RES2   0.0000
   107 C52      1.9608   5.0211  -0.7633   C.2       2 RES2   0.0000
   108 C53      2.7457   4.0124  -1.3222   C.2       2 RES2   0.0000
   109 C54      3.2169   2.8704  -0.3849   C.2       2 RES2   0.0000
   110 O5       5.0538   6.0947  -0.0718   O.3       3 RES3   0.0000
   111 C55      5.2736   6.1033   1.3896   C.3       3 RES3   0.0000
   112 H39      4.6364   6.7187   1.8114   H         3 RES3   0.0000
   113 H40      6.1874   6.3990   1.5809   H         3 RES3   0.0000
   114 H41      5.1393   5.2006   1.7462   H         3 RES3   0.0000
   115 O6      10.2090  12.2886   5.1603   O.3       4 RES4   0.0000
   116 C56     11.1840  12.3365   5.9693   C.3       4 RES4   0.0000
   117 H42     10.2565  11.5569   4.6319   H         4 RES4   0.0000
   118 H43     10.9480  11.8612   6.7934   H         4 RES4   0.0000
   119 H44     11.3909  13.2699   6.1802   H         4 RES4   0.0000
   120 H45     11.9682  11.9108   5.5604   H         4 RES4   0.0000
@<TRIPOS>BOND
     1     1     2    1
     2     2    45    1
     3     3     1    1
     4     4     1    1
     5     5     6    1
     6     6     1    1
     7     7     1    1
     8     8     9    1
     9     9     1    1
    10    10     4   ar
    11    11    10   ar
    12    12    11   ar
    13    13    12   ar
    14    14     4   ar
    15    15     6    2
    16    16    15    1
    17    17    16   ar
    18    18    17   ar
    19    19    18   ar
    20    20    19   ar
    21    21     3    1
    22    22     3    1
    23    23    22   ar
    24    24    23   ar
    25    25    24   ar
    26    26    25   ar
    27    27    22   ar
    28    28     3    1
    29    29    28   ar
    30    30    29   ar
    31    31    30   ar
    32    32    31   ar
    33    33    28   ar
    34    34     7   ar
    35    35    34   ar
    36    36    35   ar
    37    37    36   ar
    38    38     7   ar
    39    39     9    2
    40    40    39    1
    41    41    40   ar
    42    42    41   ar
    43    43    42   ar
    44    44    43   ar
    45    45    40   ar
    46    46     2    1
    47    47    46   ar
    48    48    47   ar
    49    49    48   ar
    50    50    49   ar
    51    51    46   ar
    52    52     2    1
    53    53    52   ar
    54    54    53   ar
    55    55    54   ar
    56    56    55   ar
    57    57    52   ar
    58    58    10    1
    59    59    11    1
    60    60    12    1
    61    61    13    1
    62    62    15    1
    63    63    17    1
    64    64    18    1
    65    65    19    1
    66    66    20    1
    67    67    23    1
    68    68    24    1
    69    69    25    1
    70    70    26    1
    71    71    27    1
    72    72    29    1
    73    73    30    1
    74    74    31    1
    75    75    32    1
    76    76    33    1
    77    77    34    1
    78    78    35    1
    79    79    36    1
    80    80    37    1
    81    81    39    1
    82    82    41    1
    83    83    42    1
    84    84    43    1
    85    85    44    1
    86    86    47    1
    87    87    48    1
    88    88    49    1
    89    89    50    1
    90    90    51    1
    91    91    53    1
    92    92    54    1
    93    93    55    1
    94    94    56    1
    95    95    57    1
    96    96     5    1
    97    97     8    1
    98     5    14    1
    99     8    38    1
   100    13    14   ar
   101    16    21   ar
   102    20    21   ar
   103    26    27   ar
   104    32    33   ar
   105    37    38   ar
   106    44    45   ar
   107    50    51   ar
   108    56    57   ar
   109    98   104    1
   110    99   107    1
   111   100   105    2
   112   101   106    1
   113   102   108    2
   114   103   109    1
   115   104   105    1
   116   105   106    1
   117   106   107    2
   118   107   108    1
   119   108   109    1
   120   109   104    2
   121   110   111    1
   122   111   112    1
   123   113   111    1
   124   114   111    1
   125   115   116    1
   126   116   118    1
   127   117   115    1
   128   119   116    1
   129   120   116    1
@<TRIPOS>SUBSTRUCTURE
     1 RES1        1 GROUP             0 ****  ****    0  
     2 RES2       98 GROUP             0 ****  ****    0  
     3 RES3      110 GROUP             0 ****  ****    0  
     4 RES4      115 GROUP             0 ****  ****    0  
@<TRIPOS>CRYSIN
   12.9900   17.0960   22.5920   90.0000  105.7300   90.0000   231     1
