@<TRIPOS>MOLECULE
YACPAU
    95   103     3     0     0
SMALL
USER_CHARGES
****
Generated from the CSD

@<TRIPOS>ATOM
     1 Fe1     12.1400   5.2833  16.7178   Fe        1 RES1   2.0000
     2 N1      11.5906   3.8528  17.7634   N.ar      1 RES1   0.0000
     3 C1      10.8968   3.9618  18.9643   C.ar      1 RES1   0.0000
     4 C2      10.3707   2.8261  19.5683   C.ar      1 RES1   0.0000
     5 H1       9.8955   2.9017  20.3891   H         1 RES1   0.0000
     6 C3      10.5379   1.5815  18.9750   C.ar      1 RES1   0.0000
     7 H2      10.1795   0.8050  19.3890   H         1 RES1   0.0000
     8 C4      11.2315   1.4713  17.7760   C.ar      1 RES1   0.0000
     9 H3      11.3465   0.6205  17.3691   H         1 RES1   0.0000
    10 C5      11.7578   2.6069  17.1702   C.ar      1 RES1   0.0000
    11 N2      12.7108   3.9345  15.6414   N.ar      1 RES1   0.0000
    12 C6      12.5089   2.6020  15.9801   C.ar      1 RES1   0.0000
    13 C7      12.9885   1.5939  15.1503   C.ar      1 RES1   0.0000
    14 H4      12.8506   0.6836  15.3797   H         1 RES1   0.0000
    15 C8      13.6683   1.9196  13.9817   C.ar      1 RES1   0.0000
    16 H5      13.9943   1.2322  13.4135   H         1 RES1   0.0000
    17 C9      13.8702   3.2534  13.6429   C.ar      1 RES1   0.0000
    18 H6      14.3341   3.4763  12.8454   H         1 RES1   0.0000
    19 C10     13.3906   4.2602  14.4728   C.ar      1 RES1   0.0000
    20 N3      13.8054   5.3922  17.7383   N.ar      1 RES1   0.0000
    21 C11     14.9693   4.6664  17.5161   C.ar      1 RES1   0.0000
    22 H7      15.0240   4.0720  16.7777   H         1 RES1   0.0000
    23 C12     16.0552   4.8126  18.3728   C.ar      1 RES1   0.0000
    24 H8      16.8501   4.3172  18.2187   H         1 RES1   0.0000
    25 C13     15.9755   5.6832  19.4518   C.ar      1 RES1   0.0000
    26 H9      16.7156   5.7835  20.0379   H         1 RES1   0.0000
    27 C14     14.8097   6.4089  19.6758   C.ar      1 RES1   0.0000
    28 H10     14.7550   7.0034  20.4142   H         1 RES1   0.0000
    29 C15     13.7255   6.2628  18.8191   C.ar      1 RES1   0.0000
    30 N4      10.4283   5.4281  15.6880   N.ar      1 RES1   0.0000
    31 C16      9.2794   4.6999  15.9747   C.ar      1 RES1   0.0000
    32 H11      9.3029   4.0125  16.6307   H         1 RES1   0.0000
    33 C17      8.0931   4.9798  15.3044   C.ar      1 RES1   0.0000
    34 H12      7.3088   4.4832  15.5016   H         1 RES1   0.0000
    35 C18      8.0575   5.9866  14.3473   C.ar      1 RES1   0.0000
    36 H13      7.2479   6.1773  13.8885   H         1 RES1   0.0000
    37 C19      9.2065   6.7136  14.0588   C.ar      1 RES1   0.0000
    38 H14      9.1829   7.4009  13.4046   H         1 RES1   0.0000
    39 C20     10.3928   6.4337  14.7291   C.ar      1 RES1   0.0000
    40 C21     10.0759   8.5700  19.0593   C.ar      1 RES1   0.0000
    41 C22      9.1550   8.3062  20.0647   C.ar      1 RES1   0.0000
    42 H15      8.6194   7.5210  20.0253   H         1 RES1   0.0000
    43 C23      9.0150   9.1892  21.1294   C.ar      1 RES1   0.0000
    44 H16      8.3864   9.0084  21.8176   H         1 RES1   0.0000
    45 C24      9.7979  10.3360  21.1867   C.ar      1 RES1   0.0000
    46 H17      9.7032  10.9404  21.9144   H         1 RES1   0.0000
    47 C25     10.7189  10.6010  20.1812   C.ar      1 RES1   0.0000
    48 H18     11.2528  11.3850  20.2207   H         1 RES1   0.0000
    49 C26     10.8589   9.7180  19.1166   C.ar      1 RES1   0.0000
    50 H19     11.4875   9.8989  18.4284   H         1 RES1   0.0000
    51 C27     14.2051   8.4363  14.2828   C.ar      1 RES1   0.0000
    52 C28     13.5149   9.6326  14.1358   C.ar      1 RES1   0.0000
    53 H20     12.9120   9.9199  14.8097   H         1 RES1   0.0000
    54 C29     13.7077  10.4103  12.9995   C.ar      1 RES1   0.0000
    55 H21     13.2375  11.2289  12.8991   H         1 RES1   0.0000
    56 C30     14.5923   9.9917  12.0120   C.ar      1 RES1   0.0000
    57 H22     14.7235  10.5230  11.2359   H         1 RES1   0.0000
    58 C31     15.2823   8.7942  12.1607   C.ar      1 RES1   0.0000
    59 H23     15.8854   8.5068  11.4850   H         1 RES1   0.0000
    60 C32     15.0879   8.0164  13.2952   C.ar      1 RES1   0.0000
    61 H24     15.5596   7.1978  13.3974   H         1 RES1   0.0000
    62 N5      11.3975   6.5006  18.2975   N.3       1 RES1   0.0000
    63 N6      12.8752   6.4424  15.1485   N.3       1 RES1   0.0000
    64 C33     11.0816   5.3798  19.4571   C.3       1 RES1   0.0000
    65 H25     11.8261   5.3885  20.1095   H         1 RES1   0.0000
    66 H26     10.2614   5.6522  19.9393   H         1 RES1   0.0000
    67 C34     13.7604   5.6869  14.3366   C.3       1 RES1   0.0000
    68 H27     14.6970   5.8269  14.6305   H         1 RES1   0.0000
    69 H28     13.6837   5.9705  13.3920   H         1 RES1   0.0000
    70 C35     12.5946   7.1285  18.8567   C.3       1 RES1   0.0000
    71 H29     12.7989   7.9508  18.3459   H         1 RES1   0.0000
    72 H30     12.4158   7.3898  19.7941   H         1 RES1   0.0000
    73 C36     10.3805   7.7390  17.9086   C.3       1 RES1   0.0000
    74 H31     10.7977   8.2951  17.2042   H         1 RES1   0.0000
    75 H32      9.5380   7.3662  17.5430   H         1 RES1   0.0000
    76 C37     11.7144   7.1520  14.5570   C.3       1 RES1   0.0000
    77 H33     11.8810   7.2808  13.5910   H         1 RES1   0.0000
    78 H34     11.6449   8.0486  14.9710   H         1 RES1   0.0000
    79 C38     13.9323   7.3960  15.4263   C.3       1 RES1   0.0000
    80 H35     14.7687   6.8969  15.6037   H         1 RES1   0.0000
    81 H36     13.7008   7.8913  16.2525   H         1 RES1   0.0000
    82 P1      18.0132   4.7271  14.6000   P.3       2 RES2  -1.0000
    83 F1      19.0179   4.3667  15.8080   F         2 RES2   0.0000
    84 F2      18.5965   3.4936  13.7505   F         2 RES2   0.0000
    85 F3      17.2934   5.2906  13.4117   F         2 RES2   0.0000
    86 F4      17.5133   5.9235  15.4872   F         2 RES2   0.0000
    87 F5      16.8977   3.8082  15.1682   F         2 RES2   0.0000
    88 F6      19.0525   5.5928  13.9154   F         2 RES2   0.0000
    89 P2      23.3585   4.7234  18.8388   P.3       3 RES3  -1.0000
    90 F7      24.5600   3.9073  18.3316   F         3 RES3   0.0000
    91 F8      22.5422   4.2119  17.6380   F         3 RES3   0.0000
    92 F9      22.0309   5.6188  19.2761   F         3 RES3   0.0000
    93 F10     24.2907   5.1853  20.0343   F         3 RES3   0.0000
    94 F11     22.7726   3.5097  19.6202   F         3 RES3   0.0000
    95 F12     24.0166   5.9557  18.0430   F         3 RES3   0.0000
@<TRIPOS>BOND
     1     1     2    1
     2     2     3   ar
     3     3     4   ar
     4     4     5    1
     5     6     4   ar
     6     7     6    1
     7     8     6   ar
     8     9     8    1
     9    10     2   ar
    10    11     1    1
    11    12    10    1
    12    13    12   ar
    13    14    13    1
    14    15    13   ar
    15    16    15    1
    16    17    15   ar
    17    18    17    1
    18    19    11   ar
    19    20     1    1
    20    21    20   ar
    21    22    21    1
    22    23    21   ar
    23    24    23    1
    24    25    23   ar
    25    26    25    1
    26    27    25   ar
    27    28    27    1
    28    29    20   ar
    29    30     1    1
    30    31    30   ar
    31    32    31    1
    32    33    31   ar
    33    34    33    1
    34    35    33   ar
    35    36    35    1
    36    37    35   ar
    37    38    37    1
    38    39    30   ar
    39    40    41   ar
    40    41    42    1
    41    43    41   ar
    42    44    43    1
    43    45    43   ar
    44    46    45    1
    45    47    45   ar
    46    48    47    1
    47    49    40   ar
    48    50    49    1
    49    51    52   ar
    50    52    53    1
    51    54    52   ar
    52    55    54    1
    53    56    54   ar
    54    57    56    1
    55    58    56   ar
    56    59    58    1
    57    60    51   ar
    58    61    60    1
    59    62     1    1
    60    63     1    1
    61    64     3    1
    62    65    64    1
    63    66    64    1
    64    67    19    1
    65    68    67    1
    66    69    67    1
    67    70    29    1
    68    71    70    1
    69    72    70    1
    70    73    40    1
    71    74    73    1
    72    75    73    1
    73    76    39    1
    74    77    76    1
    75    78    76    1
    76    79    51    1
    77    80    79    1
    78    81    79    1
    79     8    10   ar
    80    11    12   ar
    81    17    19   ar
    82    27    29   ar
    83    37    39   ar
    84    47    49   ar
    85    58    60   ar
    86    62    64    1
    87    62    70    1
    88    62    73    1
    89    63    67    1
    90    63    76    1
    91    63    79    1
    92    82    83    1
    93    84    82    1
    94    85    82    1
    95    86    82    1
    96    87    82    1
    97    88    82    1
    98    89    90    1
    99    91    89    1
   100    92    89    1
   101    93    89    1
   102    94    89    1
   103    95    89    1
@<TRIPOS>SUBSTRUCTURE
     1 RES1        1 GROUP             0 ****  ****    0  
     2 RES2       82 GROUP             0 ****  ****    0  
     3 RES3       89 GROUP             0 ****  ****    0  
@<TRIPOS>CRYSIN
   17.1997   12.3844   18.0384   90.0000   96.4860   90.0000     9     1
