@<TRIPOS>MOLECULE
YACPAU01
    88    97     2     0     0
SMALL
USER_CHARGES
****
Generated from the CSD

@<TRIPOS>ATOM
     1 Fe1      8.0904  11.4755   4.4807   Fe        1 RES1   2.0000
     2 N1       7.5295  10.0859   5.5418   N.ar      1 RES1   0.0000
     3 C1       6.8444  10.3038   6.7265   C.ar      1 RES1   0.0000
     4 C2       6.3398   9.2313   7.4434   C.ar      1 RES1   0.0000
     5 H1       5.8712   9.3812   8.2517   H         1 RES1   0.0000
     6 C3       6.5252   7.9434   6.9774   C.ar      1 RES1   0.0000
     7 H2       6.1822   7.2102   7.4685   H         1 RES1   0.0000
     8 C4       7.2120   7.7254   5.7927   C.ar      1 RES1   0.0000
     9 H3       7.3375   6.8436   5.4755   H         1 RES1   0.0000
    10 C5       7.7149   8.7966   5.0758   C.ar      1 RES1   0.0000
    11 N2       9.7799  11.6017   5.5059   N.ar      1 RES1   0.0000
    12 C6      10.9354  10.8760   5.2514   C.ar      1 RES1   0.0000
    13 H4      10.9510  10.2345   4.5542   H         1 RES1   0.0000
    14 C7      12.0715  11.0890   6.0149   C.ar      1 RES1   0.0000
    15 H5      12.8620  10.5924   5.8393   H         1 RES1   0.0000
    16 C8      12.0486  12.0277   7.0330   C.ar      1 RES1   0.0000
    17 H6      12.8250  12.1726   7.5563   H         1 RES1   0.0000
    18 C9      10.8912  12.7535   7.2893   C.ar      1 RES1   0.0000
    19 H7      10.8773  13.3950   7.9865   H         1 RES1   0.0000
    20 C10      9.7568  12.5404   6.5257   C.ar      1 RES1   0.0000
    21 C11      6.0268  14.6953   6.8681   C.ar      1 RES1   0.0000
    22 C12      5.1241  14.3535   7.8646   C.ar      1 RES1   0.0000
    23 H8       4.6212  13.5510   7.7947   H         1 RES1   0.0000
    24 C13      4.9560  15.1833   8.9651   C.ar      1 RES1   0.0000
    25 H9       4.3419  14.9504   9.6461   H         1 RES1   0.0000
    26 C14      5.6940  16.3561   9.0690   C.ar      1 RES1   0.0000
    27 H10      5.5811  16.9245   9.8200   H         1 RES1   0.0000
    28 C15      6.5951  16.6979   8.0725   C.ar      1 RES1   0.0000
    29 H11      7.0982  17.4992   8.1406   H         1 RES1   0.0000
    30 C16      6.7615  15.8669   6.9720   C.ar      1 RES1   0.0000
    31 H12      7.3790  16.1022   6.2910   H         1 RES1   0.0000
    32 N3       7.3508  12.6643   6.0544   N.3       1 RES1   0.0000
    33 C17      6.7503  11.7255   7.0401   C.3       1 RES1   0.0000
    34 H13      7.1616  11.8717   7.8395   H         1 RES1   0.0000
    35 H14      5.8726  11.9311   7.1351   H         1 RES1   0.0000
    36 C18      8.5305  13.3330   6.6315   C.3       1 RES1   0.0000
    37 H15      8.6673  14.1925   6.1691   H         1 RES1   0.0000
    38 H16      8.3571  13.5275   7.5814   H         1 RES1   0.0000
    39 C19      6.3155  13.7591   5.7210   C.3       1 RES1   0.0000
    40 H17      6.6396  14.2854   4.9575   H         1 RES1   0.0000
    41 H18      5.4759  13.3231   5.4504   H         1 RES1   0.0000
    42 N1A      8.6514  10.0859   3.4197   N.ar      1 RES1   0.0000
    43 C1A      9.3365  10.3038   2.2350   C.ar      1 RES1   0.0000
    44 C2A      9.8411   9.2313   1.5181   C.ar      1 RES1   0.0000
    45 H1A     10.3096   9.3812   0.7097   H         1 RES1   0.0000
    46 C3A      9.6557   7.9434   1.9841   C.ar      1 RES1   0.0000
    47 H2A      9.9987   7.2102   1.4930   H         1 RES1   0.0000
    48 C4A      8.9689   7.7254   3.1688   C.ar      1 RES1   0.0000
    49 H3A      8.8434   6.8436   3.4860   H         1 RES1   0.0000
    50 C5A      8.4660   8.7966   3.8857   C.ar      1 RES1   0.0000
    51 N2A      6.4010  11.6017   3.4555   N.ar      1 RES1   0.0000
    52 C6A      5.2455  10.8760   3.7100   C.ar      1 RES1   0.0000
    53 H4A      5.2299  10.2345   4.4073   H         1 RES1   0.0000
    54 C7A      4.1094  11.0890   2.9465   C.ar      1 RES1   0.0000
    55 H5A      3.3189  10.5924   3.1222   H         1 RES1   0.0000
    56 C8A      4.1323  12.0277   1.9285   C.ar      1 RES1   0.0000
    57 H6A      3.3559  12.1726   1.4052   H         1 RES1   0.0000
    58 C9A      5.2897  12.7535   1.6722   C.ar      1 RES1   0.0000
    59 H7A      5.3036  13.3950   0.9750   H         1 RES1   0.0000
    60 C10A     6.4241  12.5404   2.4357   C.ar      1 RES1   0.0000
    61 C11A    10.1541  14.6953   2.0934   C.ar      1 RES1   0.0000
    62 C12A    11.0568  14.3535   1.0969   C.ar      1 RES1   0.0000
    63 H8A     11.5597  13.5510   1.1668   H         1 RES1   0.0000
    64 C13A    11.2249  15.1833  -0.0036   C.ar      1 RES1   0.0000
    65 H9A     11.8390  14.9504  -0.6847   H         1 RES1   0.0000
    66 C14A    10.4868  16.3561  -0.1075   C.ar      1 RES1   0.0000
    67 H10A    10.5997  16.9245  -0.8585   H         1 RES1   0.0000
    68 C15A     9.5858  16.6979   0.8890   C.ar      1 RES1   0.0000
    69 H11A     9.0827  17.4992   0.8209   H         1 RES1   0.0000
    70 C16A     9.4194  15.8669   1.9894   C.ar      1 RES1   0.0000
    71 H12A     8.8019  16.1022   2.6705   H         1 RES1   0.0000
    72 N3A      8.8301  12.6643   2.9071   N.3       1 RES1   0.0000
    73 C17A     9.4306  11.7255   1.9213   C.3       1 RES1   0.0000
    74 H13A     9.0192  11.8717   1.1220   H         1 RES1   0.0000
    75 H14A    10.3083  11.9311   1.8263   H         1 RES1   0.0000
    76 C18A     7.6504  13.3330   2.3300   C.3       1 RES1   0.0000
    77 H15A     7.5136  14.1925   2.7924   H         1 RES1   0.0000
    78 H16A     7.8238  13.5275   1.3801   H         1 RES1   0.0000
    79 C19A     9.8654  13.7591   3.2405   C.3       1 RES1   0.0000
    80 H17A     9.5413  14.2854   4.0040   H         1 RES1   0.0000
    81 H18A    10.7050  13.3231   3.5111   H         1 RES1   0.0000
    82 P1      14.0175  10.9181   2.3622   P.3       2 RES2  -1.0000
    83 F1      14.9280  10.4822   3.5667   F         2 RES2   0.0000
    84 F2      14.6023   9.6945   1.5450   F         2 RES2   0.0000
    85 F3      13.1918  11.4308   1.1686   F         2 RES2   0.0000
    86 F4      13.4386  12.1318   3.2028   F         2 RES2   0.0000
    87 F5      12.8590  10.0499   2.8999   F         2 RES2   0.0000
    88 F6      15.2012  11.7974   1.7995   F         2 RES2   0.0000
@<TRIPOS>BOND
     1     1     2    1
     2     2     3   ar
     3     3     4   ar
     4     4     5    1
     5     6     4   ar
     6     7     6    1
     7     8     6   ar
     8     9     8    1
     9    10     2   ar
    10    11     1    1
    11    12    11   ar
    12    13    12    1
    13    14    12   ar
    14    15    14    1
    15    16    14   ar
    16    17    16    1
    17    18    16   ar
    18    19    18    1
    19    20    11   ar
    20    21    22   ar
    21    22    23    1
    22    24    22   ar
    23    25    24    1
    24    26    24   ar
    25    27    26    1
    26    28    26   ar
    27    29    28    1
    28    30    21   ar
    29    31    30    1
    30    32     1    1
    31    33     3    1
    32    34    33    1
    33    35    33    1
    34    36    20    1
    35    37    36    1
    36    38    36    1
    37    39    21    1
    38    40    39    1
    39    41    39    1
    40    42     1    1
    41    43    42   ar
    42    44    43   ar
    43    45    44    1
    44    46    44   ar
    45    47    46    1
    46    48    46   ar
    47    49    48    1
    48    50    10    1
    49    51     1    1
    50    52    51   ar
    51    53    52    1
    52    54    52   ar
    53    55    54    1
    54    56    54   ar
    55    57    56    1
    56    58    56   ar
    57    59    58    1
    58    60    51   ar
    59    61    62   ar
    60    62    63    1
    61    64    62   ar
    62    65    64    1
    63    66    64   ar
    64    67    66    1
    65    68    66   ar
    66    69    68    1
    67    70    61   ar
    68    71    70    1
    69    72     1    1
    70    73    43    1
    71    74    73    1
    72    75    73    1
    73    76    60    1
    74    77    76    1
    75    78    76    1
    76    79    61    1
    77    80    79    1
    78    81    79    1
    79     8    10   ar
    80    18    20   ar
    81    28    30   ar
    82    32    33    1
    83    32    36    1
    84    32    39    1
    85    42    50   ar
    86    48    50   ar
    87    58    60   ar
    88    68    70   ar
    89    72    73    1
    90    72    76    1
    91    72    79    1
    92    82    83    1
    93    84    82    1
    94    85    82    1
    95    86    82    1
    96    87    82    1
    97    88    82    1
@<TRIPOS>SUBSTRUCTURE
     1 RES1        1 GROUP             0 ****  ****    0  
     2 RES2       82 GROUP             0 ****  ****    0  
@<TRIPOS>CRYSIN
   17.1997   12.3844   18.0384   90.0000   96.4860   90.0000    15     1
